MODEL 1
REMARK VINA RESULT:      -7.0      0.000      0.000
REMARK  26 active torsions:
REMARK  status: ('A' for Active; 'I' for Inactive)
REMARK    1  A    between atoms: C2_2  and  C3_3 
REMARK    2  A    between atoms: C4_6  and  C5_7 
REMARK       I    between atoms: C5_7  and  N2_9 
REMARK    3  A    between atoms: N2_9  and  C6_10 
REMARK    4  A    between atoms: C6_10  and  C7_11 
REMARK    5  A    between atoms: C6_10  and  C8_13 
REMARK       I    between atoms: C7_11  and  N3_14 
REMARK    6  A    between atoms: N3_14  and  C9_15 
REMARK    7  A    between atoms: C9_15  and  C10_16 
REMARK    8  A    between atoms: C9_15  and  C11_18 
REMARK       I    between atoms: C10_16  and  N4_21 
REMARK    9  A    between atoms: C11_18  and  C12_19 
REMARK   10  A    between atoms: C11_18  and  C13_20 
REMARK   11  A    between atoms: N4_21  and  C14_22 
REMARK   12  A    between atoms: C14_22  and  C15_23 
REMARK   13  A    between atoms: C14_22  and  C16_25 
REMARK       I    between atoms: C15_23  and  N6_40 
REMARK   14  A    between atoms: C16_25  and  C17_26 
REMARK   15  A    between atoms: C17_26  and  C18_27 
REMARK   16  A    between atoms: C17_26  and  C19_28 
REMARK   17  A    between atoms: C20_29  and  C21_30 
REMARK   18  A    between atoms: C20_29  and  C24_33 
REMARK   19  A    between atoms: C20_29  and  N6_40 
REMARK   20  A    between atoms: C21_30  and  C22_31 
REMARK   21  A    between atoms: C22_31  and  C23_32 
REMARK   22  A    between atoms: C23_32  and  O8_43 
REMARK   23  A    between atoms: C24_33  and  C25_34 
REMARK   24  A    between atoms: C28_38  and  O6_39 
REMARK   25  A    between atoms: C29_42  and  O8_43 
REMARK   26  A    between atoms: C29_42  and  C35_49 
ROOT
ATOM      1  C14 non d ame     -36.636  16.275  26.749  0.00  0.00     0.089 C 
ATOM      2  H20 non d ame     -37.143  16.746  27.591  0.00  0.00     0.087 H 
ENDROOT
BRANCH   1   3
ATOM      3  N4  non d ame     -35.204  16.428  26.958  0.00  0.00    -0.346 N 
ATOM      4  C10 non d ame     -34.686  17.333  28.046  0.00  0.00     0.241 C 
ATOM      5  O4  non d ame     -35.441  17.931  28.740  0.00  0.00    -0.271 OA
ATOM      6  H19 non d ame     -34.578  15.912  26.355  0.00  0.00     0.163 HD
BRANCH   4   7
ATOM      7  C9  non d ame     -33.200  17.475  28.252  0.00  0.00     0.092 C 
ATOM      8  H11 non d ame     -33.017  18.017  29.181  0.00  0.00     0.088 H 
BRANCH   7   9
ATOM      9  N3  non d ame     -32.598  16.147  28.400  0.00  0.00    -0.346 N 
ATOM     10  C7  non d ame     -31.747  15.863  29.529  0.00  0.00     0.240 C 
ATOM     11  O3  non d ame     -31.535  16.692  30.328  0.00  0.00    -0.271 OA
ATOM     12  H10 non d ame     -32.770  15.422  27.718  0.00  0.00     0.163 HD
BRANCH  10  13
ATOM     13  C6  non d ame     -31.106  14.448  29.679  0.00  0.00     0.086 C 
ATOM     14  H6  non d ame     -30.426  14.381  30.527  0.00  0.00     0.086 H 
BRANCH  13  15
ATOM     15  N2  non d ame     -32.160  13.476  29.913  0.00  0.00    -0.343 N 
ATOM     16  C5  non d ame     -31.854  12.241  30.639  0.00  0.00     0.273 C 
ATOM     17  O2  non d ame     -30.756  12.039  31.028  0.00  0.00    -0.266 OA
ATOM     18  H5  non d ame     -33.095  13.656  29.575  0.00  0.00     0.163 HD
BRANCH  16  19
ATOM     19  C4  non d ame     -32.959  11.205  30.895  0.00  0.00     0.154 A 
ATOM     20  C1  non d ame     -33.349  10.127  30.038  0.00  0.00    -0.017 A 
ATOM     21  C2  non d ame     -34.398   9.477  30.726  0.00  0.00     0.077 A 
ATOM     22  H1  non d ame     -32.934   9.857  29.067  0.00  0.00     0.091 H 
ATOM     23  O1  non d ame     -34.580  10.113  31.846  0.00  0.00    -0.218 OA
ATOM     24  N1  non d ame     -33.753  11.126  31.967  0.00  0.00    -0.123 NA
BRANCH  21  25
ATOM     25  C3  non d ame     -35.171   8.255  30.246  0.00  0.00    -0.029 C 
ATOM     26  H2  non d ame     -34.586   7.728  29.492  0.00  0.00     0.036 H 
ATOM     27  H3  non d ame     -35.360   7.591  31.088  0.00  0.00     0.036 H 
ATOM     28  H4  non d ame     -36.119   8.573  29.813  0.00  0.00     0.036 H 
ENDBRANCH  21  25
ENDBRANCH  16  19
ENDBRANCH  13  15
BRANCH  13  29
ATOM     29  C8  non d ame     -30.352  14.100  28.421  0.00  0.00    -0.049 C 
ATOM     30  H7  non d ame     -31.058  13.823  27.638  0.00  0.00     0.030 H 
ATOM     31  H8  non d ame     -29.770  14.962  28.096  0.00  0.00     0.030 H 
ATOM     32  H9  non d ame     -29.682  13.263  28.618  0.00  0.00     0.030 H 
ENDBRANCH  13  29
ENDBRANCH  10  13
ENDBRANCH   7   9
BRANCH   7  33
ATOM     33  C11 non d ame     -32.573  18.193  27.022  0.00  0.00    -0.033 C 
ATOM     34  H12 non d ame     -31.545  18.450  27.280  0.00  0.00     0.042 H 
BRANCH  33  35
ATOM     35  C12 non d ame     -32.522  17.251  25.779  0.00  0.00    -0.071 C 
ATOM     36  H13 non d ame     -33.265  16.461  25.891  0.00  0.00     0.028 H 
ATOM     37  H14 non d ame     -32.736  17.826  24.879  0.00  0.00     0.028 H 
ATOM     38  H15 non d ame     -31.530  16.808  25.700  0.00  0.00     0.028 H 
ENDBRANCH  33  35
BRANCH  33  39
ATOM     39  C13 non d ame     -33.335  19.518  26.698  0.00  0.00    -0.071 C 
ATOM     40  H16 non d ame     -33.189  20.230  27.511  0.00  0.00     0.028 H 
ATOM     41  H17 non d ame     -32.950  19.942  25.770  0.00  0.00     0.028 H 
ATOM     42  H18 non d ame     -34.399  19.307  26.586  0.00  0.00     0.028 H 
ENDBRANCH  33  39
ENDBRANCH   7  33
ENDBRANCH   4   7
ENDBRANCH   1   3
BRANCH   1  43
ATOM     43  C15 non d ame     -36.962  14.758  26.640  0.00  0.00     0.240 C 
ATOM     44  O5  non d ame     -38.075  14.378  26.810  0.00  0.00    -0.271 OA
ATOM     45  N6  non d ame     -35.886  13.778  26.315  0.00  0.00    -0.355 N 
ATOM     46  H46 non d ame     -34.937  14.089  26.164  0.00  0.00     0.162 HD
BRANCH  45  47
ATOM     47  C20 non d ame     -36.212  12.339  26.214  0.00  0.00     0.013 C 
ATOM     48  H30 non d ame     -37.168  12.176  26.712  0.00  0.00     0.072 H 
BRANCH  47  49
ATOM     49  C21 non d ame     -35.130  11.532  26.896  0.00  0.00    -0.038 C 
ATOM     50  H31 non d ame     -35.558  11.206  27.844  0.00  0.00     0.036 H 
ATOM     51  H32 non d ame     -34.805  10.795  26.161  0.00  0.00     0.036 H 
BRANCH  49  52
ATOM     52  C22 non d ame     -33.885  12.376  27.247  0.00  0.00     0.018 C 
ATOM     53  H33 non d ame     -34.091  13.377  26.870  0.00  0.00     0.048 H 
ATOM     54  H34 non d ame     -33.714  12.220  28.313  0.00  0.00     0.048 H 
BRANCH  52  55
ATOM     55  C23 non d ame     -32.588  11.907  26.532  0.00  0.00     0.259 C 
ATOM     56  O7  non d ame     -31.850  11.142  27.062  0.00  0.00    -0.265 OA
BRANCH  55  57
ATOM     57  O8  non d ame     -32.284  12.412  25.237  0.00  0.00    -0.317 OA
BRANCH  57  58
ATOM     58  C29 non d ame     -31.782  13.752  25.239  0.00  0.00     0.052 C 
ATOM     59  H47 non d ame     -32.652  14.393  25.100  0.00  0.00     0.082 H 
ATOM     60  H48 non d ame     -31.179  13.840  26.142  0.00  0.00     0.082 H 
BRANCH  58  61
ATOM     61  C35 non d ame     -30.850  13.915  24.008  0.00  0.00    -0.034 A 
ATOM     62  C30 non d ame     -30.482  12.800  23.261  0.00  0.00    -0.075 A 
ATOM     63  C31 non d ame     -29.644  12.947  22.156  0.00  0.00    -0.082 A 
ATOM     64  H49 non d ame     -30.848  11.813  23.541  0.00  0.00     0.084 H 
ATOM     65  C32 non d ame     -29.172  14.213  21.801  0.00  0.00    -0.083 A 
ATOM     66  H50 non d ame     -29.358  12.072  21.572  0.00  0.00     0.083 H 
ATOM     67  C33 non d ame     -29.540  15.321  22.552  0.00  0.00    -0.082 A 
ATOM     68  H51 non d ame     -28.518  14.336  20.938  0.00  0.00     0.083 H 
ATOM     69  C34 non d ame     -30.378  15.180  23.655  0.00  0.00    -0.075 A 
ATOM     70  H52 non d ame     -29.168  16.308  22.273  0.00  0.00     0.083 H 
ATOM     71  H53 non d ame     -30.664  16.056  24.239  0.00  0.00     0.084 H 
ENDBRANCH  58  61
ENDBRANCH  57  58
ENDBRANCH  55  57
ENDBRANCH  52  55
ENDBRANCH  49  52
ENDBRANCH  47  49
BRANCH  47  72
ATOM     72  C24 non d ame     -36.303  11.931  24.745  0.00  0.00    -0.039 C 
ATOM     73  H35 non d ame     -35.690  12.654  24.205  0.00  0.00     0.036 H 
ATOM     74  H36 non d ame     -36.044  10.873  24.721  0.00  0.00     0.036 H 
BRANCH  72  75
ATOM     75  C25 non d ame     -37.797  12.066  24.184  0.00  0.00    -0.001 C 
ATOM     76  C26 non d ame     -38.227  10.686  23.400  0.00  0.00    -0.035 C 
ATOM     77  C27 non d ame     -38.705  11.012  22.175  0.00  0.00     0.085 C 
ATOM     78  H38 non d ame     -37.342  10.091  23.178  0.00  0.00     0.036 H 
ATOM     79  H39 non d ame     -39.084  10.227  23.893  0.00  0.00     0.036 H 
ATOM     80  N5  non d ame     -38.336  12.454  21.926  0.00  0.00    -0.049 N 
ATOM     81  H40 non d ame     -38.161  10.379  21.473  0.00  0.00     0.075 H 
ATOM     82  H41 non d ame     -39.788  10.931  22.254  0.00  0.00     0.075 H 
ATOM     83  C28 non d ame     -37.899  13.054  23.359  0.00  0.00     0.193 C 
ATOM     84  H42 non d ame     -37.527  12.443  21.321  0.00  0.00     0.280 HD
ATOM     85  H43 non d ame     -39.183  12.917  21.627  0.00  0.00     0.280 HD
ATOM     86  H44 non d ame     -38.573  13.707  23.915  0.00  0.00     0.129 H 
ATOM     87  H37 non d ame     -38.488  12.445  24.937  0.00  0.00     0.046 H 
BRANCH  83  88
ATOM     88  O6  non d ame     -36.676  13.783  23.236  0.00  0.00    -0.369 OA
ATOM     89  H45 non d ame     -36.826  14.574  22.714  0.00  0.00     0.212 HD
ENDBRANCH  83  88
ENDBRANCH  72  75
ENDBRANCH  47  72
ENDBRANCH  45  47
ENDBRANCH   1  43
BRANCH   1  90
ATOM     90  C16 non d ame     -37.026  16.975  25.457  0.00  0.00    -0.035 C 
ATOM     91  H21 non d ame     -36.150  16.902  24.813  0.00  0.00     0.037 H 
ATOM     92  H22 non d ame     -37.967  16.515  25.152  0.00  0.00     0.037 H 
BRANCH  90  93
ATOM     93  C17 non d ame     -37.317  18.499  25.633  0.00  0.00    -0.059 C 
ATOM     94  H23 non d ame     -36.973  18.789  26.626  0.00  0.00     0.038 H 
BRANCH  93  95
ATOM     95  C18 non d ame     -36.549  19.371  24.589  0.00  0.00    -0.073 C 
ATOM     96  H24 non d ame     -36.782  19.023  23.583  0.00  0.00     0.028 H 
ATOM     97  H25 non d ame     -36.852  20.413  24.692  0.00  0.00     0.028 H 
ATOM     98  H26 non d ame     -35.476  19.286  24.764  0.00  0.00     0.028 H 
ENDBRANCH  93  95
BRANCH  93  99
ATOM     99  C19 non d ame     -38.821  18.779  25.574  0.00  0.00    -0.073 C 
ATOM    100  H27 non d ame     -39.012  19.809  25.876  0.00  0.00     0.028 H 
ATOM    101  H28 non d ame     -39.180  18.627  24.556  0.00  0.00     0.028 H 
ATOM    102  H29 non d ame     -39.344  18.100  26.248  0.00  0.00     0.028 H 
ENDBRANCH  93  99
ENDBRANCH  90  93
ENDBRANCH   1  90
TORSDOF 26
ENDMDL
MODEL 2
REMARK VINA RESULT:      -6.9      3.921      8.421
REMARK  26 active torsions:
REMARK  status: ('A' for Active; 'I' for Inactive)
REMARK    1  A    between atoms: C2_2  and  C3_3 
REMARK    2  A    between atoms: C4_6  and  C5_7 
REMARK       I    between atoms: C5_7  and  N2_9 
REMARK    3  A    between atoms: N2_9  and  C6_10 
REMARK    4  A    between atoms: C6_10  and  C7_11 
REMARK    5  A    between atoms: C6_10  and  C8_13 
REMARK       I    between atoms: C7_11  and  N3_14 
REMARK    6  A    between atoms: N3_14  and  C9_15 
REMARK    7  A    between atoms: C9_15  and  C10_16 
REMARK    8  A    between atoms: C9_15  and  C11_18 
REMARK       I    between atoms: C10_16  and  N4_21 
REMARK    9  A    between atoms: C11_18  and  C12_19 
REMARK   10  A    between atoms: C11_18  and  C13_20 
REMARK   11  A    between atoms: N4_21  and  C14_22 
REMARK   12  A    between atoms: C14_22  and  C15_23 
REMARK   13  A    between atoms: C14_22  and  C16_25 
REMARK       I    between atoms: C15_23  and  N6_40 
REMARK   14  A    between atoms: C16_25  and  C17_26 
REMARK   15  A    between atoms: C17_26  and  C18_27 
REMARK   16  A    between atoms: C17_26  and  C19_28 
REMARK   17  A    between atoms: C20_29  and  C21_30 
REMARK   18  A    between atoms: C20_29  and  C24_33 
REMARK   19  A    between atoms: C20_29  and  N6_40 
REMARK   20  A    between atoms: C21_30  and  C22_31 
REMARK   21  A    between atoms: C22_31  and  C23_32 
REMARK   22  A    between atoms: C23_32  and  O8_43 
REMARK   23  A    between atoms: C24_33  and  C25_34 
REMARK   24  A    between atoms: C28_38  and  O6_39 
REMARK   25  A    between atoms: C29_42  and  O8_43 
REMARK   26  A    between atoms: C29_42  and  C35_49 
ROOT
ATOM      1  C14 non d ame     -31.101  14.050  24.501  0.00  0.00     0.089 C 
ATOM      2  H20 non d ame     -30.114  13.627  24.693  0.00  0.00     0.087 H 
ENDROOT
BRANCH   1   3
ATOM      3  N4  non d ame     -32.078  12.990  24.706  0.00  0.00    -0.346 N 
ATOM      4  C10 non d ame     -31.625  11.572  24.945  0.00  0.00     0.241 C 
ATOM      5  O4  non d ame     -30.468  11.307  24.966  0.00  0.00    -0.271 OA
ATOM      6  H19 non d ame     -33.058  13.237  24.683  0.00  0.00     0.163 HD
BRANCH   4   7
ATOM      7  C9  non d ame     -32.650  10.490  25.161  0.00  0.00     0.092 C 
ATOM      8  H11 non d ame     -33.514  10.682  24.525  0.00  0.00     0.088 H 
BRANCH   7   9
ATOM      9  N3  non d ame     -32.090   9.198  24.752  0.00  0.00    -0.346 N 
ATOM     10  C7  non d ame     -32.645   8.499  23.619  0.00  0.00     0.240 C 
ATOM     11  O3  non d ame     -33.542   8.960  23.027  0.00  0.00    -0.271 OA
ATOM     12  H10 non d ame     -31.317   8.786  25.255  0.00  0.00     0.163 HD
BRANCH  10  13
ATOM     13  C6  non d ame     -32.047   7.123  23.191  0.00  0.00     0.086 C 
ATOM     14  H6  non d ame     -31.033   6.970  23.561  0.00  0.00     0.086 H 
BRANCH  13  15
ATOM     15  N2  non d ame     -32.861   6.059  23.755  0.00  0.00    -0.343 N 
ATOM     16  C5  non d ame     -32.621   5.620  25.131  0.00  0.00     0.273 C 
ATOM     17  O2  non d ame     -31.769   6.127  25.775  0.00  0.00    -0.266 OA
ATOM     18  H5  non d ame     -33.585   5.629  23.196  0.00  0.00     0.163 HD
BRANCH  16  19
ATOM     19  C4  non d ame     -33.475   4.497  25.741  0.00  0.00     0.154 A 
ATOM     20  C1  non d ame     -34.700   3.966  25.227  0.00  0.00    -0.017 A 
ATOM     21  C2  non d ame     -35.077   2.963  26.148  0.00  0.00     0.077 A 
ATOM     22  H1  non d ame     -35.234   4.262  24.323  0.00  0.00     0.091 H 
ATOM     23  O1  non d ame     -34.167   2.930  27.078  0.00  0.00    -0.218 OA
ATOM     24  N1  non d ame     -33.223   3.816  26.863  0.00  0.00    -0.123 NA
BRANCH  21  25
ATOM     25  C3  non d ame     -36.317   2.084  26.066  0.00  0.00    -0.029 C 
ATOM     26  H2  non d ame     -36.027   1.070  25.793  0.00  0.00     0.036 H 
ATOM     27  H3  non d ame     -36.817   2.069  27.035  0.00  0.00     0.036 H 
ATOM     28  H4  non d ame     -36.997   2.483  25.313  0.00  0.00     0.036 H 
ENDBRANCH  21  25
ENDBRANCH  16  19
ENDBRANCH  13  15
BRANCH  13  29
ATOM     29  C8  non d ame     -32.036   7.023  21.687  0.00  0.00    -0.049 C 
ATOM     30  H7  non d ame     -31.338   6.244  21.379  0.00  0.00     0.030 H 
ATOM     31  H8  non d ame     -33.036   6.774  21.332  0.00  0.00     0.030 H 
ATOM     32  H9  non d ame     -31.726   7.977  21.261  0.00  0.00     0.030 H 
ENDBRANCH  13  29
ENDBRANCH  10  13
ENDBRANCH   7   9
BRANCH   7  33
ATOM     33  C11 non d ame     -33.033  10.432  26.669  0.00  0.00    -0.033 C 
ATOM     34  H12 non d ame     -32.442  11.186  27.188  0.00  0.00     0.042 H 
BRANCH  33  35
ATOM     35  C12 non d ame     -34.538  10.784  26.886  0.00  0.00    -0.071 C 
ATOM     36  H13 non d ame     -34.876  10.365  27.834  0.00  0.00     0.028 H 
ATOM     37  H14 non d ame     -34.659  11.866  26.904  0.00  0.00     0.028 H 
ATOM     38  H15 non d ame     -35.130  10.364  26.073  0.00  0.00     0.028 H 
ENDBRANCH  33  35
BRANCH  33  39
ATOM     39  C13 non d ame     -32.683   9.038  27.282  0.00  0.00    -0.071 C 
ATOM     40  H16 non d ame     -31.675   9.066  27.696  0.00  0.00     0.028 H 
ATOM     41  H17 non d ame     -33.395   8.799  28.073  0.00  0.00     0.028 H 
ATOM     42  H18 non d ame     -32.736   8.275  26.505  0.00  0.00     0.028 H 
ENDBRANCH  33  39
ENDBRANCH   7  33
ENDBRANCH   4   7
ENDBRANCH   1   3
BRANCH   1  43
ATOM     43  C15 non d ame     -31.434  15.224  25.466  0.00  0.00     0.240 C 
ATOM     44  O5  non d ame     -30.919  16.283  25.307  0.00  0.00    -0.271 OA
ATOM     45  N6  non d ame     -32.404  15.031  26.581  0.00  0.00    -0.355 N 
ATOM     46  H46 non d ame     -32.852  14.137  26.723  0.00  0.00     0.162 HD
BRANCH  45  47
ATOM     47  C20 non d ame     -32.711  16.158  27.489  0.00  0.00     0.013 C 
ATOM     48  H30 non d ame     -32.001  16.958  27.282  0.00  0.00     0.072 H 
BRANCH  47  49
ATOM     49  C21 non d ame     -32.568  15.698  28.922  0.00  0.00    -0.038 C 
ATOM     50  H31 non d ame     -31.504  15.762  29.148  0.00  0.00     0.036 H 
ATOM     51  H32 non d ame     -33.283  16.291  29.493  0.00  0.00     0.036 H 
BRANCH  49  52
ATOM     52  C22 non d ame     -32.969  14.220  29.120  0.00  0.00     0.018 C 
ATOM     53  H33 non d ame     -33.824  14.234  29.795  0.00  0.00     0.048 H 
ATOM     54  H34 non d ame     -33.071  13.805  28.118  0.00  0.00     0.048 H 
BRANCH  52  55
ATOM     55  C23 non d ame     -31.880  13.366  29.828  0.00  0.00     0.259 C 
ATOM     56  O7  non d ame     -30.733  13.500  29.550  0.00  0.00    -0.265 OA
BRANCH  55  57
ATOM     57  O8  non d ame     -32.271  12.410  30.806  0.00  0.00    -0.317 OA
BRANCH  57  58
ATOM     58  C29 non d ame     -32.479  11.095  30.284  0.00  0.00     0.052 C 
ATOM     59  H47 non d ame     -32.744  11.232  29.235  0.00  0.00     0.082 H 
ATOM     60  H48 non d ame     -31.589  10.527  30.551  0.00  0.00     0.082 H 
BRANCH  58  61
ATOM     61  C35 non d ame     -33.696  10.474  31.020  0.00  0.00    -0.034 A 
ATOM     62  C30 non d ame     -34.194   9.237  30.623  0.00  0.00    -0.075 A 
ATOM     63  C31 non d ame     -35.287   8.679  31.284  0.00  0.00    -0.082 A 
ATOM     64  H49 non d ame     -33.728   8.704  29.794  0.00  0.00     0.084 H 
ATOM     65  C32 non d ame     -35.885   9.365  32.345  0.00  0.00    -0.083 A 
ATOM     66  H50 non d ame     -35.674   7.709  30.972  0.00  0.00     0.083 H 
ATOM     67  C33 non d ame     -35.387  10.601  32.735  0.00  0.00    -0.082 A 
ATOM     68  H51 non d ame     -36.740   8.936  32.868  0.00  0.00     0.083 H 
ATOM     69  C34 non d ame     -34.293  11.161  32.079  0.00  0.00    -0.075 A 
ATOM     70  H52 non d ame     -35.857  11.134  33.562  0.00  0.00     0.083 H 
ATOM     71  H53 non d ame     -33.907  12.131  32.392  0.00  0.00     0.084 H 
ENDBRANCH  58  61
ENDBRANCH  57  58
ENDBRANCH  55  57
ENDBRANCH  52  55
ENDBRANCH  49  52
ENDBRANCH  47  49
BRANCH  47  72
ATOM     72  C24 non d ame     -34.140  16.640  27.247  0.00  0.00    -0.039 C 
ATOM     73  H35 non d ame     -34.510  16.044  26.413  0.00  0.00     0.036 H 
ATOM     74  H36 non d ame     -34.632  16.584  28.218  0.00  0.00     0.036 H 
BRANCH  72  75
ATOM     75  C25 non d ame     -34.177  18.173  26.785  0.00  0.00    -0.001 C 
ATOM     76  C26 non d ame     -32.657  18.800  26.800  0.00  0.00    -0.035 C 
ATOM     77  C27 non d ame     -32.668  19.955  27.507  0.00  0.00     0.085 C 
ATOM     78  H38 non d ame     -31.993  18.156  27.375  0.00  0.00     0.036 H 
ATOM     79  H39 non d ame     -32.374  19.118  25.796  0.00  0.00     0.036 H 
ATOM     80  N5  non d ame     -33.981  20.006  28.250  0.00  0.00    -0.049 N 
ATOM     81  H40 non d ame     -31.855  19.863  28.227  0.00  0.00     0.075 H 
ATOM     82  H41 non d ame     -32.650  20.752  26.763  0.00  0.00     0.075 H 
ATOM     83  C28 non d ame     -34.919  18.881  27.571  0.00  0.00     0.193 C 
ATOM     84  H42 non d ame     -33.782  19.729  29.201  0.00  0.00     0.280 HD
ATOM     85  H43 non d ame     -34.381  20.914  28.061  0.00  0.00     0.280 HD
ATOM     86  H44 non d ame     -35.718  19.165  26.887  0.00  0.00     0.129 H 
ATOM     87  H37 non d ame     -34.764  18.317  25.878  0.00  0.00     0.046 H 
BRANCH  83  88
ATOM     88  O6  non d ame     -35.545  18.087  28.581  0.00  0.00    -0.369 OA
ATOM     89  H45 non d ame     -35.319  18.434  29.447  0.00  0.00     0.212 HD
ENDBRANCH  83  88
ENDBRANCH  72  75
ENDBRANCH  47  72
ENDBRANCH  45  47
ENDBRANCH   1  43
BRANCH   1  90
ATOM     90  C16 non d ame     -31.185  14.531  23.062  0.00  0.00    -0.035 C 
ATOM     91  H21 non d ame     -31.787  13.785  22.543  0.00  0.00     0.037 H 
ATOM     92  H22 non d ame     -31.530  15.563  23.122  0.00  0.00     0.037 H 
BRANCH  90  93
ATOM     93  C17 non d ame     -29.805  14.568  22.332  0.00  0.00    -0.059 C 
ATOM     94  H23 non d ame     -29.075  14.985  23.025  0.00  0.00     0.038 H 
BRANCH  93  95
ATOM     95  C18 non d ame     -29.315  13.141  21.925  0.00  0.00    -0.073 C 
ATOM     96  H24 non d ame     -29.209  12.525  22.818  0.00  0.00     0.028 H 
ATOM     97  H25 non d ame     -30.041  12.685  21.254  0.00  0.00     0.028 H 
ATOM     98  H26 non d ame     -28.352  13.218  21.421  0.00  0.00     0.028 H 
ENDBRANCH  93  95
BRANCH  93  99
ATOM     99  C19 non d ame     -29.856  15.494  21.114  0.00  0.00    -0.073 C 
ATOM    100  H27 non d ame     -29.374  16.441  21.357  0.00  0.00     0.028 H 
ATOM    101  H28 non d ame     -29.335  15.025  20.278  0.00  0.00     0.028 H 
ATOM    102  H29 non d ame     -30.894  15.675  20.837  0.00  0.00     0.028 H 
ENDBRANCH  93  99
ENDBRANCH  90  93
ENDBRANCH   1  90
TORSDOF 26
ENDMDL
MODEL 3
REMARK VINA RESULT:      -6.8      2.490      5.575
REMARK  26 active torsions:
REMARK  status: ('A' for Active; 'I' for Inactive)
REMARK    1  A    between atoms: C2_2  and  C3_3 
REMARK    2  A    between atoms: C4_6  and  C5_7 
REMARK       I    between atoms: C5_7  and  N2_9 
REMARK    3  A    between atoms: N2_9  and  C6_10 
REMARK    4  A    between atoms: C6_10  and  C7_11 
REMARK    5  A    between atoms: C6_10  and  C8_13 
REMARK       I    between atoms: C7_11  and  N3_14 
REMARK    6  A    between atoms: N3_14  and  C9_15 
REMARK    7  A    between atoms: C9_15  and  C10_16 
REMARK    8  A    between atoms: C9_15  and  C11_18 
REMARK       I    between atoms: C10_16  and  N4_21 
REMARK    9  A    between atoms: C11_18  and  C12_19 
REMARK   10  A    between atoms: C11_18  and  C13_20 
REMARK   11  A    between atoms: N4_21  and  C14_22 
REMARK   12  A    between atoms: C14_22  and  C15_23 
REMARK   13  A    between atoms: C14_22  and  C16_25 
REMARK       I    between atoms: C15_23  and  N6_40 
REMARK   14  A    between atoms: C16_25  and  C17_26 
REMARK   15  A    between atoms: C17_26  and  C18_27 
REMARK   16  A    between atoms: C17_26  and  C19_28 
REMARK   17  A    between atoms: C20_29  and  C21_30 
REMARK   18  A    between atoms: C20_29  and  C24_33 
REMARK   19  A    between atoms: C20_29  and  N6_40 
REMARK   20  A    between atoms: C21_30  and  C22_31 
REMARK   21  A    between atoms: C22_31  and  C23_32 
REMARK   22  A    between atoms: C23_32  and  O8_43 
REMARK   23  A    between atoms: C24_33  and  C25_34 
REMARK   24  A    between atoms: C28_38  and  O6_39 
REMARK   25  A    between atoms: C29_42  and  O8_43 
REMARK   26  A    between atoms: C29_42  and  C35_49 
ROOT
ATOM      1  C14 non d ame     -36.503  15.804  26.474  0.00  0.00     0.089 C 
ATOM      2  H20 non d ame     -37.115  16.228  27.270  0.00  0.00     0.087 H 
ENDROOT
BRANCH   1   3
ATOM      3  N4  non d ame     -35.109  16.000  26.841  0.00  0.00    -0.346 N 
ATOM      4  C10 non d ame     -34.724  17.080  27.821  0.00  0.00     0.241 C 
ATOM      5  O4  non d ame     -35.554  17.781  28.298  0.00  0.00    -0.271 OA
ATOM      6  H19 non d ame     -34.417  15.394  26.422  0.00  0.00     0.163 HD
BRANCH   4   7
ATOM      7  C9  non d ame     -33.276  17.265  28.194  0.00  0.00     0.092 C 
ATOM      8  H11 non d ame     -33.216  17.815  29.133  0.00  0.00     0.088 H 
BRANCH   7   9
ATOM      9  N3  non d ame     -32.658  15.954  28.418  0.00  0.00    -0.346 N 
ATOM     10  C7  non d ame     -31.771  15.759  29.539  0.00  0.00     0.240 C 
ATOM     11  O3  non d ame     -31.542  16.645  30.268  0.00  0.00    -0.271 OA
ATOM     12  H10 non d ame     -32.844  15.181  27.796  0.00  0.00     0.163 HD
BRANCH  10  13
ATOM     13  C6  non d ame     -31.113  14.363  29.771  0.00  0.00     0.086 C 
ATOM     14  H6  non d ame     -30.519  14.323  30.683  0.00  0.00     0.086 H 
BRANCH  13  15
ATOM     15  N2  non d ame     -32.161  13.366  29.913  0.00  0.00    -0.343 N 
ATOM     16  C5  non d ame     -31.875  12.114  30.615  0.00  0.00     0.273 C 
ATOM     17  O2  non d ame     -30.797  11.916  31.060  0.00  0.00    -0.266 OA
ATOM     18  H5  non d ame     -33.078  13.542  29.527  0.00  0.00     0.163 HD
BRANCH  16  19
ATOM     19  C4  non d ame     -32.973  11.051  30.774  0.00  0.00     0.154 A 
ATOM     20  C1  non d ame     -34.047  11.053  31.720  0.00  0.00    -0.017 A 
ATOM     21  C2  non d ame     -34.769   9.868  31.453  0.00  0.00     0.077 A 
ATOM     22  H1  non d ame     -34.269  11.799  32.483  0.00  0.00     0.091 H 
ATOM     23  O1  non d ame     -34.172   9.265  30.467  0.00  0.00    -0.218 OA
ATOM     24  N1  non d ame     -33.122   9.936  30.054  0.00  0.00    -0.123 NA
BRANCH  21  25
ATOM     25  C3  non d ame     -36.015   9.387  32.184  0.00  0.00    -0.029 C 
ATOM     26  H2  non d ame     -36.172   8.328  31.978  0.00  0.00     0.036 H 
ATOM     27  H3  non d ame     -35.886   9.533  33.256  0.00  0.00     0.036 H 
ATOM     28  H4  non d ame     -36.879   9.956  31.842  0.00  0.00     0.036 H 
ENDBRANCH  21  25
ENDBRANCH  16  19
ENDBRANCH  13  15
BRANCH  13  29
ATOM     29  C8  non d ame     -30.229  14.020  28.599  0.00  0.00    -0.049 C 
ATOM     30  H7  non d ame     -30.633  14.474  27.694  0.00  0.00     0.030 H 
ATOM     31  H8  non d ame     -29.224  14.401  28.778  0.00  0.00     0.030 H 
ATOM     32  H9  non d ame     -30.191  12.937  28.476  0.00  0.00     0.030 H 
ENDBRANCH  13  29
ENDBRANCH  10  13
ENDBRANCH   7   9
BRANCH   7  33
ATOM     33  C11 non d ame     -32.532  17.995  27.038  0.00  0.00    -0.033 C 
ATOM     34  H12 non d ame     -31.494  18.126  27.346  0.00  0.00     0.042 H 
BRANCH  33  35
ATOM     35  C12 non d ame     -32.530  17.140  25.733  0.00  0.00    -0.071 C 
ATOM     36  H13 non d ame     -32.243  16.115  25.970  0.00  0.00     0.028 H 
ATOM     37  H14 non d ame     -33.527  17.146  25.293  0.00  0.00     0.028 H 
ATOM     38  H15 non d ame     -31.817  17.561  25.024  0.00  0.00     0.028 H 
ENDBRANCH  33  35
BRANCH  33  39
ATOM     39  C13 non d ame     -33.143  19.411  26.786  0.00  0.00    -0.071 C 
ATOM     40  H16 non d ame     -34.109  19.484  27.286  0.00  0.00     0.028 H 
ATOM     41  H17 non d ame     -32.470  20.173  27.182  0.00  0.00     0.028 H 
ATOM     42  H18 non d ame     -33.274  19.565  25.715  0.00  0.00     0.028 H 
ENDBRANCH  33  39
ENDBRANCH   7  33
ENDBRANCH   4   7
ENDBRANCH   1   3
BRANCH   1  43
ATOM     43  C15 non d ame     -36.757  14.281  26.285  0.00  0.00     0.240 C 
ATOM     44  O5  non d ame     -37.474  13.905  25.415  0.00  0.00    -0.271 OA
ATOM     45  N6  non d ame     -36.098  13.291  27.183  0.00  0.00    -0.355 N 
ATOM     46  H46 non d ame     -35.483  13.598  27.923  0.00  0.00     0.162 HD
BRANCH  45  47
ATOM     47  C20 non d ame     -36.348  11.846  26.990  0.00  0.00     0.013 C 
ATOM     48  H30 non d ame     -36.404  11.656  25.918  0.00  0.00     0.072 H 
BRANCH  47  49
ATOM     49  C21 non d ame     -37.656  11.473  27.650  0.00  0.00    -0.038 C 
ATOM     50  H31 non d ame     -38.104  12.414  27.970  0.00  0.00     0.036 H 
ATOM     51  H32 non d ame     -38.175  10.836  26.934  0.00  0.00     0.036 H 
BRANCH  49  52
ATOM     52  C22 non d ame     -37.462  10.626  28.927  0.00  0.00     0.018 C 
ATOM     53  H33 non d ame     -36.397  10.400  28.973  0.00  0.00     0.048 H 
ATOM     54  H34 non d ame     -37.934  11.192  29.731  0.00  0.00     0.048 H 
BRANCH  52  55
ATOM     55  C23 non d ame     -38.190   9.254  28.885  0.00  0.00     0.259 C 
ATOM     56  O7  non d ame     -39.293   9.143  29.312  0.00  0.00    -0.265 OA
BRANCH  55  57
ATOM     57  O8  non d ame     -37.517   8.125  28.341  0.00  0.00    -0.317 OA
BRANCH  57  58
ATOM     58  C29 non d ame     -37.891   6.880  28.939  0.00  0.00     0.052 C 
ATOM     59  H47 non d ame     -38.596   7.133  29.731  0.00  0.00     0.082 H 
ATOM     60  H48 non d ame     -38.203   6.239  28.116  0.00  0.00     0.082 H 
BRANCH  58  61
ATOM     61  C35 non d ame     -36.624   6.262  29.589  0.00  0.00    -0.034 A 
ATOM     62  C30 non d ame     -36.553   6.111  30.970  0.00  0.00    -0.075 A 
ATOM     63  C31 non d ame     -35.415   5.556  31.554  0.00  0.00    -0.082 A 
ATOM     64  H49 non d ame     -37.388   6.427  31.595  0.00  0.00     0.084 H 
ATOM     65  C32 non d ame     -34.344   5.154  30.751  0.00  0.00    -0.083 A 
ATOM     66  H50 non d ame     -35.363   5.437  32.637  0.00  0.00     0.083 H 
ATOM     67  C33 non d ame     -34.418   5.310  29.374  0.00  0.00    -0.082 A 
ATOM     68  H51 non d ame     -33.451   4.718  31.199  0.00  0.00     0.083 H 
ATOM     69  C34 non d ame     -35.554   5.862  28.786  0.00  0.00    -0.075 A 
ATOM     70  H52 non d ame     -33.580   4.997  28.750  0.00  0.00     0.083 H 
ATOM     71  H53 non d ame     -35.606   5.981  27.703  0.00  0.00     0.084 H 
ENDBRANCH  58  61
ENDBRANCH  57  58
ENDBRANCH  55  57
ENDBRANCH  52  55
ENDBRANCH  49  52
ENDBRANCH  47  49
BRANCH  47  72
ATOM     72  C24 non d ame     -35.212  11.037  27.614  0.00  0.00    -0.039 C 
ATOM     73  H35 non d ame     -34.579  11.768  28.118  0.00  0.00     0.036 H 
ATOM     74  H36 non d ame     -35.699  10.250  28.189  0.00  0.00     0.036 H 
BRANCH  72  75
ATOM     75  C25 non d ame     -34.313  10.321  26.499  0.00  0.00    -0.001 C 
ATOM     76  C26 non d ame     -34.195   8.713  26.822  0.00  0.00    -0.035 C 
ATOM     77  C27 non d ame     -32.887   8.360  26.808  0.00  0.00     0.085 C 
ATOM     78  H38 non d ame     -34.501   8.515  27.849  0.00  0.00     0.036 H 
ATOM     79  H39 non d ame     -34.624   8.134  26.004  0.00  0.00     0.036 H 
ATOM     80  N5  non d ame     -32.084   9.638  26.829  0.00  0.00    -0.049 N 
ATOM     81  H40 non d ame     -32.721   7.820  27.740  0.00  0.00     0.075 H 
ATOM     82  H41 non d ame     -32.732   7.858  25.853  0.00  0.00     0.075 H 
ATOM     83  C28 non d ame     -33.122  10.820  26.467  0.00  0.00     0.193 C 
ATOM     84  H42 non d ame     -31.772   9.764  27.781  0.00  0.00     0.280 HD
ATOM     85  H43 non d ame     -31.409   9.563  26.081  0.00  0.00     0.280 HD
ATOM     86  H44 non d ame     -33.123  11.272  25.474  0.00  0.00     0.129 H 
ATOM     87  H37 non d ame     -34.606  10.603  25.487  0.00  0.00     0.046 H 
BRANCH  83  88
ATOM     88  O6  non d ame     -32.969  11.908  27.381  0.00  0.00    -0.369 OA
ATOM     89  H45 non d ame     -33.762  12.449  27.370  0.00  0.00     0.212 HD
ENDBRANCH  83  88
ENDBRANCH  72  75
ENDBRANCH  47  72
ENDBRANCH  45  47
ENDBRANCH   1  43
BRANCH   1  90
ATOM     90  C16 non d ame     -36.780  16.534  25.169  0.00  0.00    -0.035 C 
ATOM     91  H21 non d ame     -35.801  16.705  24.721  0.00  0.00     0.037 H 
ATOM     92  H22 non d ame     -37.518  15.924  24.648  0.00  0.00     0.037 H 
BRANCH  90  93
ATOM     93  C17 non d ame     -37.427  17.942  25.363  0.00  0.00    -0.059 C 
ATOM     94  H23 non d ame     -37.699  18.039  26.414  0.00  0.00     0.038 H 
BRANCH  93  95
ATOM     95  C18 non d ame     -36.436  19.099  25.019  0.00  0.00    -0.073 C 
ATOM     96  H24 non d ame     -36.134  19.021  23.975  0.00  0.00     0.028 H 
ATOM     97  H25 non d ame     -36.926  20.059  25.183  0.00  0.00     0.028 H 
ATOM     98  H26 non d ame     -35.557  19.027  25.659  0.00  0.00     0.028 H 
ENDBRANCH  93  95
BRANCH  93  99
ATOM     99  C19 non d ame     -38.716  18.068  24.547  0.00  0.00    -0.073 C 
ATOM    100  H27 non d ame     -38.767  17.258  23.819  0.00  0.00     0.028 H 
ATOM    101  H28 non d ame     -39.577  18.011  25.214  0.00  0.00     0.028 H 
ATOM    102  H29 non d ame     -38.725  19.025  24.026  0.00  0.00     0.028 H 
ENDBRANCH  93  99
ENDBRANCH  90  93
ENDBRANCH   1  90
TORSDOF 26
ENDMDL
MODEL 4
REMARK VINA RESULT:      -6.8      3.412      7.373
REMARK  26 active torsions:
REMARK  status: ('A' for Active; 'I' for Inactive)
REMARK    1  A    between atoms: C2_2  and  C3_3 
REMARK    2  A    between atoms: C4_6  and  C5_7 
REMARK       I    between atoms: C5_7  and  N2_9 
REMARK    3  A    between atoms: N2_9  and  C6_10 
REMARK    4  A    between atoms: C6_10  and  C7_11 
REMARK    5  A    between atoms: C6_10  and  C8_13 
REMARK       I    between atoms: C7_11  and  N3_14 
REMARK    6  A    between atoms: N3_14  and  C9_15 
REMARK    7  A    between atoms: C9_15  and  C10_16 
REMARK    8  A    between atoms: C9_15  and  C11_18 
REMARK       I    between atoms: C10_16  and  N4_21 
REMARK    9  A    between atoms: C11_18  and  C12_19 
REMARK   10  A    between atoms: C11_18  and  C13_20 
REMARK   11  A    between atoms: N4_21  and  C14_22 
REMARK   12  A    between atoms: C14_22  and  C15_23 
REMARK   13  A    between atoms: C14_22  and  C16_25 
REMARK       I    between atoms: C15_23  and  N6_40 
REMARK   14  A    between atoms: C16_25  and  C17_26 
REMARK   15  A    between atoms: C17_26  and  C18_27 
REMARK   16  A    between atoms: C17_26  and  C19_28 
REMARK   17  A    between atoms: C20_29  and  C21_30 
REMARK   18  A    between atoms: C20_29  and  C24_33 
REMARK   19  A    between atoms: C20_29  and  N6_40 
REMARK   20  A    between atoms: C21_30  and  C22_31 
REMARK   21  A    between atoms: C22_31  and  C23_32 
REMARK   22  A    between atoms: C23_32  and  O8_43 
REMARK   23  A    between atoms: C24_33  and  C25_34 
REMARK   24  A    between atoms: C28_38  and  O6_39 
REMARK   25  A    between atoms: C29_42  and  O8_43 
REMARK   26  A    between atoms: C29_42  and  C35_49 
ROOT
ATOM      1  C14 non d ame     -34.152   6.919  27.949  0.00  0.00     0.089 C 
ATOM      2  H20 non d ame     -33.782   6.339  28.795  0.00  0.00     0.087 H 
ENDROOT
BRANCH   1   3
ATOM      3  N4  non d ame     -34.496   8.244  28.442  0.00  0.00    -0.346 N 
ATOM      4  C10 non d ame     -34.860   8.447  29.891  0.00  0.00     0.241 C 
ATOM      5  O4  non d ame     -34.871   7.527  30.641  0.00  0.00    -0.271 OA
ATOM      6  H19 non d ame     -34.483   9.013  27.787  0.00  0.00     0.163 HD
BRANCH   4   7
ATOM      7  C9  non d ame     -35.207   9.826  30.386  0.00  0.00     0.092 C 
ATOM      8  H11 non d ame     -35.071   9.865  31.467  0.00  0.00     0.088 H 
BRANCH   7   9
ATOM      9  N3  non d ame     -34.286  10.803  29.798  0.00  0.00    -0.346 N 
ATOM     10  C7  non d ame     -33.231  11.372  30.599  0.00  0.00     0.240 C 
ATOM     11  O3  non d ame     -33.109  11.056  31.720  0.00  0.00    -0.271 OA
ATOM     12  H10 non d ame     -34.380  11.087  28.833  0.00  0.00     0.163 HD
BRANCH  10  13
ATOM     13  C6  non d ame     -32.255  12.414  29.969  0.00  0.00     0.086 C 
ATOM     14  H6  non d ame     -31.876  12.101  28.996  0.00  0.00     0.086 H 
BRANCH  13  15
ATOM     15  N2  non d ame     -32.971  13.661  29.755  0.00  0.00    -0.343 N 
ATOM     16  C5  non d ame     -32.524  14.578  28.705  0.00  0.00     0.273 C 
ATOM     17  O2  non d ame     -31.585  14.306  28.040  0.00  0.00    -0.266 OA
ATOM     18  H5  non d ame     -33.770  13.887  30.330  0.00  0.00     0.163 HD
BRANCH  16  19
ATOM     19  C4  non d ame     -33.272  15.899  28.468  0.00  0.00     0.154 A 
ATOM     20  C1  non d ame     -34.601  16.062  27.964  0.00  0.00    -0.017 A 
ATOM     21  C2  non d ame     -34.811  17.458  27.936  0.00  0.00     0.077 A 
ATOM     22  H1  non d ame     -35.306  15.285  27.665  0.00  0.00     0.091 H 
ATOM     23  O1  non d ame     -33.725  18.023  28.375  0.00  0.00    -0.218 OA
ATOM     24  N1  non d ame     -32.812  17.133  28.691  0.00  0.00    -0.123 NA
BRANCH  21  25
ATOM     25  C3  non d ame     -36.077  18.171  27.477  0.00  0.00    -0.029 C 
ATOM     26  H2  non d ame     -36.204  18.032  26.404  0.00  0.00     0.036 H 
ATOM     27  H3  non d ame     -36.938  17.755  28.001  0.00  0.00     0.036 H 
ATOM     28  H4  non d ame     -35.996  19.235  27.699  0.00  0.00     0.036 H 
ENDBRANCH  21  25
ENDBRANCH  16  19
ENDBRANCH  13  15
BRANCH  13  29
ATOM     29  C8  non d ame     -31.088  12.640  30.896  0.00  0.00    -0.049 C 
ATOM     30  H7  non d ame     -30.588  13.571  30.631  0.00  0.00     0.030 H 
ATOM     31  H8  non d ame     -31.448  12.701  31.923  0.00  0.00     0.030 H 
ATOM     32  H9  non d ame     -30.386  11.811  30.805  0.00  0.00     0.030 H 
ENDBRANCH  13  29
ENDBRANCH  10  13
ENDBRANCH   7   9
BRANCH   7  33
ATOM     33  C11 non d ame     -36.666  10.175  29.967  0.00  0.00    -0.033 C 
ATOM     34  H12 non d ame     -36.955  11.078  30.505  0.00  0.00     0.042 H 
BRANCH  33  35
ATOM     35  C12 non d ame     -36.759  10.488  28.441  0.00  0.00    -0.071 C 
ATOM     36  H13 non d ame     -37.385  11.368  28.289  0.00  0.00     0.028 H 
ATOM     37  H14 non d ame     -35.761  10.680  28.048  0.00  0.00     0.028 H 
ATOM     38  H15 non d ame     -37.198   9.636  27.922  0.00  0.00     0.028 H 
ENDBRANCH  33  35
BRANCH  33  39
ATOM     39  C13 non d ame     -37.652   9.033  30.373  0.00  0.00    -0.071 C 
ATOM     40  H16 non d ame     -38.210   8.707  29.495  0.00  0.00     0.028 H 
ATOM     41  H17 non d ame     -37.088   8.193  30.779  0.00  0.00     0.028 H 
ATOM     42  H18 non d ame     -38.345   9.403  31.128  0.00  0.00     0.028 H 
ENDBRANCH  33  39
ENDBRANCH   7  33
ENDBRANCH   4   7
ENDBRANCH   1   3
BRANCH   1  43
ATOM     43  C15 non d ame     -33.084   7.069  26.828  0.00  0.00     0.240 C 
ATOM     44  O5  non d ame     -32.010   6.580  26.966  0.00  0.00    -0.271 OA
ATOM     45  N6  non d ame     -33.403   7.816  25.578  0.00  0.00    -0.355 N 
ATOM     46  H46 non d ame     -34.314   8.232  25.447  0.00  0.00     0.162 HD
BRANCH  45  47
ATOM     47  C20 non d ame     -32.377   7.949  24.521  0.00  0.00     0.013 C 
ATOM     48  H30 non d ame     -31.424   7.620  24.936  0.00  0.00     0.072 H 
BRANCH  47  49
ATOM     49  C21 non d ame     -32.283   9.397  24.095  0.00  0.00    -0.038 C 
ATOM     50  H31 non d ame     -31.241   9.555  23.818  0.00  0.00     0.036 H 
ATOM     51  H32 non d ame     -33.072   9.538  23.356  0.00  0.00     0.036 H 
BRANCH  49  52
ATOM     52  C22 non d ame     -32.583  10.381  25.247  0.00  0.00     0.018 C 
ATOM     53  H33 non d ame     -33.533  10.850  24.995  0.00  0.00     0.048 H 
ATOM     54  H34 non d ame     -32.487   9.800  26.165  0.00  0.00     0.048 H 
BRANCH  52  55
ATOM     55  C23 non d ame     -31.553  11.539  25.365  0.00  0.00     0.259 C 
ATOM     56  O7  non d ame     -30.906  11.672  26.353  0.00  0.00    -0.265 OA
BRANCH  55  57
ATOM     57  O8  non d ame     -31.400  12.448  24.282  0.00  0.00    -0.317 OA
BRANCH  57  58
ATOM     58  C29 non d ame     -31.002  13.764  24.678  0.00  0.00     0.052 C 
ATOM     59  H47 non d ame     -31.902  14.239  25.068  0.00  0.00     0.082 H 
ATOM     60  H48 non d ame     -30.134  13.628  25.323  0.00  0.00     0.082 H 
BRANCH  58  61
ATOM     61  C35 non d ame     -30.553  14.532  23.407  0.00  0.00    -0.034 A 
ATOM     62  C30 non d ame     -29.203  14.607  23.079  0.00  0.00    -0.075 A 
ATOM     63  C31 non d ame     -28.799  15.297  21.937  0.00  0.00    -0.082 A 
ATOM     64  H49 non d ame     -28.461  14.126  23.717  0.00  0.00     0.084 H 
ATOM     65  C32 non d ame     -29.751  15.916  21.122  0.00  0.00    -0.083 A 
ATOM     66  H50 non d ame     -27.740  15.352  21.682  0.00  0.00     0.083 H 
ATOM     67  C33 non d ame     -31.097  15.841  21.455  0.00  0.00    -0.082 A 
ATOM     68  H51 non d ame     -29.444  16.456  20.227  0.00  0.00     0.083 H 
ATOM     69  C34 non d ame     -31.505  15.150  22.594  0.00  0.00    -0.075 A 
ATOM     70  H52 non d ame     -31.837  16.327  20.819  0.00  0.00     0.083 H 
ATOM     71  H53 non d ame     -32.564  15.095  22.849  0.00  0.00     0.084 H 
ENDBRANCH  58  61
ENDBRANCH  57  58
ENDBRANCH  55  57
ENDBRANCH  52  55
ENDBRANCH  49  52
ENDBRANCH  47  49
BRANCH  47  72
ATOM     72  C24 non d ame     -32.759   7.088  23.319  0.00  0.00    -0.039 C 
ATOM     73  H35 non d ame     -31.935   6.385  23.192  0.00  0.00     0.036 H 
ATOM     74  H36 non d ame     -33.762   6.718  23.534  0.00  0.00     0.036 H 
BRANCH  72  75
ATOM     75  C25 non d ame     -32.853   7.954  21.975  0.00  0.00    -0.001 C 
ATOM     76  C26 non d ame     -34.414   8.025  21.462  0.00  0.00    -0.035 C 
ATOM     77  C27 non d ame     -34.461   7.664  20.158  0.00  0.00     0.085 C 
ATOM     78  H38 non d ame     -35.006   7.259  21.961  0.00  0.00     0.036 H 
ATOM     79  H39 non d ame     -34.757   9.060  21.453  0.00  0.00     0.036 H 
ATOM     80  N5  non d ame     -33.128   7.040  19.823  0.00  0.00    -0.049 N 
ATOM     81  H40 non d ame     -35.237   6.901  20.095  0.00  0.00     0.075 H 
ATOM     82  H41 non d ame     -34.566   8.595  19.602  0.00  0.00     0.075 H 
ATOM     83  C28 non d ame     -32.136   7.436  21.034  0.00  0.00     0.193 C 
ATOM     84  H42 non d ame     -33.269   6.040  19.837  0.00  0.00     0.280 HD
ATOM     85  H43 non d ame     -32.804   7.493  18.981  0.00  0.00     0.280 HD
ATOM     86  H44 non d ame     -31.387   8.217  20.903  0.00  0.00     0.129 H 
ATOM     87  H37 non d ame     -32.313   8.898  22.054  0.00  0.00     0.046 H 
BRANCH  83  88
ATOM     88  O6  non d ame     -31.415   6.285  21.477  0.00  0.00    -0.369 OA
ATOM     89  H45 non d ame     -30.859   6.523  22.223  0.00  0.00     0.212 HD
ENDBRANCH  83  88
ENDBRANCH  72  75
ENDBRANCH  47  72
ENDBRANCH  45  47
ENDBRANCH   1  43
BRANCH   1  90
ATOM     90  C16 non d ame     -35.400   6.262  27.381  0.00  0.00    -0.035 C 
ATOM     91  H21 non d ame     -36.180   7.019  27.446  0.00  0.00     0.037 H 
ATOM     92  H22 non d ame     -35.102   5.869  26.408  0.00  0.00     0.037 H 
BRANCH  90  93
ATOM     93  C17 non d ame     -35.900   5.040  28.216  0.00  0.00    -0.059 C 
ATOM     94  H23 non d ame     -35.105   4.765  28.908  0.00  0.00     0.038 H 
BRANCH  93  95
ATOM     95  C18 non d ame     -37.170   5.383  29.059  0.00  0.00    -0.073 C 
ATOM     96  H24 non d ame     -36.881   5.559  30.095  0.00  0.00     0.028 H 
ATOM     97  H25 non d ame     -37.642   6.279  28.658  0.00  0.00     0.028 H 
ATOM     98  H26 non d ame     -37.872   4.551  29.014  0.00  0.00     0.028 H 
ENDBRANCH  93  95
BRANCH  93  99
ATOM     99  C19 non d ame     -36.156   3.830  27.314  0.00  0.00    -0.073 C 
ATOM    100  H27 non d ame     -35.229   3.544  26.816  0.00  0.00     0.028 H 
ATOM    101  H28 non d ame     -36.516   2.996  27.917  0.00  0.00     0.028 H 
ATOM    102  H29 non d ame     -36.906   4.086  26.566  0.00  0.00     0.028 H 
ENDBRANCH  93  99
ENDBRANCH  90  93
ENDBRANCH   1  90
TORSDOF 26
ENDMDL
MODEL 5
REMARK VINA RESULT:      -6.7      3.070      8.114
REMARK  26 active torsions:
REMARK  status: ('A' for Active; 'I' for Inactive)
REMARK    1  A    between atoms: C2_2  and  C3_3 
REMARK    2  A    between atoms: C4_6  and  C5_7 
REMARK       I    between atoms: C5_7  and  N2_9 
REMARK    3  A    between atoms: N2_9  and  C6_10 
REMARK    4  A    between atoms: C6_10  and  C7_11 
REMARK    5  A    between atoms: C6_10  and  C8_13 
REMARK       I    between atoms: C7_11  and  N3_14 
REMARK    6  A    between atoms: N3_14  and  C9_15 
REMARK    7  A    between atoms: C9_15  and  C10_16 
REMARK    8  A    between atoms: C9_15  and  C11_18 
REMARK       I    between atoms: C10_16  and  N4_21 
REMARK    9  A    between atoms: C11_18  and  C12_19 
REMARK   10  A    between atoms: C11_18  and  C13_20 
REMARK   11  A    between atoms: N4_21  and  C14_22 
REMARK   12  A    between atoms: C14_22  and  C15_23 
REMARK   13  A    between atoms: C14_22  and  C16_25 
REMARK       I    between atoms: C15_23  and  N6_40 
REMARK   14  A    between atoms: C16_25  and  C17_26 
REMARK   15  A    between atoms: C17_26  and  C18_27 
REMARK   16  A    between atoms: C17_26  and  C19_28 
REMARK   17  A    between atoms: C20_29  and  C21_30 
REMARK   18  A    between atoms: C20_29  and  C24_33 
REMARK   19  A    between atoms: C20_29  and  N6_40 
REMARK   20  A    between atoms: C21_30  and  C22_31 
REMARK   21  A    between atoms: C22_31  and  C23_32 
REMARK   22  A    between atoms: C23_32  and  O8_43 
REMARK   23  A    between atoms: C24_33  and  C25_34 
REMARK   24  A    between atoms: C28_38  and  O6_39 
REMARK   25  A    between atoms: C29_42  and  O8_43 
REMARK   26  A    between atoms: C29_42  and  C35_49 
ROOT
ATOM      1  C14 non d ame     -32.267   9.472  24.944  0.00  0.00     0.089 C 
ATOM      2  H20 non d ame     -31.619   8.644  25.232  0.00  0.00     0.087 H 
ENDROOT
BRANCH   1   3
ATOM      3  N4  non d ame     -33.637   9.080  25.238  0.00  0.00    -0.346 N 
ATOM      4  C10 non d ame     -34.062   7.639  25.103  0.00  0.00     0.241 C 
ATOM      5  O4  non d ame     -33.284   6.814  24.753  0.00  0.00    -0.271 OA
ATOM      6  H19 non d ame     -34.285   9.798  25.531  0.00  0.00     0.163 HD
BRANCH   4   7
ATOM      7  C9  non d ame     -35.483   7.250  25.415  0.00  0.00     0.092 C 
ATOM      8  H11 non d ame     -35.518   6.189  25.665  0.00  0.00     0.088 H 
BRANCH   7   9
ATOM      9  N3  non d ame     -35.944   7.988  26.595  0.00  0.00    -0.346 N 
ATOM     10  C7  non d ame     -36.510   7.276  27.715  0.00  0.00     0.240 C 
ATOM     11  O3  non d ame     -36.603   6.110  27.683  0.00  0.00    -0.271 OA
ATOM     12  H10 non d ame     -35.872   8.995  26.636  0.00  0.00     0.163 HD
BRANCH  10  13
ATOM     13  C6  non d ame     -37.002   8.068  28.966  0.00  0.00     0.086 C 
ATOM     14  H6  non d ame     -37.020   7.459  29.870  0.00  0.00     0.086 H 
BRANCH  13  15
ATOM     15  N2  non d ame     -36.083   9.165  29.222  0.00  0.00    -0.343 N 
ATOM     16  C5  non d ame     -34.927   8.948  30.095  0.00  0.00     0.273 C 
ATOM     17  O2  non d ame     -34.748   7.890  30.589  0.00  0.00    -0.266 OA
ATOM     18  H5  non d ame     -36.245  10.067  28.797  0.00  0.00     0.163 HD
BRANCH  16  19
ATOM     19  C4  non d ame     -33.946  10.098  30.373  0.00  0.00     0.154 A 
ATOM     20  C1  non d ame     -32.984  10.651  29.469  0.00  0.00    -0.017 A 
ATOM     21  C2  non d ame     -32.342  11.674  30.202  0.00  0.00     0.077 A 
ATOM     22  H1  non d ame     -32.782  10.355  28.439  0.00  0.00     0.091 H 
ATOM     23  O1  non d ame     -32.881  11.698  31.386  0.00  0.00    -0.218 OA
ATOM     24  N1  non d ame     -33.819  10.788  31.510  0.00  0.00    -0.123 NA
BRANCH  21  25
ATOM     25  C3  non d ame     -31.227  12.580  29.699  0.00  0.00    -0.029 C 
ATOM     26  H2  non d ame     -31.365  13.584  30.101  0.00  0.00     0.036 H 
ATOM     27  H3  non d ame     -30.265  12.187  30.026  0.00  0.00     0.036 H 
ATOM     28  H4  non d ame     -31.253  12.618  28.610  0.00  0.00     0.036 H 
ENDBRANCH  21  25
ENDBRANCH  16  19
ENDBRANCH  13  15
BRANCH  13  29
ATOM     29  C8  non d ame     -38.388   8.604  28.712  0.00  0.00    -0.049 C 
ATOM     30  H7  non d ame     -39.004   8.454  29.599  0.00  0.00     0.030 H 
ATOM     31  H8  non d ame     -38.330   9.669  28.487  0.00  0.00     0.030 H 
ATOM     32  H9  non d ame     -38.833   8.078  27.868  0.00  0.00     0.030 H 
ENDBRANCH  13  29
ENDBRANCH  10  13
ENDBRANCH   7   9
BRANCH   7  33
ATOM     33  C11 non d ame     -36.395   7.595  24.202  0.00  0.00    -0.033 C 
ATOM     34  H12 non d ame     -35.751   7.716  23.331  0.00  0.00     0.042 H 
BRANCH  33  35
ATOM     35  C12 non d ame     -37.391   6.435  23.891  0.00  0.00    -0.071 C 
ATOM     36  H13 non d ame     -38.413   6.812  23.938  0.00  0.00     0.028 H 
ATOM     37  H14 non d ame     -37.194   6.044  22.893  0.00  0.00     0.028 H 
ATOM     38  H15 non d ame     -37.264   5.640  24.625  0.00  0.00     0.028 H 
ENDBRANCH  33  35
BRANCH  33  39
ATOM     39  C13 non d ame     -37.150   8.943  24.435  0.00  0.00    -0.071 C 
ATOM     40  H16 non d ame     -38.148   8.738  24.823  0.00  0.00     0.028 H 
ATOM     41  H17 non d ame     -36.598   9.549  25.154  0.00  0.00     0.028 H 
ATOM     42  H18 non d ame     -37.230   9.483  23.492  0.00  0.00     0.028 H 
ENDBRANCH  33  39
ENDBRANCH   7  33
ENDBRANCH   4   7
ENDBRANCH   1   3
BRANCH   1  43
ATOM     43  C15 non d ame     -31.944  10.772  25.736  0.00  0.00     0.240 C 
ATOM     44  O5  non d ame     -31.109  10.756  26.582  0.00  0.00    -0.271 OA
ATOM     45  N6  non d ame     -32.669  12.038  25.433  0.00  0.00    -0.355 N 
ATOM     46  H46 non d ame     -33.377  12.065  24.714  0.00  0.00     0.162 HD
BRANCH  45  47
ATOM     47  C20 non d ame     -32.350  13.266  26.194  0.00  0.00     0.013 C 
ATOM     48  H30 non d ame     -32.182  12.982  27.233  0.00  0.00     0.072 H 
BRANCH  47  49
ATOM     49  C21 non d ame     -33.512  14.228  26.102  0.00  0.00    -0.038 C 
ATOM     50  H31 non d ame     -33.139  15.089  25.548  0.00  0.00     0.036 H 
ATOM     51  H32 non d ame     -34.346  13.645  25.709  0.00  0.00     0.036 H 
BRANCH  49  52
ATOM     52  C22 non d ame     -33.962  14.758  27.481  0.00  0.00     0.018 C 
ATOM     53  H33 non d ame     -34.962  15.163  27.330  0.00  0.00     0.048 H 
ATOM     54  H34 non d ame     -33.808  13.934  28.179  0.00  0.00     0.048 H 
BRANCH  52  55
ATOM     55  C23 non d ame     -33.099  15.936  28.011  0.00  0.00     0.259 C 
ATOM     56  O7  non d ame     -32.825  16.012  29.165  0.00  0.00    -0.265 OA
BRANCH  55  57
ATOM     57  O8  non d ame     -32.648  16.933  27.103  0.00  0.00    -0.317 OA
BRANCH  57  58
ATOM     58  C29 non d ame     -32.708  18.265  27.623  0.00  0.00     0.052 C 
ATOM     59  H47 non d ame     -32.780  18.155  28.705  0.00  0.00     0.082 H 
ATOM     60  H48 non d ame     -31.862  18.792  27.183  0.00  0.00     0.082 H 
BRANCH  58  61
ATOM     61  C35 non d ame     -34.017  18.921  27.108  0.00  0.00    -0.034 A 
ATOM     62  C30 non d ame     -34.781  19.713  27.959  0.00  0.00    -0.075 A 
ATOM     63  C31 non d ame     -35.956  20.303  27.496  0.00  0.00    -0.082 A 
ATOM     64  H49 non d ame     -34.459  19.872  28.988  0.00  0.00     0.084 H 
ATOM     65  C32 non d ame     -36.368  20.096  26.177  0.00  0.00    -0.083 A 
ATOM     66  H50 non d ame     -36.552  20.924  28.166  0.00  0.00     0.083 H 
ATOM     67  C33 non d ame     -35.604  19.302  25.333  0.00  0.00    -0.082 A 
ATOM     68  H51 non d ame     -37.286  20.554  25.807  0.00  0.00     0.083 H 
ATOM     69  C34 non d ame     -34.428  18.713  25.790  0.00  0.00    -0.075 A 
ATOM     70  H52 non d ame     -35.930  19.141  24.304  0.00  0.00     0.083 H 
ATOM     71  H53 non d ame     -33.833  18.092  25.120  0.00  0.00     0.084 H 
ENDBRANCH  58  61
ENDBRANCH  57  58
ENDBRANCH  55  57
ENDBRANCH  52  55
ENDBRANCH  49  52
ENDBRANCH  47  49
BRANCH  47  72
ATOM     72  C24 non d ame     -31.098  13.922  25.614  0.00  0.00    -0.039 C 
ATOM     73  H35 non d ame     -30.953  14.833  26.194  0.00  0.00     0.036 H 
ATOM     74  H36 non d ame     -30.334  13.145  25.621  0.00  0.00     0.036 H 
BRANCH  72  75
ATOM     75  C25 non d ame     -31.312  14.361  24.089  0.00  0.00    -0.001 C 
ATOM     76  C26 non d ame     -30.361  13.449  23.105  0.00  0.00    -0.035 C 
ATOM     77  C27 non d ame     -29.653  14.273  22.296  0.00  0.00     0.085 C 
ATOM     78  H38 non d ame     -29.592  12.945  23.690  0.00  0.00     0.036 H 
ATOM     79  H39 non d ame     -30.979  12.879  22.411  0.00  0.00     0.036 H 
ATOM     80  N5  non d ame     -29.789  15.667  22.858  0.00  0.00    -0.049 N 
ATOM     81  H40 non d ame     -28.616  13.951  22.388  0.00  0.00     0.075 H 
ATOM     82  H41 non d ame     -30.153  14.230  21.328  0.00  0.00     0.075 H 
ATOM     83  C28 non d ame     -31.009  15.604  23.913  0.00  0.00     0.193 C 
ATOM     84  H42 non d ame     -28.935  15.856  23.364  0.00  0.00     0.280 HD
ATOM     85  H43 non d ame     -30.060  16.261  22.087  0.00  0.00     0.280 HD
ATOM     86  H44 non d ame     -31.986  16.012  23.655  0.00  0.00     0.129 H 
ATOM     87  H37 non d ame     -32.367  14.439  23.825  0.00  0.00     0.046 H 
BRANCH  83  88
ATOM     88  O6  non d ame     -30.638  16.246  25.135  0.00  0.00    -0.369 OA
ATOM     89  H45 non d ame     -30.101  15.648  25.660  0.00  0.00     0.212 HD
ENDBRANCH  83  88
ENDBRANCH  72  75
ENDBRANCH  47  72
ENDBRANCH  45  47
ENDBRANCH   1  43
BRANCH   1  90
ATOM     90  C16 non d ame     -32.135   9.736  23.453  0.00  0.00    -0.035 C 
ATOM     91  H21 non d ame     -33.080   9.414  23.018  0.00  0.00     0.037 H 
ATOM     92  H22 non d ame     -31.823  10.778  23.371  0.00  0.00     0.037 H 
BRANCH  90  93
ATOM     93  C17 non d ame     -31.020   8.887  22.763  0.00  0.00    -0.059 C 
ATOM     94  H23 non d ame     -30.583   8.237  23.521  0.00  0.00     0.038 H 
BRANCH  93  95
ATOM     95  C18 non d ame     -31.590   7.979  21.627  0.00  0.00    -0.073 C 
ATOM     96  H24 non d ame     -32.043   7.090  22.065  0.00  0.00     0.028 H 
ATOM     97  H25 non d ame     -32.344   8.529  21.064  0.00  0.00     0.028 H 
ATOM     98  H26 non d ame     -30.782   7.683  20.958  0.00  0.00     0.028 H 
ENDBRANCH  93  95
BRANCH  93  99
ATOM     99  C19 non d ame     -29.899   9.784  22.232  0.00  0.00    -0.073 C 
ATOM    100  H27 non d ame     -30.333  10.643  21.720  0.00  0.00     0.028 H 
ATOM    101  H28 non d ame     -29.285  10.129  23.064  0.00  0.00     0.028 H 
ATOM    102  H29 non d ame     -29.281   9.219  21.535  0.00  0.00     0.028 H 
ENDBRANCH  93  99
ENDBRANCH  90  93
ENDBRANCH   1  90
TORSDOF 26
ENDMDL
MODEL 6
REMARK VINA RESULT:      -6.6      3.244      8.146
REMARK  26 active torsions:
REMARK  status: ('A' for Active; 'I' for Inactive)
REMARK    1  A    between atoms: C2_2  and  C3_3 
REMARK    2  A    between atoms: C4_6  and  C5_7 
REMARK       I    between atoms: C5_7  and  N2_9 
REMARK    3  A    between atoms: N2_9  and  C6_10 
REMARK    4  A    between atoms: C6_10  and  C7_11 
REMARK    5  A    between atoms: C6_10  and  C8_13 
REMARK       I    between atoms: C7_11  and  N3_14 
REMARK    6  A    between atoms: N3_14  and  C9_15 
REMARK    7  A    between atoms: C9_15  and  C10_16 
REMARK    8  A    between atoms: C9_15  and  C11_18 
REMARK       I    between atoms: C10_16  and  N4_21 
REMARK    9  A    between atoms: C11_18  and  C12_19 
REMARK   10  A    between atoms: C11_18  and  C13_20 
REMARK   11  A    between atoms: N4_21  and  C14_22 
REMARK   12  A    between atoms: C14_22  and  C15_23 
REMARK   13  A    between atoms: C14_22  and  C16_25 
REMARK       I    between atoms: C15_23  and  N6_40 
REMARK   14  A    between atoms: C16_25  and  C17_26 
REMARK   15  A    between atoms: C17_26  and  C18_27 
REMARK   16  A    between atoms: C17_26  and  C19_28 
REMARK   17  A    between atoms: C20_29  and  C21_30 
REMARK   18  A    between atoms: C20_29  and  C24_33 
REMARK   19  A    between atoms: C20_29  and  N6_40 
REMARK   20  A    between atoms: C21_30  and  C22_31 
REMARK   21  A    between atoms: C22_31  and  C23_32 
REMARK   22  A    between atoms: C23_32  and  O8_43 
REMARK   23  A    between atoms: C24_33  and  C25_34 
REMARK   24  A    between atoms: C28_38  and  O6_39 
REMARK   25  A    between atoms: C29_42  and  O8_43 
REMARK   26  A    between atoms: C29_42  and  C35_49 
ROOT
ATOM      1  C14 non d ame     -32.881   8.648  25.394  0.00  0.00     0.089 C 
ATOM      2  H20 non d ame     -31.832   8.402  25.558  0.00  0.00     0.087 H 
ENDROOT
BRANCH   1   3
ATOM      3  N4  non d ame     -33.673   7.797  26.269  0.00  0.00    -0.346 N 
ATOM      4  C10 non d ame     -32.996   6.866  27.243  0.00  0.00     0.241 C 
ATOM      5  O4  non d ame     -31.812   6.818  27.303  0.00  0.00    -0.271 OA
ATOM      6  H19 non d ame     -34.680   7.851  26.201  0.00  0.00     0.163 HD
BRANCH   4   7
ATOM      7  C9  non d ame     -33.831   5.996  28.146  0.00  0.00     0.092 C 
ATOM      8  H11 non d ame     -33.229   5.679  28.997  0.00  0.00     0.088 H 
BRANCH   7   9
ATOM      9  N3  non d ame     -34.953   6.777  28.676  0.00  0.00    -0.346 N 
ATOM     10  C7  non d ame     -35.347   6.627  30.055  0.00  0.00     0.240 C 
ATOM     11  O3  non d ame     -34.773   5.882  30.752  0.00  0.00    -0.271 OA
ATOM     12  H10 non d ame     -35.459   7.423  28.086  0.00  0.00     0.163 HD
BRANCH  10  13
ATOM     13  C6  non d ame     -36.543   7.459  30.613  0.00  0.00     0.086 C 
ATOM     14  H6  non d ame     -36.276   8.045  31.493  0.00  0.00     0.086 H 
BRANCH  13  15
ATOM     15  N2  non d ame     -36.974   8.405  29.598  0.00  0.00    -0.343 N 
ATOM     16  C5  non d ame     -37.276   9.786  29.981  0.00  0.00     0.273 C 
ATOM     17  O2  non d ame     -37.172  10.125  31.108  0.00  0.00    -0.266 OA
ATOM     18  H5  non d ame     -37.063   8.107  28.637  0.00  0.00     0.163 HD
BRANCH  16  19
ATOM     19  C4  non d ame     -37.730  10.798  28.917  0.00  0.00     0.154 A 
ATOM     20  C1  non d ame     -37.022  11.189  27.737  0.00  0.00    -0.017 A 
ATOM     21  C2  non d ame     -37.862  12.133  27.105  0.00  0.00     0.077 A 
ATOM     22  H1  non d ame     -36.048  10.841  27.392  0.00  0.00     0.091 H 
ATOM     23  O1  non d ame     -38.925  12.261  27.843  0.00  0.00    -0.218 OA
ATOM     24  N1  non d ame     -38.872  11.492  28.906  0.00  0.00    -0.123 NA
BRANCH  21  25
ATOM     25  C3  non d ame     -37.574  12.865  25.801  0.00  0.00    -0.029 C 
ATOM     26  H2  non d ame     -38.478  12.892  25.193  0.00  0.00     0.036 H 
ATOM     27  H3  non d ame     -37.252  13.883  26.018  0.00  0.00     0.036 H 
ATOM     28  H4  non d ame     -36.787  12.343  25.257  0.00  0.00     0.036 H 
ENDBRANCH  21  25
ENDBRANCH  16  19
ENDBRANCH  13  15
BRANCH  13  29
ATOM     29  C8  non d ame     -37.678   6.533  30.971  0.00  0.00    -0.049 C 
ATOM     30  H7  non d ame     -38.127   6.854  31.911  0.00  0.00     0.030 H 
ATOM     31  H8  non d ame     -38.430   6.559  30.183  0.00  0.00     0.030 H 
ATOM     32  H9  non d ame     -37.299   5.517  31.078  0.00  0.00     0.030 H 
ENDBRANCH  13  29
ENDBRANCH  10  13
ENDBRANCH   7   9
BRANCH   7  33
ATOM     33  C11 non d ame     -34.382   4.787  27.335  0.00  0.00    -0.033 C 
ATOM     34  H12 non d ame     -34.447   3.938  28.015  0.00  0.00     0.042 H 
BRANCH  33  35
ATOM     35  C12 non d ame     -35.820   5.069  26.799  0.00  0.00    -0.071 C 
ATOM     36  H13 non d ame     -36.497   5.225  27.639  0.00  0.00     0.028 H 
ATOM     37  H14 non d ame     -35.806   5.961  26.173  0.00  0.00     0.028 H 
ATOM     38  H15 non d ame     -36.163   4.218  26.211  0.00  0.00     0.028 H 
ENDBRANCH  33  35
BRANCH  33  39
ATOM     39  C13 non d ame     -33.410   4.403  26.174  0.00  0.00    -0.071 C 
ATOM     40  H16 non d ame     -32.832   3.523  26.459  0.00  0.00     0.028 H 
ATOM     41  H17 non d ame     -33.987   4.182  25.275  0.00  0.00     0.028 H 
ATOM     42  H18 non d ame     -32.734   5.234  25.976  0.00  0.00     0.028 H 
ENDBRANCH  33  39
ENDBRANCH   7  33
ENDBRANCH   4   7
ENDBRANCH   1   3
BRANCH   1  43
ATOM     43  C15 non d ame     -33.196  10.134  25.730  0.00  0.00     0.240 C 
ATOM     44  O5  non d ame     -34.233  10.609  25.397  0.00  0.00    -0.271 OA
ATOM     45  N6  non d ame     -32.207  10.963  26.477  0.00  0.00    -0.355 N 
ATOM     46  H46 non d ame     -31.325  10.570  26.770  0.00  0.00     0.162 HD
BRANCH  45  47
ATOM     47  C20 non d ame     -32.522  12.374  26.790  0.00  0.00     0.013 C 
ATOM     48  H30 non d ame     -33.166  12.757  26.000  0.00  0.00     0.072 H 
BRANCH  47  49
ATOM     49  C21 non d ame     -31.239  13.172  26.844  0.00  0.00    -0.038 C 
ATOM     50  H31 non d ame     -30.561  12.598  27.476  0.00  0.00     0.036 H 
ATOM     51  H32 non d ame     -30.975  13.375  25.806  0.00  0.00     0.036 H 
BRANCH  49  52
ATOM     52  C22 non d ame     -31.416  14.545  27.527  0.00  0.00     0.018 C 
ATOM     53  H33 non d ame     -32.090  14.374  28.366  0.00  0.00     0.048 H 
ATOM     54  H34 non d ame     -30.407  14.918  27.706  0.00  0.00     0.048 H 
BRANCH  52  55
ATOM     55  C23 non d ame     -32.112  15.606  26.629  0.00  0.00     0.259 C 
ATOM     56  O7  non d ame     -33.249  15.898  26.811  0.00  0.00    -0.265 OA
BRANCH  55  57
ATOM     57  O8  non d ame     -31.376  16.218  25.577  0.00  0.00    -0.317 OA
BRANCH  57  58
ATOM     58  C29 non d ame     -32.084  16.287  24.336  0.00  0.00     0.052 C 
ATOM     59  H47 non d ame     -33.005  15.725  24.490  0.00  0.00     0.082 H 
ATOM     60  H48 non d ame     -32.129  17.345  24.080  0.00  0.00     0.082 H 
BRANCH  58  61
ATOM     61  C35 non d ame     -31.237  15.557  23.260  0.00  0.00    -0.034 A 
ATOM     62  C30 non d ame     -30.991  16.168  22.034  0.00  0.00    -0.075 A 
ATOM     63  C31 non d ame     -30.231  15.512  21.067  0.00  0.00    -0.082 A 
ATOM     64  H49 non d ame     -31.395  17.160  21.831  0.00  0.00     0.084 H 
ATOM     65  C32 non d ame     -29.717  14.239  21.329  0.00  0.00    -0.083 A 
ATOM     66  H50 non d ame     -30.038  15.994  20.108  0.00  0.00     0.083 H 
ATOM     67  C33 non d ame     -29.967  13.633  22.552  0.00  0.00    -0.082 A 
ATOM     68  H51 non d ame     -29.120  13.720  20.579  0.00  0.00     0.083 H 
ATOM     69  C34 non d ame     -30.725  14.285  23.522  0.00  0.00    -0.075 A 
ATOM     70  H52 non d ame     -29.567  12.638  22.752  0.00  0.00     0.083 H 
ATOM     71  H53 non d ame     -30.917  13.802  24.481  0.00  0.00     0.084 H 
ENDBRANCH  58  61
ENDBRANCH  57  58
ENDBRANCH  55  57
ENDBRANCH  52  55
ENDBRANCH  49  52
ENDBRANCH  47  49
BRANCH  47  72
ATOM     72  C24 non d ame     -33.231  12.457  28.140  0.00  0.00    -0.039 C 
ATOM     73  H35 non d ame     -33.097  13.486  28.476  0.00  0.00     0.036 H 
ATOM     74  H36 non d ame     -34.234  12.067  27.966  0.00  0.00     0.036 H 
BRANCH  72  75
ATOM     75  C25 non d ame     -32.540  11.510  29.232  0.00  0.00    -0.001 C 
ATOM     76  C26 non d ame     -33.441  10.151  29.445  0.00  0.00    -0.035 C 
ATOM     77  C27 non d ame     -33.671   9.983  30.769  0.00  0.00     0.085 C 
ATOM     78  H38 non d ame     -34.437  10.294  29.029  0.00  0.00     0.036 H 
ATOM     79  H39 non d ame     -32.858   9.270  29.174  0.00  0.00     0.036 H 
ATOM     80  N5  non d ame     -33.291  11.275  31.451  0.00  0.00    -0.049 N 
ATOM     81  H40 non d ame     -34.747   9.835  30.861  0.00  0.00     0.075 H 
ATOM     82  H41 non d ame     -32.985   9.199  31.087  0.00  0.00     0.075 H 
ATOM     83  C28 non d ame     -32.431  12.111  30.370  0.00  0.00     0.193 C 
ATOM     84  H42 non d ame     -34.154  11.770  31.627  0.00  0.00     0.280 HD
ATOM     85  H43 non d ame     -32.686  11.025  32.220  0.00  0.00     0.280 HD
ATOM     86  H44 non d ame     -31.346  12.176  30.457  0.00  0.00     0.129 H 
ATOM     87  H37 non d ame     -31.474  11.375  29.046  0.00  0.00     0.046 H 
BRANCH  83  88
ATOM     88  O6  non d ame     -32.891  13.462  30.312  0.00  0.00    -0.369 OA
ATOM     89  H45 non d ame     -33.445  13.579  29.536  0.00  0.00     0.212 HD
ENDBRANCH  83  88
ENDBRANCH  72  75
ENDBRANCH  47  72
ENDBRANCH  45  47
ENDBRANCH   1  43
BRANCH   1  90
ATOM     90  C16 non d ame     -33.257   8.361  23.949  0.00  0.00    -0.035 C 
ATOM     91  H21 non d ame     -33.918   7.496  23.989  0.00  0.00     0.037 H 
ATOM     92  H22 non d ame     -33.622   9.308  23.552  0.00  0.00     0.037 H 
BRANCH  90  93
ATOM     93  C17 non d ame     -32.044   7.946  23.057  0.00  0.00    -0.059 C 
ATOM     94  H23 non d ame     -32.439   7.603  22.101  0.00  0.00     0.038 H 
BRANCH  93  95
ATOM     95  C18 non d ame     -31.084   9.146  22.772  0.00  0.00    -0.073 C 
ATOM     96  H24 non d ame     -31.126   9.849  23.603  0.00  0.00     0.028 H 
ATOM     97  H25 non d ame     -30.065   8.777  22.661  0.00  0.00     0.028 H 
ATOM     98  H26 non d ame     -31.392   9.647  21.855  0.00  0.00     0.028 H 
ENDBRANCH  93  95
BRANCH  93  99
ATOM     99  C19 non d ame     -31.281   6.774  23.681  0.00  0.00    -0.073 C 
ATOM    100  H27 non d ame     -31.442   6.770  24.759  0.00  0.00     0.028 H 
ATOM    101  H28 non d ame     -31.643   5.838  23.256  0.00  0.00     0.028 H 
ATOM    102  H29 non d ame     -30.217   6.881  23.471  0.00  0.00     0.028 H 
ENDBRANCH  93  99
ENDBRANCH  90  93
ENDBRANCH   1  90
TORSDOF 26
ENDMDL
MODEL 7
REMARK VINA RESULT:      -6.6      3.892      8.268
REMARK  26 active torsions:
REMARK  status: ('A' for Active; 'I' for Inactive)
REMARK    1  A    between atoms: C2_2  and  C3_3 
REMARK    2  A    between atoms: C4_6  and  C5_7 
REMARK       I    between atoms: C5_7  and  N2_9 
REMARK    3  A    between atoms: N2_9  and  C6_10 
REMARK    4  A    between atoms: C6_10  and  C7_11 
REMARK    5  A    between atoms: C6_10  and  C8_13 
REMARK       I    between atoms: C7_11  and  N3_14 
REMARK    6  A    between atoms: N3_14  and  C9_15 
REMARK    7  A    between atoms: C9_15  and  C10_16 
REMARK    8  A    between atoms: C9_15  and  C11_18 
REMARK       I    between atoms: C10_16  and  N4_21 
REMARK    9  A    between atoms: C11_18  and  C12_19 
REMARK   10  A    between atoms: C11_18  and  C13_20 
REMARK   11  A    between atoms: N4_21  and  C14_22 
REMARK   12  A    between atoms: C14_22  and  C15_23 
REMARK   13  A    between atoms: C14_22  and  C16_25 
REMARK       I    between atoms: C15_23  and  N6_40 
REMARK   14  A    between atoms: C16_25  and  C17_26 
REMARK   15  A    between atoms: C17_26  and  C18_27 
REMARK   16  A    between atoms: C17_26  and  C19_28 
REMARK   17  A    between atoms: C20_29  and  C21_30 
REMARK   18  A    between atoms: C20_29  and  C24_33 
REMARK   19  A    between atoms: C20_29  and  N6_40 
REMARK   20  A    between atoms: C21_30  and  C22_31 
REMARK   21  A    between atoms: C22_31  and  C23_32 
REMARK   22  A    between atoms: C23_32  and  O8_43 
REMARK   23  A    between atoms: C24_33  and  C25_34 
REMARK   24  A    between atoms: C28_38  and  O6_39 
REMARK   25  A    between atoms: C29_42  and  O8_43 
REMARK   26  A    between atoms: C29_42  and  C35_49 
ROOT
ATOM      1  C14 non d ame     -33.037  10.442  25.696  0.00  0.00     0.089 C 
ATOM      2  H20 non d ame     -33.685  10.547  24.826  0.00  0.00     0.087 H 
ENDROOT
BRANCH   1   3
ATOM      3  N4  non d ame     -32.431   9.120  25.634  0.00  0.00    -0.346 N 
ATOM      4  C10 non d ame     -33.115   8.003  24.886  0.00  0.00     0.241 C 
ATOM      5  O4  non d ame     -34.154   8.191  24.344  0.00  0.00    -0.271 OA
ATOM      6  H19 non d ame     -31.548   8.980  26.104  0.00  0.00     0.163 HD
BRANCH   4   7
ATOM      7  C9  non d ame     -32.470   6.643  24.827  0.00  0.00     0.092 C 
ATOM      8  H11 non d ame     -31.417   6.733  25.092  0.00  0.00     0.088 H 
BRANCH   7   9
ATOM      9  N3  non d ame     -33.093   5.763  25.821  0.00  0.00    -0.346 N 
ATOM     10  C7  non d ame     -32.688   5.837  27.203  0.00  0.00     0.240 C 
ATOM     11  O3  non d ame     -31.862   6.598  27.533  0.00  0.00    -0.271 OA
ATOM     12  H10 non d ame     -33.807   5.101  25.551  0.00  0.00     0.163 HD
BRANCH  10  13
ATOM     13  C6  non d ame     -33.353   4.896  28.255  0.00  0.00     0.086 C 
ATOM     14  H6  non d ame     -32.733   4.748  29.139  0.00  0.00     0.086 H 
BRANCH  13  15
ATOM     15  N2  non d ame     -34.592   5.502  28.714  0.00  0.00    -0.343 N 
ATOM     16  C5  non d ame     -34.902   5.515  30.145  0.00  0.00     0.273 C 
ATOM     17  O2  non d ame     -34.150   5.033  30.919  0.00  0.00    -0.266 OA
ATOM     18  H5  non d ame     -35.230   5.910  28.045  0.00  0.00     0.163 HD
BRANCH  16  19
ATOM     19  C4  non d ame     -36.207   6.154  30.644  0.00  0.00     0.154 A 
ATOM     20  C1  non d ame     -36.530   7.548  30.680  0.00  0.00    -0.017 A 
ATOM     21  C2  non d ame     -37.834   7.606  31.219  0.00  0.00     0.077 A 
ATOM     22  H1  non d ame     -35.912   8.388  30.363  0.00  0.00     0.091 H 
ATOM     23  O1  non d ame     -38.208   6.383  31.459  0.00  0.00    -0.218 OA
ATOM     24  N1  non d ame     -37.276   5.519  31.133  0.00  0.00    -0.123 NA
BRANCH  21  25
ATOM     25  C3  non d ame     -38.651   8.867  31.470  0.00  0.00    -0.029 C 
ATOM     26  H2  non d ame     -38.348   9.313  32.417  0.00  0.00     0.036 H 
ATOM     27  H3  non d ame     -38.479   9.577  30.662  0.00  0.00     0.036 H 
ATOM     28  H4  non d ame     -39.710   8.612  31.511  0.00  0.00     0.036 H 
ENDBRANCH  21  25
ENDBRANCH  16  19
ENDBRANCH  13  15
BRANCH  13  29
ATOM     29  C8  non d ame     -33.635   3.555  27.627  0.00  0.00    -0.049 C 
ATOM     30  H7  non d ame     -32.788   3.258  27.009  0.00  0.00     0.030 H 
ATOM     31  H8  non d ame     -33.791   2.813  28.410  0.00  0.00     0.030 H 
ATOM     32  H9  non d ame     -34.530   3.625  27.009  0.00  0.00     0.030 H 
ENDBRANCH  13  29
ENDBRANCH  10  13
ENDBRANCH   7   9
BRANCH   7  33
ATOM     33  C11 non d ame     -32.667   6.037  23.406  0.00  0.00    -0.033 C 
ATOM     34  H12 non d ame     -33.483   6.578  22.928  0.00  0.00     0.042 H 
BRANCH  33  35
ATOM     35  C12 non d ame     -31.395   6.233  22.524  0.00  0.00    -0.071 C 
ATOM     36  H13 non d ame     -30.624   6.740  23.105  0.00  0.00     0.028 H 
ATOM     37  H14 non d ame     -31.025   5.261  22.200  0.00  0.00     0.028 H 
ATOM     38  H15 non d ame     -31.647   6.836  21.652  0.00  0.00     0.028 H 
ENDBRANCH  33  35
BRANCH  33  39
ATOM     39  C13 non d ame     -33.071   4.530  23.492  0.00  0.00    -0.071 C 
ATOM     40  H16 non d ame     -33.779   4.390  24.308  0.00  0.00     0.028 H 
ATOM     41  H17 non d ame     -33.532   4.224  22.553  0.00  0.00     0.028 H 
ATOM     42  H18 non d ame     -32.182   3.926  23.673  0.00  0.00     0.028 H 
ENDBRANCH  33  39
ENDBRANCH   7  33
ENDBRANCH   4   7
ENDBRANCH   1   3
BRANCH   1  43
ATOM     43  C15 non d ame     -31.903  11.506  25.716  0.00  0.00     0.240 C 
ATOM     44  O5  non d ame     -30.767  11.159  25.748  0.00  0.00    -0.271 OA
ATOM     45  N6  non d ame     -32.233  12.959  25.685  0.00  0.00    -0.355 N 
ATOM     46  H46 non d ame     -33.194  13.267  25.653  0.00  0.00     0.162 HD
BRANCH  45  47
ATOM     47  C20 non d ame     -31.143  13.959  25.703  0.00  0.00     0.013 C 
ATOM     48  H30 non d ame     -30.201  13.431  25.559  0.00  0.00     0.072 H 
BRANCH  47  49
ATOM     49  C21 non d ame     -31.138  14.669  27.038  0.00  0.00    -0.038 C 
ATOM     50  H31 non d ame     -30.578  14.022  27.713  0.00  0.00     0.036 H 
ATOM     51  H32 non d ame     -30.785  15.680  26.832  0.00  0.00     0.036 H 
BRANCH  49  52
ATOM     52  C22 non d ame     -32.550  14.815  27.644  0.00  0.00     0.018 C 
ATOM     53  H33 non d ame     -33.207  15.054  26.808  0.00  0.00     0.048 H 
ATOM     54  H34 non d ame     -32.717  13.909  28.227  0.00  0.00     0.048 H 
BRANCH  52  55
ATOM     55  C23 non d ame     -32.683  15.998  28.644  0.00  0.00     0.259 C 
ATOM     56  O7  non d ame     -32.009  16.041  29.621  0.00  0.00    -0.265 OA
BRANCH  55  57
ATOM     57  O8  non d ame     -33.632  17.026  28.385  0.00  0.00    -0.317 OA
BRANCH  57  58
ATOM     58  C29 non d ame     -34.915  16.544  27.974  0.00  0.00     0.052 C 
ATOM     59  H47 non d ame     -34.733  15.569  27.523  0.00  0.00     0.082 H 
ATOM     60  H48 non d ame     -35.556  16.628  28.852  0.00  0.00     0.082 H 
BRANCH  58  61
ATOM     61  C35 non d ame     -35.457  17.499  26.878  0.00  0.00    -0.034 A 
ATOM     62  C30 non d ame     -36.482  17.082  26.035  0.00  0.00    -0.075 A 
ATOM     63  C31 non d ame     -36.969  17.940  25.050  0.00  0.00    -0.082 A 
ATOM     64  H49 non d ame     -36.904  16.083  26.146  0.00  0.00     0.084 H 
ATOM     65  C32 non d ame     -36.425  19.219  24.907  0.00  0.00    -0.083 A 
ATOM     66  H50 non d ame     -37.774  17.611  24.392  0.00  0.00     0.083 H 
ATOM     67  C33 non d ame     -35.400  19.630  25.749  0.00  0.00    -0.082 A 
ATOM     68  H51 non d ame     -36.800  19.897  24.140  0.00  0.00     0.083 H 
ATOM     69  C34 non d ame     -34.911  18.777  26.736  0.00  0.00    -0.075 A 
ATOM     70  H52 non d ame     -34.975  20.628  25.633  0.00  0.00     0.083 H 
ATOM     71  H53 non d ame     -34.107  19.107  27.393  0.00  0.00     0.084 H 
ENDBRANCH  58  61
ENDBRANCH  57  58
ENDBRANCH  55  57
ENDBRANCH  52  55
ENDBRANCH  49  52
ENDBRANCH  47  49
BRANCH  47  72
ATOM     72  C24 non d ame     -31.358  14.977  24.585  0.00  0.00    -0.039 C 
ATOM     73  H35 non d ame     -32.378  15.339  24.713  0.00  0.00     0.036 H 
ATOM     74  H36 non d ame     -30.520  15.671  24.659  0.00  0.00     0.036 H 
BRANCH  72  75
ATOM     75  C25 non d ame     -31.277  14.294  23.138  0.00  0.00    -0.001 C 
ATOM     76  C26 non d ame     -29.920  13.372  23.028  0.00  0.00    -0.035 C 
ATOM     77  C27 non d ame     -29.248  13.717  21.904  0.00  0.00     0.085 C 
ATOM     78  H38 non d ame     -29.227  13.631  23.828  0.00  0.00     0.036 H 
ATOM     79  H39 non d ame     -30.188  12.330  22.855  0.00  0.00     0.036 H 
ATOM     80  N5  non d ame     -29.849  15.010  21.409  0.00  0.00    -0.049 N 
ATOM     81  H40 non d ame     -28.222  13.900  22.222  0.00  0.00     0.075 H 
ATOM     82  H41 non d ame     -29.462  12.928  21.184  0.00  0.00     0.075 H 
ATOM     83  C28 non d ame     -31.245  15.183  22.202  0.00  0.00     0.193 C 
ATOM     84  H42 non d ame     -29.222  15.747  21.699  0.00  0.00     0.280 HD
ATOM     85  H43 non d ame     -30.051  14.874  20.429  0.00  0.00     0.280 HD
ATOM     86  H44 non d ame     -32.194  14.981  21.704  0.00  0.00     0.129 H 
ATOM     87  H37 non d ame     -32.219  13.826  22.849  0.00  0.00     0.046 H 
BRANCH  83  88
ATOM     88  O6  non d ame     -31.359  16.511  22.716  0.00  0.00    -0.369 OA
ATOM     89  H45 non d ame     -32.102  16.953  22.299  0.00  0.00     0.212 HD
ENDBRANCH  83  88
ENDBRANCH  72  75
ENDBRANCH  47  72
ENDBRANCH  45  47
ENDBRANCH   1  43
BRANCH   1  90
ATOM     90  C16 non d ame     -33.862  10.550  26.969  0.00  0.00    -0.035 C 
ATOM     91  H21 non d ame     -34.121  11.605  27.055  0.00  0.00     0.037 H 
ATOM     92  H22 non d ame     -34.648   9.802  26.867  0.00  0.00     0.037 H 
BRANCH  90  93
ATOM     93  C17 non d ame     -33.068  10.184  28.263  0.00  0.00    -0.059 C 
ATOM     94  H23 non d ame     -32.095   9.799  27.956  0.00  0.00     0.038 H 
BRANCH  93  95
ATOM     95  C18 non d ame     -32.822  11.428  29.175  0.00  0.00    -0.073 C 
ATOM     96  H24 non d ame     -33.300  11.270  30.141  0.00  0.00     0.028 H 
ATOM     97  H25 non d ame     -31.751  11.567  29.319  0.00  0.00     0.028 H 
ATOM     98  H26 non d ame     -33.243  12.314  28.702  0.00  0.00     0.028 H 
ENDBRANCH  93  95
BRANCH  93  99
ATOM     99  C19 non d ame     -33.774   9.069  29.040  0.00  0.00    -0.073 C 
ATOM    100  H27 non d ame     -34.563   8.640  28.423  0.00  0.00     0.028 H 
ATOM    101  H28 non d ame     -33.053   8.293  29.299  0.00  0.00     0.028 H 
ATOM    102  H29 non d ame     -34.207   9.480  29.951  0.00  0.00     0.028 H 
ENDBRANCH  93  99
ENDBRANCH  90  93
ENDBRANCH   1  90
TORSDOF 26
ENDMDL
MODEL 8
REMARK VINA RESULT:      -6.6      3.238      6.735
REMARK  26 active torsions:
REMARK  status: ('A' for Active; 'I' for Inactive)
REMARK    1  A    between atoms: C2_2  and  C3_3 
REMARK    2  A    between atoms: C4_6  and  C5_7 
REMARK       I    between atoms: C5_7  and  N2_9 
REMARK    3  A    between atoms: N2_9  and  C6_10 
REMARK    4  A    between atoms: C6_10  and  C7_11 
REMARK    5  A    between atoms: C6_10  and  C8_13 
REMARK       I    between atoms: C7_11  and  N3_14 
REMARK    6  A    between atoms: N3_14  and  C9_15 
REMARK    7  A    between atoms: C9_15  and  C10_16 
REMARK    8  A    between atoms: C9_15  and  C11_18 
REMARK       I    between atoms: C10_16  and  N4_21 
REMARK    9  A    between atoms: C11_18  and  C12_19 
REMARK   10  A    between atoms: C11_18  and  C13_20 
REMARK   11  A    between atoms: N4_21  and  C14_22 
REMARK   12  A    between atoms: C14_22  and  C15_23 
REMARK   13  A    between atoms: C14_22  and  C16_25 
REMARK       I    between atoms: C15_23  and  N6_40 
REMARK   14  A    between atoms: C16_25  and  C17_26 
REMARK   15  A    between atoms: C17_26  and  C18_27 
REMARK   16  A    between atoms: C17_26  and  C19_28 
REMARK   17  A    between atoms: C20_29  and  C21_30 
REMARK   18  A    between atoms: C20_29  and  C24_33 
REMARK   19  A    between atoms: C20_29  and  N6_40 
REMARK   20  A    between atoms: C21_30  and  C22_31 
REMARK   21  A    between atoms: C22_31  and  C23_32 
REMARK   22  A    between atoms: C23_32  and  O8_43 
REMARK   23  A    between atoms: C24_33  and  C25_34 
REMARK   24  A    between atoms: C28_38  and  O6_39 
REMARK   25  A    between atoms: C29_42  and  O8_43 
REMARK   26  A    between atoms: C29_42  and  C35_49 
ROOT
ATOM      1  C14 non d ame     -32.541  11.837  27.867  0.00  0.00     0.089 C 
ATOM      2  H20 non d ame     -33.129  11.584  28.750  0.00  0.00     0.087 H 
ENDROOT
BRANCH   1   3
ATOM      3  N4  non d ame     -32.437  10.637  27.051  0.00  0.00    -0.346 N 
ATOM      4  C10 non d ame     -32.768   9.287  27.636  0.00  0.00     0.241 C 
ATOM      5  O4  non d ame     -33.112   9.191  28.767  0.00  0.00    -0.271 OA
ATOM      6  H19 non d ame     -32.140  10.739  26.091  0.00  0.00     0.163 HD
BRANCH   4   7
ATOM      7  C9  non d ame     -32.660   8.055  26.775  0.00  0.00     0.092 C 
ATOM      8  H11 non d ame     -31.655   7.642  26.864  0.00  0.00     0.088 H 
BRANCH   7   9
ATOM      9  N3  non d ame     -33.594   7.035  27.261  0.00  0.00    -0.346 N 
ATOM     10  C7  non d ame     -33.100   5.745  27.674  0.00  0.00     0.240 C 
ATOM     11  O3  non d ame     -31.954   5.510  27.621  0.00  0.00    -0.271 OA
ATOM     12  H10 non d ame     -34.585   7.223  27.311  0.00  0.00     0.163 HD
BRANCH  10  13
ATOM     13  C6  non d ame     -34.099   4.662  28.188  0.00  0.00     0.086 C 
ATOM     14  H6  non d ame     -33.694   4.071  29.010  0.00  0.00     0.086 H 
BRANCH  13  15
ATOM     15  N2  non d ame     -35.289   5.323  28.698  0.00  0.00    -0.343 N 
ATOM     16  C5  non d ame     -35.374   5.658  30.121  0.00  0.00     0.273 C 
ATOM     17  O2  non d ame     -34.482   5.390  30.848  0.00  0.00    -0.266 OA
ATOM     18  H5  non d ame     -36.048   5.546  28.070  0.00  0.00     0.163 HD
BRANCH  16  19
ATOM     19  C4  non d ame     -36.626   6.358  30.673  0.00  0.00     0.154 A 
ATOM     20  C1  non d ame     -36.898   7.763  30.682  0.00  0.00    -0.017 A 
ATOM     21  C2  non d ame     -38.166   7.884  31.293  0.00  0.00     0.077 A 
ATOM     22  H1  non d ame     -36.271   8.571  30.305  0.00  0.00     0.091 H 
ATOM     23  O1  non d ame     -38.567   6.684  31.593  0.00  0.00    -0.218 OA
ATOM     24  N1  non d ame     -37.686   5.776  31.242  0.00  0.00    -0.123 NA
BRANCH  21  25
ATOM     25  C3  non d ame     -38.923   9.180  31.550  0.00  0.00    -0.029 C 
ATOM     26  H2  non d ame     -39.985   8.965  31.660  0.00  0.00     0.036 H 
ATOM     27  H3  non d ame     -38.550   9.643  32.464  0.00  0.00     0.036 H 
ATOM     28  H4  non d ame     -38.774   9.861  30.712  0.00  0.00     0.036 H 
ENDBRANCH  21  25
ENDBRANCH  16  19
ENDBRANCH  13  15
BRANCH  13  29
ATOM     29  C8  non d ame     -34.466   3.736  27.057  0.00  0.00    -0.049 C 
ATOM     30  H7  non d ame     -35.226   3.032  27.396  0.00  0.00     0.030 H 
ATOM     31  H8  non d ame     -34.858   4.319  26.223  0.00  0.00     0.030 H 
ATOM     32  H9  non d ame     -33.581   3.188  26.733  0.00  0.00     0.030 H 
ENDBRANCH  13  29
ENDBRANCH  10  13
ENDBRANCH   7   9
BRANCH   7  33
ATOM     33  C11 non d ame     -33.014   8.419  25.303  0.00  0.00    -0.033 C 
ATOM     34  H12 non d ame     -32.704   9.451  25.136  0.00  0.00     0.042 H 
BRANCH  33  35
ATOM     35  C12 non d ame     -32.232   7.524  24.292  0.00  0.00    -0.071 C 
ATOM     36  H13 non d ame     -32.655   6.520  24.292  0.00  0.00     0.028 H 
ATOM     37  H14 non d ame     -32.309   7.952  23.293  0.00  0.00     0.028 H 
ATOM     38  H15 non d ame     -31.183   7.476  24.586  0.00  0.00     0.028 H 
ENDBRANCH  33  35
BRANCH  33  39
ATOM     39  C13 non d ame     -34.555   8.333  25.061  0.00  0.00    -0.071 C 
ATOM     40  H16 non d ame     -34.825   7.310  24.801  0.00  0.00     0.028 H 
ATOM     41  H17 non d ame     -35.083   8.629  25.968  0.00  0.00     0.028 H 
ATOM     42  H18 non d ame     -34.833   9.001  24.246  0.00  0.00     0.028 H 
ENDBRANCH  33  39
ENDBRANCH   7  33
ENDBRANCH   4   7
ENDBRANCH   1   3
BRANCH   1  43
ATOM     43  C15 non d ame     -33.208  12.957  27.018  0.00  0.00     0.240 C 
ATOM     44  O5  non d ame     -33.021  13.000  25.846  0.00  0.00    -0.271 OA
ATOM     45  N6  non d ame     -34.087  13.971  27.667  0.00  0.00    -0.355 N 
ATOM     46  H46 non d ame     -34.258  13.941  28.662  0.00  0.00     0.162 HD
BRANCH  45  47
ATOM     47  C20 non d ame     -34.715  15.029  26.846  0.00  0.00     0.013 C 
ATOM     48  H30 non d ame     -34.269  14.991  25.852  0.00  0.00     0.072 H 
BRANCH  47  49
ATOM     49  C21 non d ame     -34.451  16.376  27.480  0.00  0.00    -0.038 C 
ATOM     50  H31 non d ame     -34.786  17.115  26.752  0.00  0.00     0.036 H 
ATOM     51  H32 non d ame     -34.915  16.333  28.466  0.00  0.00     0.036 H 
BRANCH  49  52
ATOM     52  C22 non d ame     -32.949  16.644  27.715  0.00  0.00     0.018 C 
ATOM     53  H33 non d ame     -32.902  17.378  28.519  0.00  0.00     0.048 H 
ATOM     54  H34 non d ame     -32.491  15.663  27.844  0.00  0.00     0.048 H 
BRANCH  52  55
ATOM     55  C23 non d ame     -32.232  17.294  26.499  0.00  0.00     0.259 C 
ATOM     56  O7  non d ame     -32.231  18.474  26.360  0.00  0.00    -0.265 OA
BRANCH  55  57
ATOM     57  O8  non d ame     -31.584  16.461  25.545  0.00  0.00    -0.317 OA
BRANCH  57  58
ATOM     58  C29 non d ame     -32.255  16.389  24.284  0.00  0.00     0.052 C 
ATOM     59  H47 non d ame     -33.152  15.795  24.461  0.00  0.00     0.082 H 
ATOM     60  H48 non d ame     -32.343  17.418  23.937  0.00  0.00     0.082 H 
BRANCH  58  61
ATOM     61  C35 non d ame     -31.340  15.615  23.298  0.00  0.00    -0.034 A 
ATOM     62  C30 non d ame     -30.710  14.444  23.706  0.00  0.00    -0.075 A 
ATOM     63  C31 non d ame     -29.887  13.749  22.820  0.00  0.00    -0.082 A 
ATOM     64  H49 non d ame     -30.860  14.070  24.719  0.00  0.00     0.084 H 
ATOM     65  C32 non d ame     -29.694  14.231  21.523  0.00  0.00    -0.083 A 
ATOM     66  H50 non d ame     -29.396  12.830  23.142  0.00  0.00     0.083 H 
ATOM     67  C33 non d ame     -30.322  15.402  21.122  0.00  0.00    -0.082 A 
ATOM     68  H51 non d ame     -29.053  13.694  20.824  0.00  0.00     0.083 H 
ATOM     69  C34 non d ame     -31.147  16.099  22.003  0.00  0.00    -0.075 A 
ATOM     70  H52 non d ame     -30.168  15.777  20.109  0.00  0.00     0.083 H 
ATOM     71  H53 non d ame     -31.638  17.017  21.680  0.00  0.00     0.084 H 
ENDBRANCH  58  61
ENDBRANCH  57  58
ENDBRANCH  55  57
ENDBRANCH  52  55
ENDBRANCH  49  52
ENDBRANCH  47  49
BRANCH  47  72
ATOM     72  C24 non d ame     -36.222  14.791  26.761  0.00  0.00    -0.039 C 
ATOM     73  H35 non d ame     -36.489  14.293  27.694  0.00  0.00     0.036 H 
ATOM     74  H36 non d ame     -36.655  15.761  26.519  0.00  0.00     0.036 H 
BRANCH  72  75
ATOM     75  C25 non d ame     -36.598  13.793  25.567  0.00  0.00    -0.001 C 
ATOM     76  C26 non d ame     -37.813  14.434  24.663  0.00  0.00    -0.035 C 
ATOM     77  C27 non d ame     -38.795  13.510  24.535  0.00  0.00     0.085 C 
ATOM     78  H38 non d ame     -38.296  15.245  25.207  0.00  0.00     0.036 H 
ATOM     79  H39 non d ame     -37.475  14.590  23.638  0.00  0.00     0.036 H 
ATOM     80  N5  non d ame     -38.509  12.419  25.538  0.00  0.00    -0.049 N 
ATOM     81  H40 non d ame     -39.715  14.022  24.819  0.00  0.00     0.075 H 
ATOM     82  H41 non d ame     -38.685  13.106  23.529  0.00  0.00     0.075 H 
ATOM     83  C28 non d ame     -36.985  12.647  26.019  0.00  0.00     0.193 C 
ATOM     84  H42 non d ame     -39.122  12.583  26.323  0.00  0.00     0.280 HD
ATOM     85  H43 non d ame     -38.559  11.546  25.032  0.00  0.00     0.280 HD
ATOM     86  H44 non d ame     -36.185  12.007  25.647  0.00  0.00     0.129 H 
ATOM     87  H37 non d ame     -35.717  13.438  25.032  0.00  0.00     0.046 H 
BRANCH  83  88
ATOM     88  O6  non d ame     -36.902  12.574  27.444  0.00  0.00    -0.369 OA
ATOM     89  H45 non d ame     -35.980  12.568  27.711  0.00  0.00     0.212 HD
ENDBRANCH  83  88
ENDBRANCH  72  75
ENDBRANCH  47  72
ENDBRANCH  45  47
ENDBRANCH   1  43
BRANCH   1  90
ATOM     90  C16 non d ame     -31.147  12.274  28.286  0.00  0.00    -0.035 C 
ATOM     91  H21 non d ame     -30.531  11.377  28.223  0.00  0.00     0.037 H 
ATOM     92  H22 non d ame     -30.916  13.138  27.662  0.00  0.00     0.037 H 
BRANCH  90  93
ATOM     93  C17 non d ame     -31.061  12.763  29.767  0.00  0.00    -0.059 C 
ATOM     94  H23 non d ame     -30.123  12.398  30.182  0.00  0.00     0.038 H 
BRANCH  93  95
ATOM     95  C18 non d ame     -31.055  14.322  29.873  0.00  0.00    -0.073 C 
ATOM     96  H24 non d ame     -30.524  14.743  29.019  0.00  0.00     0.028 H 
ATOM     97  H25 non d ame     -32.080  14.691  29.879  0.00  0.00     0.028 H 
ATOM     98  H26 non d ame     -30.556  14.621  30.795  0.00  0.00     0.028 H 
ENDBRANCH  93  95
BRANCH  93  99
ATOM     99  C19 non d ame     -32.193  12.165  30.606  0.00  0.00    -0.073 C 
ATOM    100  H27 non d ame     -31.961  11.127  30.843  0.00  0.00     0.028 H 
ATOM    101  H28 non d ame     -32.300  12.733  31.530  0.00  0.00     0.028 H 
ATOM    102  H29 non d ame     -33.126  12.210  30.043  0.00  0.00     0.028 H 
ENDBRANCH  93  99
ENDBRANCH  90  93
ENDBRANCH   1  90
TORSDOF 26
ENDMDL
MODEL 9
REMARK VINA RESULT:      -6.5      3.630      7.688
REMARK  26 active torsions:
REMARK  status: ('A' for Active; 'I' for Inactive)
REMARK    1  A    between atoms: C2_2  and  C3_3 
REMARK    2  A    between atoms: C4_6  and  C5_7 
REMARK       I    between atoms: C5_7  and  N2_9 
REMARK    3  A    between atoms: N2_9  and  C6_10 
REMARK    4  A    between atoms: C6_10  and  C7_11 
REMARK    5  A    between atoms: C6_10  and  C8_13 
REMARK       I    between atoms: C7_11  and  N3_14 
REMARK    6  A    between atoms: N3_14  and  C9_15 
REMARK    7  A    between atoms: C9_15  and  C10_16 
REMARK    8  A    between atoms: C9_15  and  C11_18 
REMARK       I    between atoms: C10_16  and  N4_21 
REMARK    9  A    between atoms: C11_18  and  C12_19 
REMARK   10  A    between atoms: C11_18  and  C13_20 
REMARK   11  A    between atoms: N4_21  and  C14_22 
REMARK   12  A    between atoms: C14_22  and  C15_23 
REMARK   13  A    between atoms: C14_22  and  C16_25 
REMARK       I    between atoms: C15_23  and  N6_40 
REMARK   14  A    between atoms: C16_25  and  C17_26 
REMARK   15  A    between atoms: C17_26  and  C18_27 
REMARK   16  A    between atoms: C17_26  and  C19_28 
REMARK   17  A    between atoms: C20_29  and  C21_30 
REMARK   18  A    between atoms: C20_29  and  C24_33 
REMARK   19  A    between atoms: C20_29  and  N6_40 
REMARK   20  A    between atoms: C21_30  and  C22_31 
REMARK   21  A    between atoms: C22_31  and  C23_32 
REMARK   22  A    between atoms: C23_32  and  O8_43 
REMARK   23  A    between atoms: C24_33  and  C25_34 
REMARK   24  A    between atoms: C28_38  and  O6_39 
REMARK   25  A    between atoms: C29_42  and  O8_43 
REMARK   26  A    between atoms: C29_42  and  C35_49 
ROOT
ATOM      1  C14 non d ame     -34.804   8.440  31.286  0.00  0.00     0.089 C 
ATOM      2  H20 non d ame     -34.336   8.458  32.271  0.00  0.00     0.087 H 
ENDROOT
BRANCH   1   3
ATOM      3  N4  non d ame     -33.954   9.200  30.382  0.00  0.00    -0.346 N 
ATOM      4  C10 non d ame     -33.434  10.557  30.785  0.00  0.00     0.241 C 
ATOM      5  O4  non d ame     -33.717  11.018  31.841  0.00  0.00    -0.271 OA
ATOM      6  H19 non d ame     -33.727   8.790  29.487  0.00  0.00     0.163 HD
BRANCH   4   7
ATOM      7  C9  non d ame     -32.551  11.327  29.839  0.00  0.00     0.092 C 
ATOM      8  H11 non d ame     -31.903  10.630  29.306  0.00  0.00     0.088 H 
BRANCH   7   9
ATOM      9  N3  non d ame     -33.379  12.002  28.835  0.00  0.00    -0.346 N 
ATOM     10  C7  non d ame     -33.627  11.370  27.563  0.00  0.00     0.240 C 
ATOM     11  O3  non d ame     -33.167  10.319  27.329  0.00  0.00    -0.271 OA
ATOM     12  H10 non d ame     -33.782  12.909  29.022  0.00  0.00     0.163 HD
BRANCH  10  13
ATOM     13  C6  non d ame     -34.507  12.094  26.497  0.00  0.00     0.086 C 
ATOM     14  H6  non d ame     -35.175  12.836  26.936  0.00  0.00     0.086 H 
BRANCH  13  15
ATOM     15  N2  non d ame     -33.640  12.809  25.576  0.00  0.00    -0.343 N 
ATOM     16  C5  non d ame     -33.194  14.164  25.908  0.00  0.00     0.273 C 
ATOM     17  O2  non d ame     -33.542  14.671  26.918  0.00  0.00    -0.266 OA
ATOM     18  H5  non d ame     -33.350  12.368  24.714  0.00  0.00     0.163 HD
BRANCH  16  19
ATOM     19  C4  non d ame     -32.275  14.930  24.944  0.00  0.00     0.154 A 
ATOM     20  C1  non d ame     -31.146  14.414  24.232  0.00  0.00    -0.017 A 
ATOM     21  C2  non d ame     -30.652  15.511  23.491  0.00  0.00     0.077 A 
ATOM     22  H1  non d ame     -30.747  13.400  24.250  0.00  0.00     0.091 H 
ATOM     23  O1  non d ame     -31.416  16.531  23.753  0.00  0.00    -0.218 OA
ATOM     24  N1  non d ame     -32.370  16.217  24.598  0.00  0.00    -0.123 NA
BRANCH  21  25
ATOM     25  C3  non d ame     -29.449  15.499  22.557  0.00  0.00    -0.029 C 
ATOM     26  H2  non d ame     -29.775  15.719  21.541  0.00  0.00     0.036 H 
ATOM     27  H3  non d ame     -28.732  16.254  22.880  0.00  0.00     0.036 H 
ATOM     28  H4  non d ame     -28.978  14.517  22.584  0.00  0.00     0.036 H 
ENDBRANCH  21  25
ENDBRANCH  16  19
ENDBRANCH  13  15
BRANCH  13  29
ATOM     29  C8  non d ame     -35.332  11.079  25.748  0.00  0.00    -0.049 C 
ATOM     30  H7  non d ame     -35.119  10.082  26.133  0.00  0.00     0.030 H 
ATOM     31  H8  non d ame     -36.391  11.301  25.882  0.00  0.00     0.030 H 
ATOM     32  H9  non d ame     -35.083  11.120  24.688  0.00  0.00     0.030 H 
ENDBRANCH  13  29
ENDBRANCH  10  13
ENDBRANCH   7   9
BRANCH   7  33
ATOM     33  C11 non d ame     -31.739  12.389  30.636  0.00  0.00    -0.033 C 
ATOM     34  H12 non d ame     -32.274  12.582  31.566  0.00  0.00     0.042 H 
BRANCH  33  35
ATOM     35  C12 non d ame     -30.322  11.855  31.014  0.00  0.00    -0.071 C 
ATOM     36  H13 non d ame     -30.374  10.781  31.195  0.00  0.00     0.028 H 
ATOM     37  H14 non d ame     -29.629  12.053  30.196  0.00  0.00     0.028 H 
ATOM     38  H15 non d ame     -29.972  12.358  31.916  0.00  0.00     0.028 H 
ENDBRANCH  33  35
BRANCH  33  39
ATOM     39  C13 non d ame     -31.645  13.732  29.844  0.00  0.00    -0.071 C 
ATOM     40  H16 non d ame     -32.344  13.710  29.008  0.00  0.00     0.028 H 
ATOM     41  H17 non d ame     -31.895  14.563  30.505  0.00  0.00     0.028 H 
ATOM     42  H18 non d ame     -30.631  13.862  29.467  0.00  0.00     0.028 H 
ENDBRANCH  33  39
ENDBRANCH   7  33
ENDBRANCH   4   7
ENDBRANCH   1   3
BRANCH   1  43
ATOM     43  C15 non d ame     -34.950   6.994  30.732  0.00  0.00     0.240 C 
ATOM     44  O5  non d ame     -35.434   6.147  31.410  0.00  0.00    -0.271 OA
ATOM     45  N6  non d ame     -34.494   6.668  29.350  0.00  0.00    -0.355 N 
ATOM     46  H46 non d ame     -34.086   7.380  28.763  0.00  0.00     0.162 HD
BRANCH  45  47
ATOM     47  C20 non d ame     -34.641   5.288  28.837  0.00  0.00     0.013 C 
ATOM     48  H30 non d ame     -34.905   4.645  29.676  0.00  0.00     0.072 H 
BRANCH  47  49
ATOM     49  C21 non d ame     -33.330   4.838  28.234  0.00  0.00    -0.038 C 
ATOM     50  H31 non d ame     -32.638   4.741  29.070  0.00  0.00     0.036 H 
ATOM     51  H32 non d ame     -33.571   3.968  27.622  0.00  0.00     0.036 H 
BRANCH  49  52
ATOM     52  C22 non d ame     -32.718   5.886  27.279  0.00  0.00     0.018 C 
ATOM     53  H33 non d ame     -33.402   6.734  27.294  0.00  0.00     0.048 H 
ATOM     54  H34 non d ame     -31.685   6.013  27.603  0.00  0.00     0.048 H 
BRANCH  52  55
ATOM     55  C23 non d ame     -32.648   5.419  25.799  0.00  0.00     0.259 C 
ATOM     56  O7  non d ame     -33.017   4.333  25.490  0.00  0.00    -0.265 OA
BRANCH  55  57
ATOM     57  O8  non d ame     -32.123   6.302  24.814  0.00  0.00    -0.317 OA
BRANCH  57  58
ATOM     58  C29 non d ame     -32.720   7.602  24.820  0.00  0.00     0.052 C 
ATOM     59  H47 non d ame     -33.654   7.500  24.267  0.00  0.00     0.082 H 
ATOM     60  H48 non d ame     -32.737   7.914  25.864  0.00  0.00     0.082 H 
BRANCH  58  61
ATOM     61  C35 non d ame     -31.786   8.562  24.036  0.00  0.00    -0.034 A 
ATOM     62  C30 non d ame     -31.876   9.936  24.233  0.00  0.00    -0.075 A 
ATOM     63  C31 non d ame     -31.037  10.799  23.529  0.00  0.00    -0.082 A 
ATOM     64  H49 non d ame     -32.603  10.338  24.939  0.00  0.00     0.084 H 
ATOM     65  C32 non d ame     -30.108  10.282  22.622  0.00  0.00    -0.083 A 
ATOM     66  H50 non d ame     -31.109  11.875  23.687  0.00  0.00     0.083 H 
ATOM     67  C33 non d ame     -30.024   8.910  22.427  0.00  0.00    -0.082 A 
ATOM     68  H51 non d ame     -29.448  10.949  22.068  0.00  0.00     0.083 H 
ATOM     69  C34 non d ame     -30.859   8.044  23.130  0.00  0.00    -0.075 A 
ATOM     70  H52 non d ame     -29.300   8.510  21.717  0.00  0.00     0.083 H 
ATOM     71  H53 non d ame     -30.787   6.968  22.971  0.00  0.00     0.084 H 
ENDBRANCH  58  61
ENDBRANCH  57  58
ENDBRANCH  55  57
ENDBRANCH  52  55
ENDBRANCH  49  52
ENDBRANCH  47  49
BRANCH  47  72
ATOM     72  C24 non d ame     -35.734   5.247  27.772  0.00  0.00    -0.039 C 
ATOM     73  H35 non d ame     -35.358   5.853  26.947  0.00  0.00     0.036 H 
ATOM     74  H36 non d ame     -35.948   4.190  27.617  0.00  0.00     0.036 H 
BRANCH  72  75
ATOM     75  C25 non d ame     -37.087   5.934  28.284  0.00  0.00    -0.001 C 
ATOM     76  C26 non d ame     -37.972   4.851  29.150  0.00  0.00    -0.035 C 
ATOM     77  C27 non d ame     -39.235   4.830  28.662  0.00  0.00     0.085 C 
ATOM     78  H38 non d ame     -37.610   3.840  28.965  0.00  0.00     0.036 H 
ATOM     79  H39 non d ame     -38.100   5.206  30.173  0.00  0.00     0.036 H 
ATOM     80  N5  non d ame     -39.209   5.554  27.338  0.00  0.00    -0.049 N 
ATOM     81  H40 non d ame     -39.462   3.778  28.488  0.00  0.00     0.075 H 
ATOM     82  H41 non d ame     -39.830   5.406  29.370  0.00  0.00     0.075 H 
ATOM     83  C28 non d ame     -37.805   6.349  27.294  0.00  0.00     0.193 C 
ATOM     84  H42 non d ame     -39.198   4.841  26.622  0.00  0.00     0.280 HD
ATOM     85  H43 non d ame     -39.960   6.229  27.367  0.00  0.00     0.280 HD
ATOM     86  H44 non d ame     -37.773   7.426  27.464  0.00  0.00     0.129 H 
ATOM     87  H37 non d ame     -36.909   6.907  28.741  0.00  0.00     0.046 H 
BRANCH  83  88
ATOM     88  O6  non d ame     -37.160   6.142  26.036  0.00  0.00    -0.369 OA
ATOM     89  H45 non d ame     -37.113   5.200  25.852  0.00  0.00     0.212 HD
ENDBRANCH  83  88
ENDBRANCH  72  75
ENDBRANCH  47  72
ENDBRANCH  45  47
ENDBRANCH   1  43
BRANCH   1  90
ATOM     90  C16 non d ame     -36.171   9.102  31.355  0.00  0.00    -0.035 C 
ATOM     91  H21 non d ame     -36.712   8.568  32.136  0.00  0.00     0.037 H 
ATOM     92  H22 non d ame     -35.971  10.168  31.461  0.00  0.00     0.037 H 
BRANCH  90  93
ATOM     93  C17 non d ame     -37.012   8.939  30.048  0.00  0.00    -0.059 C 
ATOM     94  H23 non d ame     -36.528   8.179  29.436  0.00  0.00     0.038 H 
BRANCH  93  95
ATOM     95  C18 non d ame     -38.470   8.458  30.341  0.00  0.00    -0.073 C 
ATOM     96  H24 non d ame     -38.441   7.474  30.808  0.00  0.00     0.028 H 
ATOM     97  H25 non d ame     -38.957   9.164  31.014  0.00  0.00     0.028 H 
ATOM     98  H26 non d ame     -39.028   8.402  29.407  0.00  0.00     0.028 H 
ENDBRANCH  93  95
BRANCH  93  99
ATOM     99  C19 non d ame     -37.020  10.238  29.238  0.00  0.00    -0.073 C 
ATOM    100  H27 non d ame     -36.762  10.021  28.201  0.00  0.00     0.028 H 
ATOM    101  H28 non d ame     -38.013  10.687  29.279  0.00  0.00     0.028 H 
ATOM    102  H29 non d ame     -36.291  10.932  29.657  0.00  0.00     0.028 H 
ENDBRANCH  93  99
ENDBRANCH  90  93
ENDBRANCH   1  90
TORSDOF 26
ENDMDL
MODEL 10
REMARK VINA RESULT:      -6.5      1.605      2.074
REMARK  26 active torsions:
REMARK  status: ('A' for Active; 'I' for Inactive)
REMARK    1  A    between atoms: C2_2  and  C3_3 
REMARK    2  A    between atoms: C4_6  and  C5_7 
REMARK       I    between atoms: C5_7  and  N2_9 
REMARK    3  A    between atoms: N2_9  and  C6_10 
REMARK    4  A    between atoms: C6_10  and  C7_11 
REMARK    5  A    between atoms: C6_10  and  C8_13 
REMARK       I    between atoms: C7_11  and  N3_14 
REMARK    6  A    between atoms: N3_14  and  C9_15 
REMARK    7  A    between atoms: C9_15  and  C10_16 
REMARK    8  A    between atoms: C9_15  and  C11_18 
REMARK       I    between atoms: C10_16  and  N4_21 
REMARK    9  A    between atoms: C11_18  and  C12_19 
REMARK   10  A    between atoms: C11_18  and  C13_20 
REMARK   11  A    between atoms: N4_21  and  C14_22 
REMARK   12  A    between atoms: C14_22  and  C15_23 
REMARK   13  A    between atoms: C14_22  and  C16_25 
REMARK       I    between atoms: C15_23  and  N6_40 
REMARK   14  A    between atoms: C16_25  and  C17_26 
REMARK   15  A    between atoms: C17_26  and  C18_27 
REMARK   16  A    between atoms: C17_26  and  C19_28 
REMARK   17  A    between atoms: C20_29  and  C21_30 
REMARK   18  A    between atoms: C20_29  and  C24_33 
REMARK   19  A    between atoms: C20_29  and  N6_40 
REMARK   20  A    between atoms: C21_30  and  C22_31 
REMARK   21  A    between atoms: C22_31  and  C23_32 
REMARK   22  A    between atoms: C23_32  and  O8_43 
REMARK   23  A    between atoms: C24_33  and  C25_34 
REMARK   24  A    between atoms: C28_38  and  O6_39 
REMARK   25  A    between atoms: C29_42  and  O8_43 
REMARK   26  A    between atoms: C29_42  and  C35_49 
ROOT
ATOM      1  C14 non d ame     -36.683  16.318  26.639  0.00  0.00     0.089 C 
ATOM      2  H20 non d ame     -37.192  16.798  27.476  0.00  0.00     0.087 H 
ENDROOT
BRANCH   1   3
ATOM      3  N4  non d ame     -35.251  16.479  26.846  0.00  0.00    -0.346 N 
ATOM      4  C10 non d ame     -34.737  17.329  27.980  0.00  0.00     0.241 C 
ATOM      5  O4  non d ame     -35.494  17.876  28.712  0.00  0.00    -0.271 OA
ATOM      6  H19 non d ame     -34.624  16.007  26.211  0.00  0.00     0.163 HD
BRANCH   4   7
ATOM      7  C9  non d ame     -33.252  17.481  28.182  0.00  0.00     0.092 C 
ATOM      8  H11 non d ame     -33.069  17.999  29.123  0.00  0.00     0.088 H 
BRANCH   7   9
ATOM      9  N3  non d ame     -32.635  16.155  28.292  0.00  0.00    -0.346 N 
ATOM     10  C7  non d ame     -31.809  15.836  29.430  0.00  0.00     0.240 C 
ATOM     11  O3  non d ame     -31.629  16.635  30.267  0.00  0.00    -0.271 OA
ATOM     12  H10 non d ame     -32.781  15.456  27.577  0.00  0.00     0.163 HD
BRANCH  10  13
ATOM     13  C6  non d ame     -31.153  14.425  29.540  0.00  0.00     0.086 C 
ATOM     14  H6  non d ame     -30.451  14.349  30.370  0.00  0.00     0.086 H 
BRANCH  13  15
ATOM     15  N2  non d ame     -32.194  13.439  29.784  0.00  0.00    -0.343 N 
ATOM     16  C5  non d ame     -31.884  12.243  30.570  0.00  0.00     0.273 C 
ATOM     17  O2  non d ame     -30.794  12.081  30.998  0.00  0.00    -0.266 OA
ATOM     18  H5  non d ame     -33.121  13.584  29.411  0.00  0.00     0.163 HD
BRANCH  16  19
ATOM     19  C4  non d ame     -32.974  11.194  30.837  0.00  0.00     0.154 A 
ATOM     20  C1  non d ame     -33.440  10.182  29.938  0.00  0.00    -0.017 A 
ATOM     21  C2  non d ame     -34.437   9.487  30.658  0.00  0.00     0.077 A 
ATOM     22  H1  non d ame     -33.106   9.984  28.919  0.00  0.00     0.091 H 
ATOM     23  O1  non d ame     -34.524  10.041  31.832  0.00  0.00    -0.218 OA
ATOM     24  N1  non d ame     -33.681  11.039  31.960  0.00  0.00    -0.123 NA
BRANCH  21  25
ATOM     25  C3  non d ame     -35.256   8.306  30.153  0.00  0.00    -0.029 C 
ATOM     26  H2  non d ame     -34.737   7.834  29.319  0.00  0.00     0.036 H 
ATOM     27  H3  non d ame     -35.383   7.583  30.957  0.00  0.00     0.036 H 
ATOM     28  H4  non d ame     -36.233   8.657  29.821  0.00  0.00     0.036 H 
ENDBRANCH  21  25
ENDBRANCH  16  19
ENDBRANCH  13  15
BRANCH  13  29
ATOM     29  C8  non d ame     -30.428  14.104  28.257  0.00  0.00    -0.049 C 
ATOM     30  H7  non d ame     -31.152  13.834  27.488  0.00  0.00     0.030 H 
ATOM     31  H8  non d ame     -29.862  14.976  27.933  0.00  0.00     0.030 H 
ATOM     32  H9  non d ame     -29.747  13.269  28.424  0.00  0.00     0.030 H 
ENDBRANCH  13  29
ENDBRANCH  10  13
ENDBRANCH   7   9
BRANCH   7  33
ATOM     33  C11 non d ame     -32.637  18.237  26.968  0.00  0.00    -0.033 C 
ATOM     34  H12 non d ame     -31.608  18.489  27.225  0.00  0.00     0.042 H 
BRANCH  33  35
ATOM     35  C12 non d ame     -32.596  17.332  25.697  0.00  0.00    -0.071 C 
ATOM     36  H13 non d ame     -33.335  16.537  25.793  0.00  0.00     0.028 H 
ATOM     37  H14 non d ame     -32.820  17.933  24.816  0.00  0.00     0.028 H 
ATOM     38  H15 non d ame     -31.603  16.894  25.596  0.00  0.00     0.028 H 
ENDBRANCH  33  35
BRANCH  33  39
ATOM     39  C13 non d ame     -33.406  19.568  26.691  0.00  0.00    -0.071 C 
ATOM     40  H16 non d ame     -33.254  20.256  27.523  0.00  0.00     0.028 H 
ATOM     41  H17 non d ame     -33.031  20.020  25.772  0.00  0.00     0.028 H 
ATOM     42  H18 non d ame     -34.470  19.357  26.582  0.00  0.00     0.028 H 
ENDBRANCH  33  39
ENDBRANCH   7  33
ENDBRANCH   4   7
ENDBRANCH   1   3
BRANCH   1  43
ATOM     43  C15 non d ame     -37.003  14.798  26.552  0.00  0.00     0.240 C 
ATOM     44  O5  non d ame     -38.109  14.414  26.754  0.00  0.00    -0.271 OA
ATOM     45  N6  non d ame     -35.931  13.821  26.207  0.00  0.00    -0.355 N 
ATOM     46  H46 non d ame     -34.988  14.136  26.028  0.00  0.00     0.162 HD
BRANCH  45  47
ATOM     47  C20 non d ame     -36.251  12.380  26.126  0.00  0.00     0.013 C 
ATOM     48  H30 non d ame     -37.213  12.222  26.614  0.00  0.00     0.072 H 
BRANCH  47  49
ATOM     49  C21 non d ame     -35.175  11.588  26.836  0.00  0.00    -0.038 C 
ATOM     50  H31 non d ame     -35.547  11.428  27.848  0.00  0.00     0.036 H 
ATOM     51  H32 non d ame     -34.964  10.735  26.191  0.00  0.00     0.036 H 
BRANCH  49  52
ATOM     52  C22 non d ame     -33.850  12.369  26.975  0.00  0.00     0.018 C 
ATOM     53  H33 non d ame     -33.950  13.237  26.324  0.00  0.00     0.048 H 
ATOM     54  H34 non d ame     -33.699  12.505  28.046  0.00  0.00     0.048 H 
BRANCH  52  55
ATOM     55  C23 non d ame     -32.608  11.590  26.462  0.00  0.00     0.259 C 
ATOM     56  O7  non d ame     -31.747  11.265  27.213  0.00  0.00    -0.265 OA
BRANCH  55  57
ATOM     57  O8  non d ame     -32.503  11.278  25.078  0.00  0.00    -0.317 OA
BRANCH  57  58
ATOM     58  C29 non d ame     -31.224  10.768  24.691  0.00  0.00     0.052 C 
ATOM     59  H47 non d ame     -30.675  11.620  24.290  0.00  0.00     0.082 H 
ATOM     60  H48 non d ame     -30.843  10.235  25.562  0.00  0.00     0.082 H 
BRANCH  58  61
ATOM     61  C35 non d ame     -31.444   9.743  23.546  0.00  0.00    -0.034 A 
ATOM     62  C30 non d ame     -32.706   9.200  23.330  0.00  0.00    -0.075 A 
ATOM     63  C31 non d ame     -32.904   8.279  22.302  0.00  0.00    -0.082 A 
ATOM     64  H49 non d ame     -33.541   9.495  23.966  0.00  0.00     0.084 H 
ATOM     65  C32 non d ame     -31.832   7.899  21.490  0.00  0.00    -0.083 A 
ATOM     66  H50 non d ame     -33.895   7.856  22.135  0.00  0.00     0.083 H 
ATOM     67  C33 non d ame     -30.573   8.441  21.712  0.00  0.00    -0.082 A 
ATOM     68  H51 non d ame     -31.978   7.180  20.684  0.00  0.00     0.083 H 
ATOM     69  C34 non d ame     -30.372   9.363  22.736  0.00  0.00    -0.075 A 
ATOM     70  H52 non d ame     -29.738   8.141  21.078  0.00  0.00     0.083 H 
ATOM     71  H53 non d ame     -29.380   9.786  22.903  0.00  0.00     0.084 H 
ENDBRANCH  58  61
ENDBRANCH  57  58
ENDBRANCH  55  57
ENDBRANCH  52  55
ENDBRANCH  49  52
ENDBRANCH  47  49
BRANCH  47  72
ATOM     72  C24 non d ame     -36.321  11.947  24.663  0.00  0.00    -0.039 C 
ATOM     73  H35 non d ame     -35.710  12.667  24.118  0.00  0.00     0.036 H 
ATOM     74  H36 non d ame     -36.052  10.891  24.660  0.00  0.00     0.036 H 
BRANCH  72  75
ATOM     75  C25 non d ame     -37.810  12.057  24.083  0.00  0.00    -0.001 C 
ATOM     76  C26 non d ame     -38.220  10.658  23.324  0.00  0.00    -0.035 C 
ATOM     77  C27 non d ame     -38.688  10.953  22.087  0.00  0.00     0.085 C 
ATOM     78  H38 non d ame     -37.328  10.065  23.124  0.00  0.00     0.036 H 
ATOM     79  H39 non d ame     -39.078  10.202  23.818  0.00  0.00     0.036 H 
ATOM     80  N5  non d ame     -38.328  12.393  21.812  0.00  0.00    -0.049 N 
ATOM     81  H40 non d ame     -38.131  10.311  21.405  0.00  0.00     0.075 H 
ATOM     82  H41 non d ame     -39.771  10.865  22.156  0.00  0.00     0.075 H 
ATOM     83  C28 non d ame     -37.912  13.027  23.237  0.00  0.00     0.193 C 
ATOM     84  H42 non d ame     -37.513  12.376  21.216  0.00  0.00     0.280 HD
ATOM     85  H43 non d ame     -39.176  12.843  21.495  0.00  0.00     0.280 HD
ATOM     86  H44 non d ame     -38.597  13.686  23.771  0.00  0.00     0.129 H 
ATOM     87  H37 non d ame     -38.513  12.446  24.821  0.00  0.00     0.046 H 
BRANCH  83  88
ATOM     88  O6  non d ame     -36.694  13.763  23.112  0.00  0.00    -0.369 OA
ATOM     89  H45 non d ame     -36.844  14.542  22.571  0.00  0.00     0.212 HD
ENDBRANCH  83  88
ENDBRANCH  72  75
ENDBRANCH  47  72
ENDBRANCH  45  47
ENDBRANCH   1  43
BRANCH   1  90
ATOM     90  C16 non d ame     -37.076  16.999  25.338  0.00  0.00    -0.035 C 
ATOM     91  H21 non d ame     -36.205  16.907  24.690  0.00  0.00     0.037 H 
ATOM     92  H22 non d ame     -38.023  16.542  25.048  0.00  0.00     0.037 H 
BRANCH  90  93
ATOM     93  C17 non d ame     -37.353  18.528  25.490  0.00  0.00    -0.059 C 
ATOM     94  H23 non d ame     -36.936  18.846  26.445  0.00  0.00     0.038 H 
BRANCH  93  95
ATOM     95  C18 non d ame     -36.664  19.366  24.366  0.00  0.00    -0.073 C 
ATOM     96  H24 non d ame     -35.586  19.369  24.524  0.00  0.00     0.028 H 
ATOM     97  H25 non d ame     -36.887  18.926  23.395  0.00  0.00     0.028 H 
ATOM     98  H26 non d ame     -37.037  20.390  24.395  0.00  0.00     0.028 H 
ENDBRANCH  93  95
BRANCH  93  99
ATOM     99  C19 non d ame     -38.857  18.810  25.534  0.00  0.00    -0.073 C 
ATOM    100  H27 non d ame     -39.024  19.849  25.818  0.00  0.00     0.028 H 
ATOM    101  H28 non d ame     -39.291  18.628  24.550  0.00  0.00     0.028 H 
ATOM    102  H29 non d ame     -39.329  18.153  26.265  0.00  0.00     0.028 H 
ENDBRANCH  93  99
ENDBRANCH  90  93
ENDBRANCH   1  90
TORSDOF 26
ENDMDL
MODEL 11
REMARK VINA RESULT:      -6.5      4.066      8.055
REMARK  26 active torsions:
REMARK  status: ('A' for Active; 'I' for Inactive)
REMARK    1  A    between atoms: C2_2  and  C3_3 
REMARK    2  A    between atoms: C4_6  and  C5_7 
REMARK       I    between atoms: C5_7  and  N2_9 
REMARK    3  A    between atoms: N2_9  and  C6_10 
REMARK    4  A    between atoms: C6_10  and  C7_11 
REMARK    5  A    between atoms: C6_10  and  C8_13 
REMARK       I    between atoms: C7_11  and  N3_14 
REMARK    6  A    between atoms: N3_14  and  C9_15 
REMARK    7  A    between atoms: C9_15  and  C10_16 
REMARK    8  A    between atoms: C9_15  and  C11_18 
REMARK       I    between atoms: C10_16  and  N4_21 
REMARK    9  A    between atoms: C11_18  and  C12_19 
REMARK   10  A    between atoms: C11_18  and  C13_20 
REMARK   11  A    between atoms: N4_21  and  C14_22 
REMARK   12  A    between atoms: C14_22  and  C15_23 
REMARK   13  A    between atoms: C14_22  and  C16_25 
REMARK       I    between atoms: C15_23  and  N6_40 
REMARK   14  A    between atoms: C16_25  and  C17_26 
REMARK   15  A    between atoms: C17_26  and  C18_27 
REMARK   16  A    between atoms: C17_26  and  C19_28 
REMARK   17  A    between atoms: C20_29  and  C21_30 
REMARK   18  A    between atoms: C20_29  and  C24_33 
REMARK   19  A    between atoms: C20_29  and  N6_40 
REMARK   20  A    between atoms: C21_30  and  C22_31 
REMARK   21  A    between atoms: C22_31  and  C23_32 
REMARK   22  A    between atoms: C23_32  and  O8_43 
REMARK   23  A    between atoms: C24_33  and  C25_34 
REMARK   24  A    between atoms: C28_38  and  O6_39 
REMARK   25  A    between atoms: C29_42  and  O8_43 
REMARK   26  A    between atoms: C29_42  and  C35_49 
ROOT
ATOM      1  C14 non d ame     -33.339  10.352  25.900  0.00  0.00     0.089 C 
ATOM      2  H20 non d ame     -34.148  10.672  25.244  0.00  0.00     0.087 H 
ENDROOT
BRANCH   1   3
ATOM      3  N4  non d ame     -33.402   8.902  25.999  0.00  0.00    -0.346 N 
ATOM      4  C10 non d ame     -33.622   8.063  24.766  0.00  0.00     0.241 C 
ATOM      5  O4  non d ame     -33.748   8.578  23.704  0.00  0.00    -0.271 OA
ATOM      6  H19 non d ame     -33.295   8.483  26.912  0.00  0.00     0.163 HD
BRANCH   4   7
ATOM      7  C9  non d ame     -33.679   6.563  24.886  0.00  0.00     0.092 C 
ATOM      8  H11 non d ame     -32.750   6.203  25.329  0.00  0.00     0.088 H 
BRANCH   7   9
ATOM      9  N3  non d ame     -34.766   6.186  25.795  0.00  0.00    -0.346 N 
ATOM     10  C7  non d ame     -34.476   5.439  26.995  0.00  0.00     0.240 C 
ATOM     11  O3  non d ame     -33.374   5.132  27.243  0.00  0.00    -0.271 OA
ATOM     12  H10 non d ame     -35.722   6.443  25.594  0.00  0.00     0.163 HD
BRANCH  10  13
ATOM     13  C6  non d ame     -35.637   5.039  27.957  0.00  0.00     0.086 C 
ATOM     14  H6  non d ame     -35.615   3.983  28.228  0.00  0.00     0.086 H 
BRANCH  13  15
ATOM     15  N2  non d ame     -35.504   5.789  29.195  0.00  0.00    -0.343 N 
ATOM     16  C5  non d ame     -35.342   7.244  29.142  0.00  0.00     0.273 C 
ATOM     17  O2  non d ame     -35.317   7.800  28.100  0.00  0.00    -0.266 OA
ATOM     18  H5  non d ame     -35.524   5.305  30.081  0.00  0.00     0.163 HD
BRANCH  16  19
ATOM     19  C4  non d ame     -35.202   8.050  30.443  0.00  0.00     0.154 A 
ATOM     20  C1  non d ame     -35.454   9.446  30.626  0.00  0.00    -0.017 A 
ATOM     21  C2  non d ame     -35.179   9.689  31.991  0.00  0.00     0.077 A 
ATOM     22  H1  non d ame     -35.784  10.172  29.883  0.00  0.00     0.091 H 
ATOM     23  O1  non d ame     -34.815   8.558  32.520  0.00  0.00    -0.218 OA
ATOM     24  N1  non d ame     -34.820   7.587  31.637  0.00  0.00    -0.123 NA
BRANCH  21  25
ATOM     25  C3  non d ame     -35.291  11.028  32.708  0.00  0.00    -0.029 C 
ATOM     26  H2  non d ame     -35.523  10.859  33.759  0.00  0.00     0.036 H 
ATOM     27  H3  non d ame     -34.345  11.563  32.627  0.00  0.00     0.036 H 
ATOM     28  H4  non d ame     -36.084  11.620  32.252  0.00  0.00     0.036 H 
ENDBRANCH  21  25
ENDBRANCH  16  19
ENDBRANCH  13  15
BRANCH  13  29
ATOM     29  C8  non d ame     -36.962   5.347  27.306  0.00  0.00    -0.049 C 
ATOM     30  H7  non d ame     -36.914   6.327  26.831  0.00  0.00     0.030 H 
ATOM     31  H8  non d ame     -37.182   4.590  26.554  0.00  0.00     0.030 H 
ATOM     32  H9  non d ame     -37.747   5.348  28.062  0.00  0.00     0.030 H 
ENDBRANCH  13  29
ENDBRANCH  10  13
ENDBRANCH   7   9
BRANCH   7  33
ATOM     33  C11 non d ame     -33.940   5.939  23.484  0.00  0.00    -0.033 C 
ATOM     34  H12 non d ame     -33.771   6.719  22.741  0.00  0.00     0.042 H 
BRANCH  33  35
ATOM     35  C12 non d ame     -32.941   4.779  23.183  0.00  0.00    -0.071 C 
ATOM     36  H13 non d ame     -33.426   4.037  22.548  0.00  0.00     0.028 H 
ATOM     37  H14 non d ame     -32.065   5.177  22.672  0.00  0.00     0.028 H 
ATOM     38  H15 non d ame     -32.635   4.311  24.118  0.00  0.00     0.028 H 
ENDBRANCH  33  35
BRANCH  33  39
ATOM     39  C13 non d ame     -35.422   5.460  23.352  0.00  0.00    -0.071 C 
ATOM     40  H16 non d ame     -36.074   6.325  23.233  0.00  0.00     0.028 H 
ATOM     41  H17 non d ame     -35.517   4.809  22.482  0.00  0.00     0.028 H 
ATOM     42  H18 non d ame     -35.707   4.910  24.249  0.00  0.00     0.028 H 
ENDBRANCH  33  39
ENDBRANCH   7  33
ENDBRANCH   4   7
ENDBRANCH   1   3
BRANCH   1  43
ATOM     43  C15 non d ame     -31.941  10.750  25.345  0.00  0.00     0.240 C 
ATOM     44  O5  non d ame     -31.014  10.837  26.084  0.00  0.00    -0.271 OA
ATOM     45  N6  non d ame     -31.756  11.015  23.890  0.00  0.00    -0.355 N 
ATOM     46  H46 non d ame     -32.534  10.940  23.251  0.00  0.00     0.162 HD
BRANCH  45  47
ATOM     47  C20 non d ame     -30.420  11.391  23.377  0.00  0.00     0.013 C 
ATOM     48  H30 non d ame     -29.744  11.468  24.228  0.00  0.00     0.072 H 
BRANCH  47  49
ATOM     49  C21 non d ame     -30.514  12.724  22.670  0.00  0.00    -0.038 C 
ATOM     50  H31 non d ame     -29.783  12.681  21.862  0.00  0.00     0.036 H 
ATOM     51  H32 non d ame     -31.571  12.863  22.443  0.00  0.00     0.036 H 
BRANCH  49  52
ATOM     52  C22 non d ame     -30.101  13.910  23.569  0.00  0.00     0.018 C 
ATOM     53  H33 non d ame     -30.092  13.520  24.586  0.00  0.00     0.048 H 
ATOM     54  H34 non d ame     -29.186  14.308  23.130  0.00  0.00     0.048 H 
BRANCH  52  55
ATOM     55  C23 non d ame     -31.121  15.081  23.568  0.00  0.00     0.259 C 
ATOM     56  O7  non d ame     -31.058  15.936  22.745  0.00  0.00    -0.265 OA
BRANCH  55  57
ATOM     57  O8  non d ame     -32.128  15.129  24.572  0.00  0.00    -0.317 OA
BRANCH  57  58
ATOM     58  C29 non d ame     -31.842  16.036  25.641  0.00  0.00     0.052 C 
ATOM     59  H47 non d ame     -30.812  16.357  25.487  0.00  0.00     0.082 H 
ATOM     60  H48 non d ame     -32.648  16.768  25.630  0.00  0.00     0.082 H 
BRANCH  58  61
ATOM     61  C35 non d ame     -31.916  15.244  26.973  0.00  0.00    -0.034 A 
ATOM     62  C30 non d ame     -31.059  14.170  27.194  0.00  0.00    -0.075 A 
ATOM     63  C31 non d ame     -31.126  13.458  28.391  0.00  0.00    -0.082 A 
ATOM     64  H49 non d ame     -30.336  13.886  26.430  0.00  0.00     0.084 H 
ATOM     65  C32 non d ame     -32.056  13.822  29.369  0.00  0.00    -0.083 A 
ATOM     66  H50 non d ame     -30.452  12.618  28.562  0.00  0.00     0.083 H 
ATOM     67  C33 non d ame     -32.911  14.892  29.142  0.00  0.00    -0.082 A 
ATOM     68  H51 non d ame     -32.115  13.272  30.307  0.00  0.00     0.083 H 
ATOM     69  C34 non d ame     -32.847  15.608  27.948  0.00  0.00    -0.075 A 
ATOM     70  H52 non d ame     -33.638  15.172  29.906  0.00  0.00     0.083 H 
ATOM     71  H53 non d ame     -33.521  16.447  27.778  0.00  0.00     0.084 H 
ENDBRANCH  58  61
ENDBRANCH  57  58
ENDBRANCH  55  57
ENDBRANCH  52  55
ENDBRANCH  49  52
ENDBRANCH  47  49
BRANCH  47  72
ATOM     72  C24 non d ame     -29.924  10.328  22.399  0.00  0.00    -0.039 C 
ATOM     73  H35 non d ame     -30.750  10.164  21.706  0.00  0.00     0.036 H 
ATOM     74  H36 non d ame     -28.968  10.698  22.029  0.00  0.00     0.036 H 
BRANCH  72  75
ATOM     75  C25 non d ame     -29.640   8.933  23.134  0.00  0.00    -0.001 C 
ATOM     76  C26 non d ame     -28.126   8.406  22.767  0.00  0.00    -0.035 C 
ATOM     77  C27 non d ame     -28.204   7.125  22.333  0.00  0.00     0.085 C 
ATOM     78  H38 non d ame     -27.742   8.945  21.901  0.00  0.00     0.036 H 
ATOM     79  H39 non d ame     -27.526   8.331  23.673  0.00  0.00     0.036 H 
ATOM     80  N5  non d ame     -29.661   6.839  22.060  0.00  0.00    -0.049 N 
ATOM     81  H40 non d ame     -27.654   7.103  21.391  0.00  0.00     0.075 H 
ATOM     82  H41 non d ame     -27.873   6.513  23.171  0.00  0.00     0.075 H 
ATOM     83  C28 non d ame     -30.488   8.031  22.768  0.00  0.00     0.193 C 
ATOM     84  H42 non d ame     -29.784   6.912  21.060  0.00  0.00     0.280 HD
ATOM     85  H43 non d ame     -29.875   5.973  22.533  0.00  0.00     0.280 HD
ATOM     86  H44 non d ame     -31.011   7.858  23.709  0.00  0.00     0.129 H 
ATOM     87  H37 non d ame     -29.914   8.959  24.189  0.00  0.00     0.046 H 
BRANCH  83  88
ATOM     88  O6  non d ame     -31.473   8.548  21.872  0.00  0.00    -0.369 OA
ATOM     89  H45 non d ame     -32.152   7.885  21.725  0.00  0.00     0.212 HD
ENDBRANCH  83  88
ENDBRANCH  72  75
ENDBRANCH  47  72
ENDBRANCH  45  47
ENDBRANCH   1  43
BRANCH   1  90
ATOM     90  C16 non d ame     -33.529  10.953  27.284  0.00  0.00    -0.035 C 
ATOM     91  H21 non d ame     -33.815  10.119  27.923  0.00  0.00     0.037 H 
ATOM     92  H22 non d ame     -32.612  11.507  27.487  0.00  0.00     0.037 H 
BRANCH  90  93
ATOM     93  C17 non d ame     -34.696  11.989  27.362  0.00  0.00    -0.059 C 
ATOM     94  H23 non d ame     -34.564  12.567  28.276  0.00  0.00     0.038 H 
BRANCH  93  95
ATOM     95  C18 non d ame     -34.679  12.987  26.160  0.00  0.00    -0.073 C 
ATOM     96  H24 non d ame     -33.648  13.216  25.892  0.00  0.00     0.028 H 
ATOM     97  H25 non d ame     -35.184  12.536  25.306  0.00  0.00     0.028 H 
ATOM     98  H26 non d ame     -35.194  13.905  26.443  0.00  0.00     0.028 H 
ENDBRANCH  93  95
BRANCH  93  99
ATOM     99  C19 non d ame     -36.049  11.281  27.463  0.00  0.00    -0.073 C 
ATOM    100  H27 non d ame     -36.386  11.286  28.500  0.00  0.00     0.028 H 
ATOM    101  H28 non d ame     -36.779  11.801  26.842  0.00  0.00     0.028 H 
ATOM    102  H29 non d ame     -35.948  10.252  27.118  0.00  0.00     0.028 H 
ENDBRANCH  93  99
ENDBRANCH  90  93
ENDBRANCH   1  90
TORSDOF 26
ENDMDL
MODEL 12
REMARK VINA RESULT:      -6.5      3.654      8.561
REMARK  26 active torsions:
REMARK  status: ('A' for Active; 'I' for Inactive)
REMARK    1  A    between atoms: C2_2  and  C3_3 
REMARK    2  A    between atoms: C4_6  and  C5_7 
REMARK       I    between atoms: C5_7  and  N2_9 
REMARK    3  A    between atoms: N2_9  and  C6_10 
REMARK    4  A    between atoms: C6_10  and  C7_11 
REMARK    5  A    between atoms: C6_10  and  C8_13 
REMARK       I    between atoms: C7_11  and  N3_14 
REMARK    6  A    between atoms: N3_14  and  C9_15 
REMARK    7  A    between atoms: C9_15  and  C10_16 
REMARK    8  A    between atoms: C9_15  and  C11_18 
REMARK       I    between atoms: C10_16  and  N4_21 
REMARK    9  A    between atoms: C11_18  and  C12_19 
REMARK   10  A    between atoms: C11_18  and  C13_20 
REMARK   11  A    between atoms: N4_21  and  C14_22 
REMARK   12  A    between atoms: C14_22  and  C15_23 
REMARK   13  A    between atoms: C14_22  and  C16_25 
REMARK       I    between atoms: C15_23  and  N6_40 
REMARK   14  A    between atoms: C16_25  and  C17_26 
REMARK   15  A    between atoms: C17_26  and  C18_27 
REMARK   16  A    between atoms: C17_26  and  C19_28 
REMARK   17  A    between atoms: C20_29  and  C21_30 
REMARK   18  A    between atoms: C20_29  and  C24_33 
REMARK   19  A    between atoms: C20_29  and  N6_40 
REMARK   20  A    between atoms: C21_30  and  C22_31 
REMARK   21  A    between atoms: C22_31  and  C23_32 
REMARK   22  A    between atoms: C23_32  and  O8_43 
REMARK   23  A    between atoms: C24_33  and  C25_34 
REMARK   24  A    between atoms: C28_38  and  O6_39 
REMARK   25  A    between atoms: C29_42  and  O8_43 
REMARK   26  A    between atoms: C29_42  and  C35_49 
ROOT
ATOM      1  C14 non d ame     -32.739   9.538  27.335  0.00  0.00     0.089 C 
ATOM      2  H20 non d ame     -31.715   9.167  27.287  0.00  0.00     0.087 H 
ENDROOT
BRANCH   1   3
ATOM      3  N4  non d ame     -32.680  10.941  27.715  0.00  0.00    -0.346 N 
ATOM      4  C10 non d ame     -31.598  11.835  27.163  0.00  0.00     0.241 C 
ATOM      5  O4  non d ame     -30.784  11.401  26.416  0.00  0.00    -0.271 OA
ATOM      6  H19 non d ame     -33.380  11.290  28.354  0.00  0.00     0.163 HD
BRANCH   4   7
ATOM      7  C9  non d ame     -31.555  13.286  27.563  0.00  0.00     0.092 C 
ATOM      8  H11 non d ame     -30.520  13.627  27.567  0.00  0.00     0.088 H 
BRANCH   7   9
ATOM      9  N3  non d ame     -32.272  14.090  26.568  0.00  0.00    -0.346 N 
ATOM     10  C7  non d ame     -31.550  14.691  25.473  0.00  0.00     0.240 C 
ATOM     11  O3  non d ame     -30.394  14.540  25.379  0.00  0.00    -0.271 OA
ATOM     12  H10 non d ame     -33.269  14.230  26.637  0.00  0.00     0.163 HD
BRANCH  10  13
ATOM     13  C6  non d ame     -32.318  15.547  24.418  0.00  0.00     0.086 C 
ATOM     14  H6  non d ame     -33.249  15.082  24.094  0.00  0.00     0.086 H 
BRANCH  13  15
ATOM     15  N2  non d ame     -32.676  16.822  25.017  0.00  0.00    -0.343 N 
ATOM     16  C5  non d ame     -34.068  17.075  25.397  0.00  0.00     0.273 C 
ATOM     17  O2  non d ame     -34.892  16.248  25.214  0.00  0.00    -0.266 OA
ATOM     18  H5  non d ame     -31.966  17.525  25.167  0.00  0.00     0.163 HD
BRANCH  16  19
ATOM     19  C4  non d ame     -34.461  18.418  26.032  0.00  0.00     0.154 A 
ATOM     20  C1  non d ame     -35.783  18.930  26.223  0.00  0.00    -0.017 A 
ATOM     21  C2  non d ame     -35.600  20.187  26.842  0.00  0.00     0.077 A 
ATOM     22  H1  non d ame     -36.730  18.462  25.953  0.00  0.00     0.091 H 
ATOM     23  O1  non d ame     -34.320  20.365  26.987  0.00  0.00    -0.218 OA
ATOM     24  N1  non d ame     -33.634  19.347  26.521  0.00  0.00    -0.123 NA
BRANCH  21  25
ATOM     25  C3  non d ame     -36.700  21.153  27.263  0.00  0.00    -0.029 C 
ATOM     26  H2  non d ame     -37.653  20.627  27.296  0.00  0.00     0.036 H 
ATOM     27  H3  non d ame     -36.472  21.554  28.251  0.00  0.00     0.036 H 
ATOM     28  H4  non d ame     -36.760  21.971  26.545  0.00  0.00     0.036 H 
ENDBRANCH  21  25
ENDBRANCH  16  19
ENDBRANCH  13  15
BRANCH  13  29
ATOM     29  C8  non d ame     -31.440  15.771  23.213  0.00  0.00    -0.049 C 
ATOM     30  H7  non d ame     -32.006  16.295  22.443  0.00  0.00     0.030 H 
ATOM     31  H8  non d ame     -30.576  16.370  23.500  0.00  0.00     0.030 H 
ATOM     32  H9  non d ame     -31.103  14.809  22.825  0.00  0.00     0.030 H 
ENDBRANCH  13  29
ENDBRANCH  10  13
ENDBRANCH   7   9
BRANCH   7  33
ATOM     33  C11 non d ame     -32.234  13.461  28.953  0.00  0.00    -0.033 C 
ATOM     34  H12 non d ame     -33.088  12.785  28.989  0.00  0.00     0.042 H 
BRANCH  33  35
ATOM     35  C12 non d ame     -31.269  13.060  30.112  0.00  0.00    -0.071 C 
ATOM     36  H13 non d ame     -31.104  11.983  30.091  0.00  0.00     0.028 H 
ATOM     37  H14 non d ame     -30.318  13.576  29.987  0.00  0.00     0.028 H 
ATOM     38  H15 non d ame     -31.713  13.340  31.067  0.00  0.00     0.028 H 
ENDBRANCH  33  35
BRANCH  33  39
ATOM     39  C13 non d ame     -32.765  14.920  29.137  0.00  0.00    -0.071 C 
ATOM     40  H16 non d ame     -32.980  15.354  28.160  0.00  0.00     0.028 H 
ATOM     41  H17 non d ame     -33.675  14.902  29.737  0.00  0.00     0.028 H 
ATOM     42  H18 non d ame     -32.009  15.520  29.643  0.00  0.00     0.028 H 
ENDBRANCH  33  39
ENDBRANCH   7  33
ENDBRANCH   4   7
ENDBRANCH   1   3
BRANCH   1  43
ATOM     43  C15 non d ame     -33.468   9.426  25.965  0.00  0.00     0.240 C 
ATOM     44  O5  non d ame     -34.269  10.247  25.654  0.00  0.00    -0.271 OA
ATOM     45  N6  non d ame     -33.162   8.300  25.038  0.00  0.00    -0.355 N 
ATOM     46  H46 non d ame     -32.480   7.599  25.290  0.00  0.00     0.162 HD
BRANCH  45  47
ATOM     47  C20 non d ame     -33.863   8.209  23.739  0.00  0.00     0.013 C 
ATOM     48  H30 non d ame     -34.734   8.862  23.781  0.00  0.00     0.072 H 
BRANCH  47  49
ATOM     49  C21 non d ame     -34.300   6.780  23.506  0.00  0.00    -0.038 C 
ATOM     50  H31 non d ame     -34.177   6.605  22.437  0.00  0.00     0.036 H 
ATOM     51  H32 non d ame     -33.741   6.181  24.225  0.00  0.00     0.036 H 
BRANCH  49  52
ATOM     52  C22 non d ame     -35.795   6.553  23.817  0.00  0.00     0.018 C 
ATOM     53  H33 non d ame     -36.327   7.359  23.312  0.00  0.00     0.048 H 
ATOM     54  H34 non d ame     -35.998   5.515  23.550  0.00  0.00     0.048 H 
BRANCH  52  55
ATOM     55  C23 non d ame     -36.149   6.685  25.324  0.00  0.00     0.259 C 
ATOM     56  O7  non d ame     -36.431   7.742  25.787  0.00  0.00    -0.265 OA
BRANCH  55  57
ATOM     57  O8  non d ame     -36.120   5.527  26.150  0.00  0.00    -0.317 OA
BRANCH  57  58
ATOM     58  C29 non d ame     -34.946   5.419  26.960  0.00  0.00     0.052 C 
ATOM     59  H47 non d ame     -34.572   4.407  26.803  0.00  0.00     0.082 H 
ATOM     60  H48 non d ame     -34.326   6.275  26.697  0.00  0.00     0.082 H 
BRANCH  58  61
ATOM     61  C35 non d ame     -35.374   5.560  28.445  0.00  0.00    -0.034 A 
ATOM     62  C30 non d ame     -34.435   5.398  29.459  0.00  0.00    -0.075 A 
ATOM     63  C31 non d ame     -34.819   5.524  30.793  0.00  0.00    -0.082 A 
ATOM     64  H49 non d ame     -33.398   5.171  29.208  0.00  0.00     0.084 H 
ATOM     65  C32 non d ame     -36.149   5.811  31.112  0.00  0.00    -0.083 A 
ATOM     66  H50 non d ame     -34.080   5.398  31.585  0.00  0.00     0.083 H 
ATOM     67  C33 non d ame     -37.083   5.969  30.097  0.00  0.00    -0.082 A 
ATOM     68  H51 non d ame     -36.458   5.912  32.153  0.00  0.00     0.083 H 
ATOM     69  C34 non d ame     -36.703   5.845  28.762  0.00  0.00    -0.075 A 
ATOM     70  H52 non d ame     -38.120   6.190  30.350  0.00  0.00     0.083 H 
ATOM     71  H53 non d ame     -37.442   5.971  27.971  0.00  0.00     0.084 H 
ENDBRANCH  58  61
ENDBRANCH  57  58
ENDBRANCH  55  57
ENDBRANCH  52  55
ENDBRANCH  49  52
ENDBRANCH  47  49
BRANCH  47  72
ATOM     72  C24 non d ame     -32.926   8.645  22.615  0.00  0.00    -0.039 C 
ATOM     73  H35 non d ame     -33.030   7.885  21.839  0.00  0.00     0.036 H 
ATOM     74  H36 non d ame     -33.191   9.680  22.401  0.00  0.00     0.036 H 
BRANCH  72  75
ATOM     75  C25 non d ame     -31.394   8.636  23.083  0.00  0.00    -0.001 C 
ATOM     76  C26 non d ame     -30.803  10.171  23.096  0.00  0.00    -0.035 C 
ATOM     77  C27 non d ame     -29.645  10.199  22.395  0.00  0.00     0.085 C 
ATOM     78  H38 non d ame     -31.461  10.829  22.530  0.00  0.00     0.036 H 
ATOM     79  H39 non d ame     -30.496  10.444  24.106  0.00  0.00     0.036 H 
ATOM     80  N5  non d ame     -29.561   8.900  21.630  0.00  0.00    -0.049 N 
ATOM     81  H40 non d ame     -29.754  11.022  21.688  0.00  0.00     0.075 H 
ATOM     82  H41 non d ame     -28.853  10.224  23.142  0.00  0.00     0.075 H 
ATOM     83  C28 non d ame     -30.666   7.925  22.288  0.00  0.00     0.193 C 
ATOM     84  H42 non d ame     -29.838   9.108  20.681  0.00  0.00     0.280 HD
ATOM     85  H43 non d ame     -28.644   8.519  21.816  0.00  0.00     0.280 HD
ATOM     86  H44 non d ame     -30.365   7.121  22.960  0.00  0.00     0.129 H 
ATOM     87  H37 non d ame     -31.240   8.038  23.981  0.00  0.00     0.046 H 
BRANCH  83  88
ATOM     88  O6  non d ame     -31.441   7.297  21.265  0.00  0.00    -0.369 OA
ATOM     89  H45 non d ame     -30.865   7.035  20.543  0.00  0.00     0.212 HD
ENDBRANCH  83  88
ENDBRANCH  72  75
ENDBRANCH  47  72
ENDBRANCH  45  47
ENDBRANCH   1  43
BRANCH   1  90
ATOM     90  C16 non d ame     -33.516   8.769  28.392  0.00  0.00    -0.035 C 
ATOM     91  H21 non d ame     -34.164   8.091  27.838  0.00  0.00     0.037 H 
ATOM     92  H22 non d ame     -32.762   8.371  29.071  0.00  0.00     0.037 H 
BRANCH  90  93
ATOM     93  C17 non d ame     -34.457   9.669  29.255  0.00  0.00    -0.059 C 
ATOM     94  H23 non d ame     -34.149  10.704  29.110  0.00  0.00     0.038 H 
BRANCH  93  95
ATOM     95  C18 non d ame     -35.952   9.551  28.816  0.00  0.00    -0.073 C 
ATOM     96  H24 non d ame     -36.314   8.545  29.026  0.00  0.00     0.028 H 
ATOM     97  H25 non d ame     -36.551  10.275  29.367  0.00  0.00     0.028 H 
ATOM     98  H26 non d ame     -36.033   9.750  27.748  0.00  0.00     0.028 H 
ENDBRANCH  93  95
BRANCH  93  99
ATOM     99  C19 non d ame     -34.300   9.352  30.745  0.00  0.00    -0.073 C 
ATOM    100  H27 non d ame     -34.740  10.157  31.336  0.00  0.00     0.028 H 
ATOM    101  H28 non d ame     -34.809   8.415  30.973  0.00  0.00     0.028 H 
ATOM    102  H29 non d ame     -33.242   9.259  30.987  0.00  0.00     0.028 H 
ENDBRANCH  93  99
ENDBRANCH  90  93
ENDBRANCH   1  90
TORSDOF 26
ENDMDL
MODEL 13
REMARK VINA RESULT:      -6.3      3.575      7.657
REMARK  26 active torsions:
REMARK  status: ('A' for Active; 'I' for Inactive)
REMARK    1  A    between atoms: C2_2  and  C3_3 
REMARK    2  A    between atoms: C4_6  and  C5_7 
REMARK       I    between atoms: C5_7  and  N2_9 
REMARK    3  A    between atoms: N2_9  and  C6_10 
REMARK    4  A    between atoms: C6_10  and  C7_11 
REMARK    5  A    between atoms: C6_10  and  C8_13 
REMARK       I    between atoms: C7_11  and  N3_14 
REMARK    6  A    between atoms: N3_14  and  C9_15 
REMARK    7  A    between atoms: C9_15  and  C10_16 
REMARK    8  A    between atoms: C9_15  and  C11_18 
REMARK       I    between atoms: C10_16  and  N4_21 
REMARK    9  A    between atoms: C11_18  and  C12_19 
REMARK   10  A    between atoms: C11_18  and  C13_20 
REMARK   11  A    between atoms: N4_21  and  C14_22 
REMARK   12  A    between atoms: C14_22  and  C15_23 
REMARK   13  A    between atoms: C14_22  and  C16_25 
REMARK       I    between atoms: C15_23  and  N6_40 
REMARK   14  A    between atoms: C16_25  and  C17_26 
REMARK   15  A    between atoms: C17_26  and  C18_27 
REMARK   16  A    between atoms: C17_26  and  C19_28 
REMARK   17  A    between atoms: C20_29  and  C21_30 
REMARK   18  A    between atoms: C20_29  and  C24_33 
REMARK   19  A    between atoms: C20_29  and  N6_40 
REMARK   20  A    between atoms: C21_30  and  C22_31 
REMARK   21  A    between atoms: C22_31  and  C23_32 
REMARK   22  A    between atoms: C23_32  and  O8_43 
REMARK   23  A    between atoms: C24_33  and  C25_34 
REMARK   24  A    between atoms: C28_38  and  O6_39 
REMARK   25  A    between atoms: C29_42  and  O8_43 
REMARK   26  A    between atoms: C29_42  and  C35_49 
ROOT
ATOM      1  C14 non d ame     -32.035   8.570  24.112  0.00  0.00     0.089 C 
ATOM      2  H20 non d ame     -31.122   8.107  24.487  0.00  0.00     0.087 H 
ENDROOT
BRANCH   1   3
ATOM      3  N4  non d ame     -33.154   7.739  24.531  0.00  0.00    -0.346 N 
ATOM      4  C10 non d ame     -32.918   6.521  25.389  0.00  0.00     0.241 C 
ATOM      5  O4  non d ame     -31.818   6.229  25.727  0.00  0.00    -0.271 OA
ATOM      6  H19 non d ame     -34.081   8.004  24.231  0.00  0.00     0.163 HD
BRANCH   4   7
ATOM      7  C9  non d ame     -34.088   5.675  25.818  0.00  0.00     0.092 C 
ATOM      8  H11 non d ame     -33.725   4.840  26.417  0.00  0.00     0.088 H 
BRANCH   7   9
ATOM      9  N3  non d ame     -34.977   6.468  26.673  0.00  0.00    -0.346 N 
ATOM     10  C7  non d ame     -35.232   6.050  28.030  0.00  0.00     0.240 C 
ATOM     11  O3  non d ame     -34.732   5.078  28.449  0.00  0.00    -0.271 OA
ATOM     12  H10 non d ame     -35.416   7.308  26.325  0.00  0.00     0.163 HD
BRANCH  10  13
ATOM     13  C6  non d ame     -36.182   6.896  28.934  0.00  0.00     0.086 C 
ATOM     14  H6  non d ame     -36.421   6.399  29.875  0.00  0.00     0.086 H 
BRANCH  13  15
ATOM     15  N2  non d ame     -35.518   8.142  29.279  0.00  0.00    -0.343 N 
ATOM     16  C5  non d ame     -34.896   8.287  30.597  0.00  0.00     0.273 C 
ATOM     17  O2  non d ame     -34.938   7.397  31.374  0.00  0.00    -0.266 OA
ATOM     18  H5  non d ame     -35.489   8.898  28.610  0.00  0.00     0.163 HD
BRANCH  16  19
ATOM     19  C4  non d ame     -34.189   9.598  30.975  0.00  0.00     0.154 A 
ATOM     20  C1  non d ame     -33.126  10.243  30.266  0.00  0.00    -0.017 A 
ATOM     21  C2  non d ame     -32.838  11.403  31.019  0.00  0.00     0.077 A 
ATOM     22  H1  non d ame     -32.639   9.918  29.346  0.00  0.00     0.091 H 
ATOM     23  O1  non d ame     -33.647  11.414  32.038  0.00  0.00    -0.218 OA
ATOM     24  N1  non d ame     -34.445  10.371  32.034  0.00  0.00    -0.123 NA
BRANCH  21  25
ATOM     25  C3  non d ame     -31.776  12.446  30.696  0.00  0.00    -0.029 C 
ATOM     26  H2  non d ame     -31.191  12.116  29.838  0.00  0.00     0.036 H 
ATOM     27  H3  non d ame     -32.259  13.395  30.463  0.00  0.00     0.036 H 
ATOM     28  H4  non d ame     -31.120  12.575  31.557  0.00  0.00     0.036 H 
ENDBRANCH  21  25
ENDBRANCH  16  19
ENDBRANCH  13  15
BRANCH  13  29
ATOM     29  C8  non d ame     -37.463   7.181  28.194  0.00  0.00    -0.049 C 
ATOM     30  H7  non d ame     -38.009   6.250  28.039  0.00  0.00     0.030 H 
ATOM     31  H8  non d ame     -38.076   7.867  28.779  0.00  0.00     0.030 H 
ATOM     32  H9  non d ame     -37.233   7.632  27.228  0.00  0.00     0.030 H 
ENDBRANCH  13  29
ENDBRANCH  10  13
ENDBRANCH   7   9
BRANCH   7  33
ATOM     33  C11 non d ame     -34.872   5.198  24.561  0.00  0.00    -0.033 C 
ATOM     34  H12 non d ame     -35.212   6.087  24.029  0.00  0.00     0.042 H 
BRANCH  33  35
ATOM     35  C12 non d ame     -33.954   4.393  23.590  0.00  0.00    -0.071 C 
ATOM     36  H13 non d ame     -33.944   4.877  22.613  0.00  0.00     0.028 H 
ATOM     37  H14 non d ame     -32.941   4.362  23.990  0.00  0.00     0.028 H 
ATOM     38  H15 non d ame     -34.336   3.377  23.487  0.00  0.00     0.028 H 
ENDBRANCH  33  35
BRANCH  33  39
ATOM     39  C13 non d ame     -36.131   4.368  24.969  0.00  0.00    -0.071 C 
ATOM     40  H16 non d ame     -36.893   5.037  25.369  0.00  0.00     0.028 H 
ATOM     41  H17 non d ame     -36.525   3.851  24.093  0.00  0.00     0.028 H 
ATOM     42  H18 non d ame     -35.854   3.636  25.727  0.00  0.00     0.028 H 
ENDBRANCH  33  39
ENDBRANCH   7  33
ENDBRANCH   4   7
ENDBRANCH   1   3
BRANCH   1  43
ATOM     43  C15 non d ame     -32.243  10.003  24.681  0.00  0.00     0.240 C 
ATOM     44  O5  non d ame     -31.823  10.942  24.085  0.00  0.00    -0.271 OA
ATOM     45  N6  non d ame     -32.973  10.206  25.965  0.00  0.00    -0.355 N 
ATOM     46  H46 non d ame     -33.338   9.416  26.477  0.00  0.00     0.162 HD
BRANCH  45  47
ATOM     47  C20 non d ame     -33.163  11.575  26.491  0.00  0.00     0.013 C 
ATOM     48  H30 non d ame     -33.212  12.257  25.643  0.00  0.00     0.072 H 
BRANCH  47  49
ATOM     49  C21 non d ame     -31.993  11.936  27.378  0.00  0.00    -0.038 C 
ATOM     50  H31 non d ame     -32.426  12.397  28.265  0.00  0.00     0.036 H 
ATOM     51  H32 non d ame     -31.401  11.025  27.470  0.00  0.00     0.036 H 
BRANCH  49  52
ATOM     52  C22 non d ame     -31.066  12.996  26.744  0.00  0.00     0.018 C 
ATOM     53  H33 non d ame     -30.218  13.090  27.422  0.00  0.00     0.048 H 
ATOM     54  H34 non d ame     -30.908  12.674  25.715  0.00  0.00     0.048 H 
BRANCH  52  55
ATOM     55  C23 non d ame     -31.702  14.412  26.656  0.00  0.00     0.259 C 
ATOM     56  O7  non d ame     -31.885  15.053  27.640  0.00  0.00    -0.265 OA
BRANCH  55  57
ATOM     57  O8  non d ame     -32.075  14.930  25.385  0.00  0.00    -0.317 OA
BRANCH  57  58
ATOM     58  C29 non d ame     -31.183  15.925  24.877  0.00  0.00     0.052 C 
ATOM     59  H47 non d ame     -31.775  16.836  24.789  0.00  0.00     0.082 H 
ATOM     60  H48 non d ame     -30.312  15.903  25.532  0.00  0.00     0.082 H 
BRANCH  58  61
ATOM     61  C35 non d ame     -30.738  15.489  23.456  0.00  0.00    -0.034 A 
ATOM     62  C30 non d ame     -30.007  14.318  23.283  0.00  0.00    -0.075 A 
ATOM     63  C31 non d ame     -29.608  13.926  22.006  0.00  0.00    -0.082 A 
ATOM     64  H49 non d ame     -29.747  13.707  24.148  0.00  0.00     0.084 H 
ATOM     65  C32 non d ame     -29.940  14.711  20.899  0.00  0.00    -0.083 A 
ATOM     66  H50 non d ame     -29.036  13.007  21.874  0.00  0.00     0.083 H 
ATOM     67  C33 non d ame     -30.666  15.881  21.077  0.00  0.00    -0.082 A 
ATOM     68  H51 non d ame     -29.632  14.412  19.897  0.00  0.00     0.083 H 
ATOM     69  C34 non d ame     -31.070  16.275  22.351  0.00  0.00    -0.075 A 
ATOM     70  H52 non d ame     -30.922  16.493  20.211  0.00  0.00     0.083 H 
ATOM     71  H53 non d ame     -31.641  17.195  22.482  0.00  0.00     0.084 H 
ENDBRANCH  58  61
ENDBRANCH  57  58
ENDBRANCH  55  57
ENDBRANCH  52  55
ENDBRANCH  49  52
ENDBRANCH  47  49
BRANCH  47  72
ATOM     72  C24 non d ame     -34.456  11.641  27.301  0.00  0.00    -0.039 C 
ATOM     73  H35 non d ame     -34.320  10.938  28.123  0.00  0.00     0.036 H 
ATOM     74  H36 non d ame     -34.613  12.700  27.511  0.00  0.00     0.036 H 
BRANCH  72  75
ATOM     75  C25 non d ame     -35.715  11.137  26.450  0.00  0.00    -0.001 C 
ATOM     76  C26 non d ame     -36.182  12.307  25.393  0.00  0.00    -0.035 C 
ATOM     77  C27 non d ame     -37.512  12.519  25.537  0.00  0.00     0.085 C 
ATOM     78  H38 non d ame     -35.740  13.262  25.674  0.00  0.00     0.036 H 
ATOM     79  H39 non d ame     -36.092  11.944  24.369  0.00  0.00     0.036 H 
ATOM     80  N5  non d ame     -37.932  11.838  26.817  0.00  0.00    -0.049 N 
ATOM     81  H40 non d ame     -37.624  13.597  25.655  0.00  0.00     0.075 H 
ATOM     82  H41 non d ame     -37.981  12.012  24.694  0.00  0.00     0.075 H 
ATOM     83  C28 non d ame     -36.715  10.855  27.216  0.00  0.00     0.193 C 
ATOM     84  H42 non d ame     -38.004  12.562  27.517  0.00  0.00     0.280 HD
ATOM     85  H43 non d ame     -38.739  11.274  26.588  0.00  0.00     0.280 HD
ATOM     86  H44 non d ame     -36.795   9.780  27.052  0.00  0.00     0.129 H 
ATOM     87  H37 non d ame     -35.566  10.135  26.046  0.00  0.00     0.046 H 
BRANCH  83  88
ATOM     88  O6  non d ame     -36.393  11.007  28.600  0.00  0.00    -0.369 OA
ATOM     89  H45 non d ame     -35.473  11.267  28.688  0.00  0.00     0.212 HD
ENDBRANCH  83  88
ENDBRANCH  72  75
ENDBRANCH  47  72
ENDBRANCH  45  47
ENDBRANCH   1  43
BRANCH   1  90
ATOM     90  C16 non d ame     -31.998   8.624  22.593  0.00  0.00    -0.035 C 
ATOM     91  H21 non d ame     -32.734   7.892  22.261  0.00  0.00     0.037 H 
ATOM     92  H22 non d ame     -32.123   9.676  22.338  0.00  0.00     0.037 H 
BRANCH  90  93
ATOM     93  C17 non d ame     -30.631   8.180  21.983  0.00  0.00    -0.059 C 
ATOM     94  H23 non d ame     -30.801   7.928  20.937  0.00  0.00     0.038 H 
BRANCH  93  95
ATOM     95  C18 non d ame     -29.566   9.323  22.030  0.00  0.00    -0.073 C 
ATOM     96  H24 non d ame     -29.823  10.089  21.299  0.00  0.00     0.028 H 
ATOM     97  H25 non d ame     -29.551   9.765  23.026  0.00  0.00     0.028 H 
ATOM     98  H26 non d ame     -28.583   8.914  21.799  0.00  0.00     0.028 H 
ENDBRANCH  93  95
BRANCH  93  99
ATOM     99  C19 non d ame     -30.106   6.920  22.676  0.00  0.00    -0.073 C 
ATOM    100  H27 non d ame     -30.735   6.690  23.537  0.00  0.00     0.028 H 
ATOM    101  H28 non d ame     -30.129   6.084  21.976  0.00  0.00     0.028 H 
ATOM    102  H29 non d ame     -29.082   7.086  23.007  0.00  0.00     0.028 H 
ENDBRANCH  93  99
ENDBRANCH  90  93
ENDBRANCH   1  90
TORSDOF 26
ENDMDL
MODEL 14
REMARK VINA RESULT:      -6.3      3.626      8.759
REMARK  26 active torsions:
REMARK  status: ('A' for Active; 'I' for Inactive)
REMARK    1  A    between atoms: C2_2  and  C3_3 
REMARK    2  A    between atoms: C4_6  and  C5_7 
REMARK       I    between atoms: C5_7  and  N2_9 
REMARK    3  A    between atoms: N2_9  and  C6_10 
REMARK    4  A    between atoms: C6_10  and  C7_11 
REMARK    5  A    between atoms: C6_10  and  C8_13 
REMARK       I    between atoms: C7_11  and  N3_14 
REMARK    6  A    between atoms: N3_14  and  C9_15 
REMARK    7  A    between atoms: C9_15  and  C10_16 
REMARK    8  A    between atoms: C9_15  and  C11_18 
REMARK       I    between atoms: C10_16  and  N4_21 
REMARK    9  A    between atoms: C11_18  and  C12_19 
REMARK   10  A    between atoms: C11_18  and  C13_20 
REMARK   11  A    between atoms: N4_21  and  C14_22 
REMARK   12  A    between atoms: C14_22  and  C15_23 
REMARK   13  A    between atoms: C14_22  and  C16_25 
REMARK       I    between atoms: C15_23  and  N6_40 
REMARK   14  A    between atoms: C16_25  and  C17_26 
REMARK   15  A    between atoms: C17_26  and  C18_27 
REMARK   16  A    between atoms: C17_26  and  C19_28 
REMARK   17  A    between atoms: C20_29  and  C21_30 
REMARK   18  A    between atoms: C20_29  and  C24_33 
REMARK   19  A    between atoms: C20_29  and  N6_40 
REMARK   20  A    between atoms: C21_30  and  C22_31 
REMARK   21  A    between atoms: C22_31  and  C23_32 
REMARK   22  A    between atoms: C23_32  and  O8_43 
REMARK   23  A    between atoms: C24_33  and  C25_34 
REMARK   24  A    between atoms: C28_38  and  O6_39 
REMARK   25  A    between atoms: C29_42  and  O8_43 
REMARK   26  A    between atoms: C29_42  and  C35_49 
ROOT
ATOM      1  C14 non d ame     -32.841  10.968  30.011  0.00  0.00     0.089 C 
ATOM      2  H20 non d ame     -31.839  10.575  29.837  0.00  0.00     0.087 H 
ENDROOT
BRANCH   1   3
ATOM      3  N4  non d ame     -33.493  11.093  28.716  0.00  0.00    -0.346 N 
ATOM      4  C10 non d ame     -32.673  11.286  27.465  0.00  0.00     0.241 C 
ATOM      5  O4  non d ame     -31.489  11.340  27.526  0.00  0.00    -0.271 OA
ATOM      6  H19 non d ame     -34.502  11.047  28.685  0.00  0.00     0.163 HD
BRANCH   4   7
ATOM      7  C9  non d ame     -33.364  11.408  26.133  0.00  0.00     0.092 C 
ATOM      8  H11 non d ame     -34.441  11.323  26.278  0.00  0.00     0.088 H 
BRANCH   7   9
ATOM      9  N3  non d ame     -33.107  12.736  25.568  0.00  0.00    -0.346 N 
ATOM     10  C7  non d ame     -33.576  13.915  26.255  0.00  0.00     0.240 C 
ATOM     11  O3  non d ame     -34.163  13.812  27.262  0.00  0.00    -0.271 OA
ATOM     12  H10 non d ame     -32.603  12.841  24.699  0.00  0.00     0.163 HD
BRANCH  10  13
ATOM     13  C6  non d ame     -33.301  15.325  25.648  0.00  0.00     0.086 C 
ATOM     14  H6  non d ame     -32.538  15.879  26.195  0.00  0.00     0.086 H 
BRANCH  13  15
ATOM     15  N2  non d ame     -32.807  15.166  24.290  0.00  0.00    -0.343 N 
ATOM     16  C5  non d ame     -31.414  15.503  23.986  0.00  0.00     0.273 C 
ATOM     17  O2  non d ame     -30.701  15.905  24.839  0.00  0.00    -0.266 OA
ATOM     18  H5  non d ame     -33.424  14.825  23.567  0.00  0.00     0.163 HD
BRANCH  16  19
ATOM     19  C4  non d ame     -30.878  15.338  22.555  0.00  0.00     0.154 A 
ATOM     20  C1  non d ame     -31.107  16.206  21.440  0.00  0.00    -0.017 A 
ATOM     21  C2  non d ame     -30.400  15.615  20.369  0.00  0.00     0.077 A 
ATOM     22  H1  non d ame     -31.695  17.123  21.413  0.00  0.00     0.091 H 
ATOM     23  O1  non d ame     -29.834  14.536  20.826  0.00  0.00    -0.218 OA
ATOM     24  N1  non d ame     -30.098  14.353  22.099  0.00  0.00    -0.123 NA
BRANCH  21  25
ATOM     25  C3  non d ame     -30.316  16.144  18.943  0.00  0.00    -0.029 C 
ATOM     26  H2  non d ame     -30.566  15.346  18.244  0.00  0.00     0.036 H 
ATOM     27  H3  non d ame     -31.019  16.968  18.820  0.00  0.00     0.036 H 
ATOM     28  H4  non d ame     -29.304  16.497  18.746  0.00  0.00     0.036 H 
ENDBRANCH  21  25
ENDBRANCH  16  19
ENDBRANCH  13  15
BRANCH  13  29
ATOM     29  C8  non d ame     -34.576  16.130  25.642  0.00  0.00    -0.049 C 
ATOM     30  H7  non d ame     -35.414  15.481  25.386  0.00  0.00     0.030 H 
ATOM     31  H8  non d ame     -34.739  16.560  26.629  0.00  0.00     0.030 H 
ATOM     32  H9  non d ame     -34.499  16.929  24.904  0.00  0.00     0.030 H 
ENDBRANCH  13  29
ENDBRANCH  10  13
ENDBRANCH   7   9
BRANCH   7  33
ATOM     33  C11 non d ame     -32.817  10.320  25.163  0.00  0.00    -0.033 C 
ATOM     34  H12 non d ame     -33.576  10.147  24.401  0.00  0.00     0.042 H 
BRANCH  33  35
ATOM     35  C12 non d ame     -31.525  10.806  24.435  0.00  0.00    -0.071 C 
ATOM     36  H13 non d ame     -31.314  10.149  23.591  0.00  0.00     0.028 H 
ATOM     37  H14 non d ame     -31.671  11.824  24.075  0.00  0.00     0.028 H 
ATOM     38  H15 non d ame     -30.686  10.784  25.130  0.00  0.00     0.028 H 
ENDBRANCH  33  35
BRANCH  33  39
ATOM     39  C13 non d ame     -32.571   8.973  25.915  0.00  0.00    -0.071 C 
ATOM     40  H16 non d ame     -33.341   8.834  26.673  0.00  0.00     0.028 H 
ATOM     41  H17 non d ame     -32.607   8.148  25.203  0.00  0.00     0.028 H 
ATOM     42  H18 non d ame     -31.591   8.997  26.392  0.00  0.00     0.028 H 
ENDBRANCH  33  39
ENDBRANCH   7  33
ENDBRANCH   4   7
ENDBRANCH   1   3
BRANCH   1  43
ATOM     43  C15 non d ame     -33.694  10.025  30.906  0.00  0.00     0.240 C 
ATOM     44  O5  non d ame     -34.059  10.395  31.975  0.00  0.00    -0.271 OA
ATOM     45  N6  non d ame     -34.064   8.663  30.427  0.00  0.00    -0.355 N 
ATOM     46  H46 non d ame     -33.764   8.339  29.519  0.00  0.00     0.162 HD
BRANCH  45  47
ATOM     47  C20 non d ame     -34.877   7.778  31.289  0.00  0.00     0.013 C 
ATOM     48  H30 non d ame     -34.402   7.736  32.269  0.00  0.00     0.072 H 
BRANCH  47  49
ATOM     49  C21 non d ame     -34.928   6.395  30.680  0.00  0.00    -0.038 C 
ATOM     50  H31 non d ame     -35.982   6.200  30.480  0.00  0.00     0.036 H 
ATOM     51  H32 non d ame     -34.211   6.409  29.859  0.00  0.00     0.036 H 
BRANCH  49  52
ATOM     52  C22 non d ame     -34.457   5.294  31.654  0.00  0.00     0.018 C 
ATOM     53  H33 non d ame     -34.010   5.817  32.498  0.00  0.00     0.048 H 
ATOM     54  H34 non d ame     -35.322   4.647  31.809  0.00  0.00     0.048 H 
BRANCH  52  55
ATOM     55  C23 non d ame     -33.340   4.382  31.075  0.00  0.00     0.259 C 
ATOM     56  O7  non d ame     -32.389   4.103  31.730  0.00  0.00    -0.265 OA
BRANCH  55  57
ATOM     57  O8  non d ame     -33.460   3.892  29.745  0.00  0.00    -0.317 OA
BRANCH  57  58
ATOM     58  C29 non d ame     -32.526   4.467  28.827  0.00  0.00     0.052 C 
ATOM     59  H47 non d ame     -32.258   5.437  29.247  0.00  0.00     0.082 H 
ATOM     60  H48 non d ame     -31.758   3.709  28.673  0.00  0.00     0.082 H 
BRANCH  58  61
ATOM     61  C35 non d ame     -33.260   4.701  27.480  0.00  0.00    -0.034 A 
ATOM     62  C30 non d ame     -34.595   4.334  27.341  0.00  0.00    -0.075 A 
ATOM     63  C31 non d ame     -35.255   4.544  26.131  0.00  0.00    -0.082 A 
ATOM     64  H49 non d ame     -35.124   3.882  28.180  0.00  0.00     0.084 H 
ATOM     65  C32 non d ame     -34.574   5.121  25.056  0.00  0.00    -0.083 A 
ATOM     66  H50 non d ame     -36.301   4.257  26.026  0.00  0.00     0.083 H 
ATOM     67  C33 non d ame     -33.241   5.482  25.198  0.00  0.00    -0.082 A 
ATOM     68  H51 non d ame     -35.082   5.289  24.106  0.00  0.00     0.083 H 
ATOM     69  C34 non d ame     -32.578   5.277  26.406  0.00  0.00    -0.075 A 
ATOM     70  H52 non d ame     -32.711   5.930  24.356  0.00  0.00     0.083 H 
ATOM     71  H53 non d ame     -31.531   5.564  26.510  0.00  0.00     0.084 H 
ENDBRANCH  58  61
ENDBRANCH  57  58
ENDBRANCH  55  57
ENDBRANCH  52  55
ENDBRANCH  49  52
ENDBRANCH  47  49
BRANCH  47  72
ATOM     72  C24 non d ame     -36.294   8.335  31.410  0.00  0.00    -0.039 C 
ATOM     73  H35 non d ame     -36.822   7.646  32.070  0.00  0.00     0.036 H 
ATOM     74  H36 non d ame     -36.172   9.379  31.699  0.00  0.00     0.036 H 
BRANCH  72  75
ATOM     75  C25 non d ame     -37.059   8.320  30.003  0.00  0.00    -0.001 C 
ATOM     76  C26 non d ame     -37.253   9.859  29.455  0.00  0.00    -0.035 C 
ATOM     77  C27 non d ame     -38.556  10.046  29.133  0.00  0.00     0.085 C 
ATOM     78  H38 non d ame     -37.086  10.568  30.265  0.00  0.00     0.036 H 
ATOM     79  H39 non d ame     -36.735   9.985  28.504  0.00  0.00     0.036 H 
ATOM     80  N5  non d ame     -39.326   8.887  29.718  0.00  0.00    -0.049 N 
ATOM     81  H40 non d ame     -38.852  10.963  29.643  0.00  0.00     0.075 H 
ATOM     82  H41 non d ame     -38.598   9.989  28.046  0.00  0.00     0.075 H 
ATOM     83  C28 non d ame     -38.224   7.774  30.109  0.00  0.00     0.193 C 
ATOM     84  H42 non d ame     -39.755   9.227  30.567  0.00  0.00     0.280 HD
ATOM     85  H43 non d ame     -39.901   8.522  28.972  0.00  0.00     0.280 HD
ATOM     86  H44 non d ame     -38.085   6.889  29.488  0.00  0.00     0.129 H 
ATOM     87  H37 non d ame     -36.632   7.597  29.308  0.00  0.00     0.046 H 
BRANCH  83  88
ATOM     88  O6  non d ame     -38.469   7.280  31.427  0.00  0.00    -0.369 OA
ATOM     89  H45 non d ame     -39.409   7.118  31.539  0.00  0.00     0.212 HD
ENDBRANCH  83  88
ENDBRANCH  72  75
ENDBRANCH  47  72
ENDBRANCH  45  47
ENDBRANCH   1  43
BRANCH   1  90
ATOM     90  C16 non d ame     -32.751  12.342  30.656  0.00  0.00    -0.035 C 
ATOM     91  H21 non d ame     -33.308  13.007  29.997  0.00  0.00     0.037 H 
ATOM     92  H22 non d ame     -33.075  12.199  31.687  0.00  0.00     0.037 H 
BRANCH  90  93
ATOM     93  C17 non d ame     -31.296  12.908  30.725  0.00  0.00    -0.059 C 
ATOM     94  H23 non d ame     -31.181  13.407  31.686  0.00  0.00     0.038 H 
BRANCH  93  95
ATOM     95  C18 non d ame     -30.220  11.778  30.642  0.00  0.00    -0.073 C 
ATOM     96  H24 non d ame     -30.074  11.490  29.602  0.00  0.00     0.028 H 
ATOM     97  H25 non d ame     -29.279  12.142  31.053  0.00  0.00     0.028 H 
ATOM     98  H26 non d ame     -30.556  10.914  31.215  0.00  0.00     0.028 H 
ENDBRANCH  93  95
BRANCH  93  99
ATOM     99  C19 non d ame     -31.067  13.959  29.636  0.00  0.00    -0.073 C 
ATOM    100  H27 non d ame     -31.757  13.785  28.810  0.00  0.00     0.028 H 
ATOM    101  H28 non d ame     -31.237  14.954  30.049  0.00  0.00     0.028 H 
ATOM    102  H29 non d ame     -30.041  13.888  29.273  0.00  0.00     0.028 H 
ENDBRANCH  93  99
ENDBRANCH  90  93
ENDBRANCH   1  90
TORSDOF 26
ENDMDL
MODEL 15
REMARK VINA RESULT:      -6.3      3.062      6.819
REMARK  26 active torsions:
REMARK  status: ('A' for Active; 'I' for Inactive)
REMARK    1  A    between atoms: C2_2  and  C3_3 
REMARK    2  A    between atoms: C4_6  and  C5_7 
REMARK       I    between atoms: C5_7  and  N2_9 
REMARK    3  A    between atoms: N2_9  and  C6_10 
REMARK    4  A    between atoms: C6_10  and  C7_11 
REMARK    5  A    between atoms: C6_10  and  C8_13 
REMARK       I    between atoms: C7_11  and  N3_14 
REMARK    6  A    between atoms: N3_14  and  C9_15 
REMARK    7  A    between atoms: C9_15  and  C10_16 
REMARK    8  A    between atoms: C9_15  and  C11_18 
REMARK       I    between atoms: C10_16  and  N4_21 
REMARK    9  A    between atoms: C11_18  and  C12_19 
REMARK   10  A    between atoms: C11_18  and  C13_20 
REMARK   11  A    between atoms: N4_21  and  C14_22 
REMARK   12  A    between atoms: C14_22  and  C15_23 
REMARK   13  A    between atoms: C14_22  and  C16_25 
REMARK       I    between atoms: C15_23  and  N6_40 
REMARK   14  A    between atoms: C16_25  and  C17_26 
REMARK   15  A    between atoms: C17_26  and  C18_27 
REMARK   16  A    between atoms: C17_26  and  C19_28 
REMARK   17  A    between atoms: C20_29  and  C21_30 
REMARK   18  A    between atoms: C20_29  and  C24_33 
REMARK   19  A    between atoms: C20_29  and  N6_40 
REMARK   20  A    between atoms: C21_30  and  C22_31 
REMARK   21  A    between atoms: C22_31  and  C23_32 
REMARK   22  A    between atoms: C23_32  and  O8_43 
REMARK   23  A    between atoms: C24_33  and  C25_34 
REMARK   24  A    between atoms: C28_38  and  O6_39 
REMARK   25  A    between atoms: C29_42  and  O8_43 
REMARK   26  A    between atoms: C29_42  and  C35_49 
ROOT
ATOM      1  C14 non d ame     -37.040  11.996  24.469  0.00  0.00     0.089 C 
ATOM      2  H20 non d ame     -37.693  11.860  25.331  0.00  0.00     0.087 H 
ENDROOT
BRANCH   1   3
ATOM      3  N4  non d ame     -36.161  13.119  24.757  0.00  0.00    -0.346 N 
ATOM      4  C10 non d ame     -36.156  13.750  26.127  0.00  0.00     0.241 C 
ATOM      5  O4  non d ame     -36.871  13.338  26.980  0.00  0.00    -0.271 OA
ATOM      6  H19 non d ame     -35.563  13.457  24.017  0.00  0.00     0.163 HD
BRANCH   4   7
ATOM      7  C9  non d ame     -35.236  14.908  26.410  0.00  0.00     0.092 C 
ATOM      8  H11 non d ame     -35.305  15.171  27.465  0.00  0.00     0.088 H 
BRANCH   7   9
ATOM      9  N3  non d ame     -33.850  14.506  26.153  0.00  0.00    -0.346 N 
ATOM     10  C7  non d ame     -32.900  14.460  27.238  0.00  0.00     0.240 C 
ATOM     11  O3  non d ame     -33.234  14.746  28.323  0.00  0.00    -0.271 OA
ATOM     12  H10 non d ame     -33.547  14.258  25.222  0.00  0.00     0.163 HD
BRANCH  10  13
ATOM     13  C6  non d ame     -31.426  14.034  26.958  0.00  0.00     0.086 C 
ATOM     14  H6  non d ame     -31.326  12.967  26.761  0.00  0.00     0.086 H 
BRANCH  13  15
ATOM     15  N2  non d ame     -30.954  14.723  25.769  0.00  0.00    -0.343 N 
ATOM     16  C5  non d ame     -30.994  14.038  24.475  0.00  0.00     0.273 C 
ATOM     17  O2  non d ame     -31.405  12.932  24.402  0.00  0.00    -0.266 OA
ATOM     18  H5  non d ame     -30.601  15.667  25.841  0.00  0.00     0.163 HD
BRANCH  16  19
ATOM     19  C4  non d ame     -30.499  14.755  23.209  0.00  0.00     0.154 A 
ATOM     20  C1  non d ame     -31.277  15.130  22.068  0.00  0.00    -0.017 A 
ATOM     21  C2  non d ame     -30.361  15.753  21.192  0.00  0.00     0.077 A 
ATOM     22  H1  non d ame     -32.343  14.974  21.901  0.00  0.00     0.091 H 
ATOM     23  O1  non d ame     -29.196  15.734  21.772  0.00  0.00    -0.218 OA
ATOM     24  N1  non d ame     -29.252  15.156  22.950  0.00  0.00    -0.123 NA
BRANCH  21  25
ATOM     25  C3  non d ame     -30.678  16.340  19.823  0.00  0.00    -0.029 C 
ATOM     26  H2  non d ame     -31.750  16.273  19.639  0.00  0.00     0.036 H 
ATOM     27  H3  non d ame     -30.369  17.384  19.795  0.00  0.00     0.036 H 
ATOM     28  H4  non d ame     -30.142  15.782  19.055  0.00  0.00     0.036 H 
ENDBRANCH  21  25
ENDBRANCH  16  19
ENDBRANCH  13  15
BRANCH  13  29
ATOM     29  C8  non d ame     -30.563  14.394  28.141  0.00  0.00    -0.049 C 
ATOM     30  H7  non d ame     -31.168  14.391  29.047  0.00  0.00     0.030 H 
ATOM     31  H8  non d ame     -29.759  13.665  28.239  0.00  0.00     0.030 H 
ATOM     32  H9  non d ame     -30.137  15.387  27.991  0.00  0.00     0.030 H 
ENDBRANCH  13  29
ENDBRANCH  10  13
ENDBRANCH   7   9
BRANCH   7  33
ATOM     33  C11 non d ame     -35.606  16.103  25.483  0.00  0.00    -0.033 C 
ATOM     34  H12 non d ame     -35.459  15.778  24.453  0.00  0.00     0.042 H 
BRANCH  33  35
ATOM     35  C12 non d ame     -37.107  16.500  25.639  0.00  0.00    -0.071 C 
ATOM     36  H13 non d ame     -37.213  17.205  26.463  0.00  0.00     0.028 H 
ATOM     37  H14 non d ame     -37.458  16.963  24.717  0.00  0.00     0.028 H 
ATOM     38  H15 non d ame     -37.699  15.608  25.847  0.00  0.00     0.028 H 
ENDBRANCH  33  35
BRANCH  33  39
ATOM     39  C13 non d ame     -34.667  17.325  25.743  0.00  0.00    -0.071 C 
ATOM     40  H16 non d ame     -35.185  18.054  26.366  0.00  0.00     0.028 H 
ATOM     41  H17 non d ame     -33.764  16.987  26.253  0.00  0.00     0.028 H 
ATOM     42  H18 non d ame     -34.397  17.784  24.793  0.00  0.00     0.028 H 
ENDBRANCH  33  39
ENDBRANCH   7  33
ENDBRANCH   4   7
ENDBRANCH   1   3
BRANCH   1  43
ATOM     43  C15 non d ame     -36.165  10.740  24.191  0.00  0.00     0.240 C 
ATOM     44  O5  non d ame     -36.350  10.097  23.209  0.00  0.00    -0.271 OA
ATOM     45  N6  non d ame     -35.090  10.346  25.145  0.00  0.00    -0.355 N 
ATOM     46  H46 non d ame     -34.920  10.887  25.980  0.00  0.00     0.162 HD
BRANCH  45  47
ATOM     47  C20 non d ame     -34.265   9.150  24.866  0.00  0.00     0.013 C 
ATOM     48  H30 non d ame     -34.539   8.777  23.879  0.00  0.00     0.072 H 
BRANCH  47  49
ATOM     49  C21 non d ame     -34.543   8.095  25.913  0.00  0.00    -0.038 C 
ATOM     50  H31 non d ame     -34.183   7.158  25.489  0.00  0.00     0.036 H 
ATOM     51  H32 non d ame     -34.111   8.478  26.837  0.00  0.00     0.036 H 
BRANCH  49  52
ATOM     52  C22 non d ame     -36.051   7.902  26.182  0.00  0.00     0.018 C 
ATOM     53  H33 non d ame     -36.561   8.615  25.535  0.00  0.00     0.048 H 
ATOM     54  H34 non d ame     -36.237   6.833  26.070  0.00  0.00     0.048 H 
BRANCH  52  55
ATOM     55  C23 non d ame     -36.479   8.260  27.633  0.00  0.00     0.259 C 
ATOM     56  O7  non d ame     -37.206   7.543  28.242  0.00  0.00    -0.265 OA
BRANCH  55  57
ATOM     57  O8  non d ame     -36.002   9.463  28.223  0.00  0.00    -0.317 OA
BRANCH  57  58
ATOM     58  C29 non d ame     -35.502   9.300  29.554  0.00  0.00     0.052 C 
ATOM     59  H47 non d ame     -36.253   9.743  30.207  0.00  0.00     0.082 H 
ATOM     60  H48 non d ame     -35.253   8.243  29.648  0.00  0.00     0.082 H 
BRANCH  58  61
ATOM     61  C35 non d ame     -34.194  10.126  29.678  0.00  0.00    -0.034 A 
ATOM     62  C30 non d ame     -33.387  10.325  28.562  0.00  0.00    -0.075 A 
ATOM     63  C31 non d ame     -32.211  11.066  28.673  0.00  0.00    -0.082 A 
ATOM     64  H49 non d ame     -33.675   9.899  27.600  0.00  0.00     0.084 H 
ATOM     65  C32 non d ame     -31.842  11.608  29.908  0.00  0.00    -0.083 A 
ATOM     66  H50 non d ame     -31.582  11.221  27.797  0.00  0.00     0.083 H 
ATOM     67  C33 non d ame     -32.649  11.404  31.019  0.00  0.00    -0.082 A 
ATOM     68  H51 non d ame     -30.925  12.189  30.004  0.00  0.00     0.083 H 
ATOM     69  C34 non d ame     -33.826  10.665  30.912  0.00  0.00    -0.075 A 
ATOM     70  H52 non d ame     -32.357  11.826  31.981  0.00  0.00     0.083 H 
ATOM     71  H53 non d ame     -34.454  10.510  31.789  0.00  0.00     0.084 H 
ENDBRANCH  58  61
ENDBRANCH  57  58
ENDBRANCH  55  57
ENDBRANCH  52  55
ENDBRANCH  49  52
ENDBRANCH  47  49
BRANCH  47  72
ATOM     72  C24 non d ame     -32.785   9.524  24.899  0.00  0.00    -0.039 C 
ATOM     73  H35 non d ame     -32.760  10.592  25.121  0.00  0.00     0.036 H 
ATOM     74  H36 non d ame     -32.322   8.815  25.585  0.00  0.00     0.036 H 
BRANCH  72  75
ATOM     75  C25 non d ame     -32.090   9.323  23.470  0.00  0.00    -0.001 C 
ATOM     76  C26 non d ame     -32.116   7.732  23.054  0.00  0.00    -0.035 C 
ATOM     77  C27 non d ame     -30.864   7.352  22.705  0.00  0.00     0.085 C 
ATOM     78  H38 non d ame     -32.334   7.121  23.929  0.00  0.00     0.036 H 
ATOM     79  H39 non d ame     -32.689   7.595  22.136  0.00  0.00     0.036 H 
ATOM     80  N5  non d ame     -29.928   8.447  23.158  0.00  0.00    -0.049 N 
ATOM     81  H40 non d ame     -30.662   6.450  23.283  0.00  0.00     0.075 H 
ATOM     82  H41 non d ame     -30.864   7.313  21.616  0.00  0.00     0.075 H 
ATOM     83  C28 non d ame     -30.862   9.721  23.487  0.00  0.00     0.193 C 
ATOM     84  H42 non d ame     -29.506   8.126  24.018  0.00  0.00     0.280 HD
ATOM     85  H43 non d ame     -29.346   8.671  22.363  0.00  0.00     0.280 HD
ATOM     86  H44 non d ame     -30.916  10.562  22.795  0.00  0.00     0.129 H 
ATOM     87  H37 non d ame     -32.454  10.036  22.730  0.00  0.00     0.046 H 
BRANCH  83  88
ATOM     88  O6  non d ame     -30.496  10.288  24.747  0.00  0.00    -0.369 OA
ATOM     89  H45 non d ame     -30.669   9.652  25.446  0.00  0.00     0.212 HD
ENDBRANCH  83  88
ENDBRANCH  72  75
ENDBRANCH  47  72
ENDBRANCH  45  47
ENDBRANCH   1  43
BRANCH   1  90
ATOM     90  C16 non d ame     -37.873  12.321  23.239  0.00  0.00    -0.035 C 
ATOM     91  H21 non d ame     -37.413  11.764  22.423  0.00  0.00     0.037 H 
ATOM     92  H22 non d ame     -38.904  12.114  23.526  0.00  0.00     0.037 H 
BRANCH  90  93
ATOM     93  C17 non d ame     -37.822  13.827  22.828  0.00  0.00    -0.059 C 
ATOM     94  H23 non d ame     -36.995  14.289  23.366  0.00  0.00     0.038 H 
BRANCH  93  95
ATOM     95  C18 non d ame     -37.560  14.012  21.299  0.00  0.00    -0.073 C 
ATOM     96  H24 non d ame     -36.594  13.578  21.041  0.00  0.00     0.028 H 
ATOM     97  H25 non d ame     -38.345  13.513  20.732  0.00  0.00     0.028 H 
ATOM     98  H26 non d ame     -37.556  15.075  21.057  0.00  0.00     0.028 H 
ENDBRANCH  93  95
BRANCH  93  99
ATOM     99  C19 non d ame     -39.102  14.553  23.252  0.00  0.00    -0.073 C 
ATOM    100  H27 non d ame     -39.893  13.823  23.426  0.00  0.00     0.028 H 
ATOM    101  H28 non d ame     -38.916  15.112  24.170  0.00  0.00     0.028 H 
ATOM    102  H29 non d ame     -39.408  15.241  22.464  0.00  0.00     0.028 H 
ENDBRANCH  93  99
ENDBRANCH  90  93
ENDBRANCH   1  90
TORSDOF 26
ENDMDL
MODEL 16
REMARK VINA RESULT:      -6.3      4.116      8.010
REMARK  26 active torsions:
REMARK  status: ('A' for Active; 'I' for Inactive)
REMARK    1  A    between atoms: C2_2  and  C3_3 
REMARK    2  A    between atoms: C4_6  and  C5_7 
REMARK       I    between atoms: C5_7  and  N2_9 
REMARK    3  A    between atoms: N2_9  and  C6_10 
REMARK    4  A    between atoms: C6_10  and  C7_11 
REMARK    5  A    between atoms: C6_10  and  C8_13 
REMARK       I    between atoms: C7_11  and  N3_14 
REMARK    6  A    between atoms: N3_14  and  C9_15 
REMARK    7  A    between atoms: C9_15  and  C10_16 
REMARK    8  A    between atoms: C9_15  and  C11_18 
REMARK       I    between atoms: C10_16  and  N4_21 
REMARK    9  A    between atoms: C11_18  and  C12_19 
REMARK   10  A    between atoms: C11_18  and  C13_20 
REMARK   11  A    between atoms: N4_21  and  C14_22 
REMARK   12  A    between atoms: C14_22  and  C15_23 
REMARK   13  A    between atoms: C14_22  and  C16_25 
REMARK       I    between atoms: C15_23  and  N6_40 
REMARK   14  A    between atoms: C16_25  and  C17_26 
REMARK   15  A    between atoms: C17_26  and  C18_27 
REMARK   16  A    between atoms: C17_26  and  C19_28 
REMARK   17  A    between atoms: C20_29  and  C21_30 
REMARK   18  A    between atoms: C20_29  and  C24_33 
REMARK   19  A    between atoms: C20_29  and  N6_40 
REMARK   20  A    between atoms: C21_30  and  C22_31 
REMARK   21  A    between atoms: C22_31  and  C23_32 
REMARK   22  A    between atoms: C23_32  and  O8_43 
REMARK   23  A    between atoms: C24_33  and  C25_34 
REMARK   24  A    between atoms: C28_38  and  O6_39 
REMARK   25  A    between atoms: C29_42  and  O8_43 
REMARK   26  A    between atoms: C29_42  and  C35_49 
ROOT
ATOM      1  C14 non d ame     -34.012   6.162  27.294  0.00  0.00     0.089 C 
ATOM      2  H20 non d ame     -33.454   5.672  28.092  0.00  0.00     0.087 H 
ENDROOT
BRANCH   1   3
ATOM      3  N4  non d ame     -35.299   6.564  27.842  0.00  0.00    -0.346 N 
ATOM      4  C10 non d ame     -35.776   6.001  29.157  0.00  0.00     0.241 C 
ATOM      5  O4  non d ame     -35.108   5.224  29.755  0.00  0.00    -0.271 OA
ATOM      6  H19 non d ame     -35.853   7.225  27.316  0.00  0.00     0.163 HD
BRANCH   4   7
ATOM      7  C9  non d ame     -37.109   6.432  29.711  0.00  0.00     0.092 C 
ATOM      8  H11 non d ame     -37.225   6.031  30.718  0.00  0.00     0.088 H 
BRANCH   7   9
ATOM      9  N3  non d ame     -37.142   7.894  29.822  0.00  0.00    -0.346 N 
ATOM     10  C7  non d ame     -36.404   8.555  30.870  0.00  0.00     0.240 C 
ATOM     11  O3  non d ame     -35.779   7.926  31.633  0.00  0.00    -0.271 OA
ATOM     12  H10 non d ame     -37.679   8.450  29.171  0.00  0.00     0.163 HD
BRANCH  10  13
ATOM     13  C6  non d ame     -36.446  10.110  30.984  0.00  0.00     0.086 C 
ATOM     14  H6  non d ame     -36.515  10.456  32.015  0.00  0.00     0.086 H 
BRANCH  13  15
ATOM     15  N2  non d ame     -35.212  10.656  30.444  0.00  0.00    -0.343 N 
ATOM     16  C5  non d ame     -34.158  11.100  31.359  0.00  0.00     0.273 C 
ATOM     17  O2  non d ame     -34.314  11.016  32.528  0.00  0.00    -0.266 OA
ATOM     18  H5  non d ame     -35.089  10.727  29.443  0.00  0.00     0.163 HD
BRANCH  16  19
ATOM     19  C4  non d ame     -32.848  11.678  30.802  0.00  0.00     0.154 A 
ATOM     20  C1  non d ame     -32.698  12.824  29.958  0.00  0.00    -0.017 A 
ATOM     21  C2  non d ame     -31.307  12.930  29.734  0.00  0.00     0.077 A 
ATOM     22  H1  non d ame     -33.479  13.478  29.569  0.00  0.00     0.091 H 
ATOM     23  O1  non d ame     -30.735  11.956  30.378  0.00  0.00    -0.218 OA
ATOM     24  N1  non d ame     -31.614  11.211  31.009  0.00  0.00    -0.123 NA
BRANCH  21  25
ATOM     25  C3  non d ame     -30.609  13.991  28.893  0.00  0.00    -0.029 C 
ATOM     26  H2  non d ame     -29.640  14.224  29.334  0.00  0.00     0.036 H 
ATOM     27  H3  non d ame     -30.465  13.615  27.880  0.00  0.00     0.036 H 
ATOM     28  H4  non d ame     -31.220  14.892  28.863  0.00  0.00     0.036 H 
ENDBRANCH  21  25
ENDBRANCH  16  19
ENDBRANCH  13  15
BRANCH  13  29
ATOM     29  C8  non d ame     -37.627  10.641  30.212  0.00  0.00    -0.049 C 
ATOM     30  H7  non d ame     -38.472  10.775  30.888  0.00  0.00     0.030 H 
ATOM     31  H8  non d ame     -37.367  11.599  29.763  0.00  0.00     0.030 H 
ATOM     32  H9  non d ame     -37.898   9.933  29.428  0.00  0.00     0.030 H 
ENDBRANCH  13  29
ENDBRANCH  10  13
ENDBRANCH   7   9
BRANCH   7  33
ATOM     33  C11 non d ame     -38.245   5.960  28.757  0.00  0.00    -0.033 C 
ATOM     34  H12 non d ame     -37.824   5.889  27.755  0.00  0.00     0.042 H 
BRANCH  33  35
ATOM     35  C12 non d ame     -38.764   4.542  29.150  0.00  0.00    -0.071 C 
ATOM     36  H13 non d ame     -39.586   4.639  29.858  0.00  0.00     0.028 H 
ATOM     37  H14 non d ame     -39.112   4.023  28.257  0.00  0.00     0.028 H 
ATOM     38  H15 non d ame     -37.955   3.973  29.609  0.00  0.00     0.028 H 
ENDBRANCH  33  35
BRANCH  33  39
ATOM     39  C13 non d ame     -39.411   7.000  28.720  0.00  0.00    -0.071 C 
ATOM     40  H16 non d ame     -39.287   7.715  29.533  0.00  0.00     0.028 H 
ATOM     41  H17 non d ame     -39.397   7.527  27.765  0.00  0.00     0.028 H 
ATOM     42  H18 non d ame     -40.363   6.481  28.833  0.00  0.00     0.028 H 
ENDBRANCH  33  39
ENDBRANCH   7  33
ENDBRANCH   4   7
ENDBRANCH   1   3
BRANCH   1  43
ATOM     43  C15 non d ame     -33.283   7.429  26.760  0.00  0.00     0.240 C 
ATOM     44  O5  non d ame     -32.143   7.616  27.039  0.00  0.00    -0.271 OA
ATOM     45  N6  non d ame     -34.005   8.404  25.894  0.00  0.00    -0.355 N 
ATOM     46  H46 non d ame     -34.972   8.253  25.647  0.00  0.00     0.162 HD
BRANCH  45  47
ATOM     47  C20 non d ame     -33.298   9.603  25.394  0.00  0.00     0.013 C 
ATOM     48  H30 non d ame     -32.383   9.719  25.974  0.00  0.00     0.072 H 
BRANCH  47  49
ATOM     49  C21 non d ame     -34.182  10.816  25.575  0.00  0.00    -0.038 C 
ATOM     50  H31 non d ame     -34.423  11.158  24.568  0.00  0.00     0.036 H 
ATOM     51  H32 non d ame     -34.978  10.502  26.250  0.00  0.00     0.036 H 
BRANCH  49  52
ATOM     52  C22 non d ame     -33.456  11.987  26.272  0.00  0.00     0.018 C 
ATOM     53  H33 non d ame     -33.947  12.893  25.916  0.00  0.00     0.048 H 
ATOM     54  H34 non d ame     -33.460  11.747  27.335  0.00  0.00     0.048 H 
BRANCH  52  55
ATOM     55  C23 non d ame     -31.961  12.125  25.870  0.00  0.00     0.259 C 
ATOM     56  O7  non d ame     -31.109  11.638  26.540  0.00  0.00    -0.265 OA
BRANCH  55  57
ATOM     57  O8  non d ame     -31.619  12.853  24.697  0.00  0.00    -0.317 OA
BRANCH  57  58
ATOM     58  C29 non d ame     -30.904  14.066  24.952  0.00  0.00     0.052 C 
ATOM     59  H47 non d ame     -31.604  14.717  25.474  0.00  0.00     0.082 H 
ATOM     60  H48 non d ame     -29.975  13.764  25.436  0.00  0.00     0.082 H 
BRANCH  58  61
ATOM     61  C35 non d ame     -30.556  14.713  23.585  0.00  0.00    -0.034 A 
ATOM     62  C30 non d ame     -31.380  15.699  23.051  0.00  0.00    -0.075 A 
ATOM     63  C31 non d ame     -31.068  16.280  21.823  0.00  0.00    -0.082 A 
ATOM     64  H49 non d ame     -32.270  16.015  23.594  0.00  0.00     0.084 H 
ATOM     65  C32 non d ame     -29.928  15.870  21.126  0.00  0.00    -0.083 A 
ATOM     66  H50 non d ame     -31.715  17.053  21.408  0.00  0.00     0.083 H 
ATOM     67  C33 non d ame     -29.110  14.884  21.661  0.00  0.00    -0.082 A 
ATOM     68  H51 non d ame     -29.676  16.320  20.166  0.00  0.00     0.083 H 
ATOM     69  C34 non d ame     -29.417  14.302  22.889  0.00  0.00    -0.075 A 
ATOM     70  H52 non d ame     -28.223  14.565  21.114  0.00  0.00     0.083 H 
ATOM     71  H53 non d ame     -28.770  13.528  23.304  0.00  0.00     0.084 H 
ENDBRANCH  58  61
ENDBRANCH  57  58
ENDBRANCH  55  57
ENDBRANCH  52  55
ENDBRANCH  49  52
ENDBRANCH  47  49
BRANCH  47  72
ATOM     72  C24 non d ame     -32.969   9.428  23.913  0.00  0.00    -0.039 C 
ATOM     73  H35 non d ame     -33.739   8.761  23.522  0.00  0.00     0.036 H 
ATOM     74  H36 non d ame     -32.871  10.438  23.516  0.00  0.00     0.036 H 
BRANCH  72  75
ATOM     75  C25 non d ame     -31.560   8.697  23.701  0.00  0.00    -0.001 C 
ATOM     76  C26 non d ame     -30.372   9.818  23.505  0.00  0.00    -0.035 C 
ATOM     77  C27 non d ame     -29.670   9.519  22.385  0.00  0.00     0.085 C 
ATOM     78  H38 non d ame     -30.810  10.790  23.279  0.00  0.00     0.036 H 
ATOM     79  H39 non d ame     -29.634   9.724  24.301  0.00  0.00     0.036 H 
ATOM     80  N5  non d ame     -30.471   8.490  21.624  0.00  0.00    -0.049 N 
ATOM     81  H40 non d ame     -29.636  10.442  21.808  0.00  0.00     0.075 H 
ATOM     82  H41 non d ame     -28.746   9.061  22.735  0.00  0.00     0.075 H 
ATOM     83  C28 non d ame     -31.580   7.936  22.658  0.00  0.00     0.193 C 
ATOM     84  H42 non d ame     -30.943   8.987  20.882  0.00  0.00     0.280 HD
ATOM     85  H43 non d ame     -29.833   7.739  21.402  0.00  0.00     0.280 HD
ATOM     86  H44 non d ame     -31.461   6.957  23.125  0.00  0.00     0.129 H 
ATOM     87  H37 non d ame     -31.385   7.914  24.439  0.00  0.00     0.046 H 
BRANCH  83  88
ATOM     88  O6  non d ame     -32.865   7.908  22.035  0.00  0.00    -0.369 OA
ATOM     89  H45 non d ame     -32.830   8.392  21.207  0.00  0.00     0.212 HD
ENDBRANCH  83  88
ENDBRANCH  72  75
ENDBRANCH  47  72
ENDBRANCH  45  47
ENDBRANCH   1  43
BRANCH   1  90
ATOM     90  C16 non d ame     -34.242   5.185  26.152  0.00  0.00    -0.035 C 
ATOM     91  H21 non d ame     -33.561   4.356  26.340  0.00  0.00     0.037 H 
ATOM     92  H22 non d ame     -35.318   5.013  26.132  0.00  0.00     0.037 H 
BRANCH  90  93
ATOM     93  C17 non d ame     -33.860   5.759  24.750  0.00  0.00    -0.059 C 
ATOM     94  H23 non d ame     -33.484   6.771  24.899  0.00  0.00     0.038 H 
BRANCH  93  95
ATOM     95  C18 non d ame     -32.732   4.927  24.060  0.00  0.00    -0.073 C 
ATOM     96  H24 non d ame     -33.123   3.951  23.775  0.00  0.00     0.028 H 
ATOM     97  H25 non d ame     -32.385   5.453  23.171  0.00  0.00     0.028 H 
ATOM     98  H26 non d ame     -31.901   4.798  24.753  0.00  0.00     0.028 H 
ENDBRANCH  93  95
BRANCH  93  99
ATOM     99  C19 non d ame     -35.092   5.860  23.847  0.00  0.00    -0.073 C 
ATOM    100  H27 non d ame     -35.935   5.357  24.324  0.00  0.00     0.028 H 
ATOM    101  H28 non d ame     -35.340   6.909  23.686  0.00  0.00     0.028 H 
ATOM    102  H29 non d ame     -34.881   5.386  22.889  0.00  0.00     0.028 H 
ENDBRANCH  93  99
ENDBRANCH  90  93
ENDBRANCH   1  90
TORSDOF 26
ENDMDL
MODEL 17
REMARK VINA RESULT:      -6.3      3.827      9.081
REMARK  26 active torsions:
REMARK  status: ('A' for Active; 'I' for Inactive)
REMARK    1  A    between atoms: C2_2  and  C3_3 
REMARK    2  A    between atoms: C4_6  and  C5_7 
REMARK       I    between atoms: C5_7  and  N2_9 
REMARK    3  A    between atoms: N2_9  and  C6_10 
REMARK    4  A    between atoms: C6_10  and  C7_11 
REMARK    5  A    between atoms: C6_10  and  C8_13 
REMARK       I    between atoms: C7_11  and  N3_14 
REMARK    6  A    between atoms: N3_14  and  C9_15 
REMARK    7  A    between atoms: C9_15  and  C10_16 
REMARK    8  A    between atoms: C9_15  and  C11_18 
REMARK       I    between atoms: C10_16  and  N4_21 
REMARK    9  A    between atoms: C11_18  and  C12_19 
REMARK   10  A    between atoms: C11_18  and  C13_20 
REMARK   11  A    between atoms: N4_21  and  C14_22 
REMARK   12  A    between atoms: C14_22  and  C15_23 
REMARK   13  A    between atoms: C14_22  and  C16_25 
REMARK       I    between atoms: C15_23  and  N6_40 
REMARK   14  A    between atoms: C16_25  and  C17_26 
REMARK   15  A    between atoms: C17_26  and  C18_27 
REMARK   16  A    between atoms: C17_26  and  C19_28 
REMARK   17  A    between atoms: C20_29  and  C21_30 
REMARK   18  A    between atoms: C20_29  and  C24_33 
REMARK   19  A    between atoms: C20_29  and  N6_40 
REMARK   20  A    between atoms: C21_30  and  C22_31 
REMARK   21  A    between atoms: C22_31  and  C23_32 
REMARK   22  A    between atoms: C23_32  and  O8_43 
REMARK   23  A    between atoms: C24_33  and  C25_34 
REMARK   24  A    between atoms: C28_38  and  O6_39 
REMARK   25  A    between atoms: C29_42  and  O8_43 
REMARK   26  A    between atoms: C29_42  and  C35_49 
ROOT
ATOM      1  C14 non d ame     -34.242   9.645  29.605  0.00  0.00     0.089 C 
ATOM      2  H20 non d ame     -35.218   9.875  29.177  0.00  0.00     0.087 H 
ENDROOT
BRANCH   1   3
ATOM      3  N4  non d ame     -34.075   8.200  29.566  0.00  0.00    -0.346 N 
ATOM      4  C10 non d ame     -35.109   7.332  28.893  0.00  0.00     0.241 C 
ATOM      5  O4  non d ame     -36.068   7.820  28.393  0.00  0.00    -0.271 OA
ATOM      6  H19 non d ame     -33.253   7.805  30.000  0.00  0.00     0.163 HD
BRANCH   4   7
ATOM      7  C9  non d ame     -34.918   5.839  28.857  0.00  0.00     0.092 C 
ATOM      8  H11 non d ame     -35.892   5.352  28.891  0.00  0.00     0.088 H 
BRANCH   7   9
ATOM      9  N3  non d ame     -34.286   5.457  27.590  0.00  0.00    -0.346 N 
ATOM     10  C7  non d ame     -35.086   4.911  26.522  0.00  0.00     0.240 C 
ATOM     11  O3  non d ame     -36.239   4.770  26.665  0.00  0.00    -0.271 OA
ATOM     12  H10 non d ame     -33.292   5.571  27.453  0.00  0.00     0.163 HD
BRANCH  10  13
ATOM     13  C6  non d ame     -34.408   4.504  25.177  0.00  0.00     0.086 C 
ATOM     14  H6  non d ame     -35.119   4.412  24.357  0.00  0.00     0.086 H 
BRANCH  13  15
ATOM     15  N2  non d ame     -33.463   5.540  24.793  0.00  0.00    -0.343 N 
ATOM     16  C5  non d ame     -33.819   6.484  23.732  0.00  0.00     0.273 C 
ATOM     17  O2  non d ame     -34.867   6.401  23.192  0.00  0.00    -0.266 OA
ATOM     18  H5  non d ame     -32.568   5.602  25.259  0.00  0.00     0.163 HD
BRANCH  16  19
ATOM     19  C4  non d ame     -32.830   7.585  23.318  0.00  0.00     0.154 A 
ATOM     20  C1  non d ame     -31.443   7.428  23.004  0.00  0.00    -0.017 A 
ATOM     21  C2  non d ame     -30.992   8.729  22.689  0.00  0.00     0.077 A 
ATOM     22  H1  non d ame     -30.854   6.510  23.005  0.00  0.00     0.091 H 
ATOM     23  O1  non d ame     -32.009   9.531  22.809  0.00  0.00    -0.218 OA
ATOM     24  N1  non d ame     -33.093   8.887  23.175  0.00  0.00    -0.123 NA
BRANCH  21  25
ATOM     25  C3  non d ame     -29.577   9.119  22.282  0.00  0.00    -0.029 C 
ATOM     26  H2  non d ame     -29.020   9.436  23.163  0.00  0.00     0.036 H 
ATOM     27  H3  non d ame     -29.080   8.261  21.828  0.00  0.00     0.036 H 
ATOM     28  H4  non d ame     -29.617   9.937  21.563  0.00  0.00     0.036 H 
ENDBRANCH  21  25
ENDBRANCH  16  19
ENDBRANCH  13  15
BRANCH  13  29
ATOM     29  C8  non d ame     -33.691   3.189  25.350  0.00  0.00    -0.049 C 
ATOM     30  H7  non d ame     -32.620   3.338  25.210  0.00  0.00     0.030 H 
ATOM     31  H8  non d ame     -33.876   2.804  26.353  0.00  0.00     0.030 H 
ATOM     32  H9  non d ame     -34.058   2.475  24.613  0.00  0.00     0.030 H 
ENDBRANCH  13  29
ENDBRANCH  10  13
ENDBRANCH   7   9
BRANCH   7  33
ATOM     33  C11 non d ame     -34.004   5.404  30.040  0.00  0.00    -0.033 C 
ATOM     34  H12 non d ame     -33.262   6.188  30.187  0.00  0.00     0.042 H 
BRANCH  33  35
ATOM     35  C12 non d ame     -34.816   5.273  31.366  0.00  0.00    -0.071 C 
ATOM     36  H13 non d ame     -35.146   6.260  31.690  0.00  0.00     0.028 H 
ATOM     37  H14 non d ame     -35.685   4.636  31.199  0.00  0.00     0.028 H 
ATOM     38  H15 non d ame     -34.185   4.831  32.137  0.00  0.00     0.028 H 
ENDBRANCH  33  35
BRANCH  33  39
ATOM     39  C13 non d ame     -33.248   4.079  29.705  0.00  0.00    -0.071 C 
ATOM     40  H16 non d ame     -32.778   4.166  28.725  0.00  0.00     0.028 H 
ATOM     41  H17 non d ame     -32.483   3.896  30.461  0.00  0.00     0.028 H 
ATOM     42  H18 non d ame     -33.955   3.249  29.698  0.00  0.00     0.028 H 
ENDBRANCH  33  39
ENDBRANCH   7  33
ENDBRANCH   4   7
ENDBRANCH   1   3
BRANCH   1  43
ATOM     43  C15 non d ame     -33.080  10.300  28.804  0.00  0.00     0.240 C 
ATOM     44  O5  non d ame     -32.480   9.659  28.004  0.00  0.00    -0.271 OA
ATOM     45  N6  non d ame     -32.722  11.729  29.030  0.00  0.00    -0.355 N 
ATOM     46  H46 non d ame     -33.228  12.285  29.704  0.00  0.00     0.162 HD
BRANCH  45  47
ATOM     47  C20 non d ame     -31.615  12.338  28.259  0.00  0.00     0.013 C 
ATOM     48  H30 non d ame     -30.821  11.596  28.171  0.00  0.00     0.072 H 
BRANCH  47  49
ATOM     49  C21 non d ame     -31.105  13.556  28.995  0.00  0.00    -0.038 C 
ATOM     50  H31 non d ame     -30.625  13.177  29.897  0.00  0.00     0.036 H 
ATOM     51  H32 non d ame     -30.525  14.119  28.264  0.00  0.00     0.036 H 
BRANCH  49  52
ATOM     52  C22 non d ame     -32.241  14.491  29.465  0.00  0.00     0.018 C 
ATOM     53  H33 non d ame     -32.986  14.474  28.671  0.00  0.00     0.048 H 
ATOM     54  H34 non d ame     -32.505  14.154  30.468  0.00  0.00     0.048 H 
BRANCH  52  55
ATOM     55  C23 non d ame     -31.808  15.976  29.613  0.00  0.00     0.259 C 
ATOM     56  O7  non d ame     -30.864  16.267  30.274  0.00  0.00    -0.265 OA
BRANCH  55  57
ATOM     57  O8  non d ame     -32.561  16.990  28.959  0.00  0.00    -0.317 OA
BRANCH  57  58
ATOM     58  C29 non d ame     -32.881  16.691  27.597  0.00  0.00     0.052 C 
ATOM     59  H47 non d ame     -31.952  16.823  27.041  0.00  0.00     0.082 H 
ATOM     60  H48 non d ame     -33.371  15.718  27.616  0.00  0.00     0.082 H 
BRANCH  58  61
ATOM     61  C35 non d ame     -33.905  17.747  27.102  0.00  0.00    -0.034 A 
ATOM     62  C30 non d ame     -34.961  18.130  27.922  0.00  0.00    -0.075 A 
ATOM     63  C31 non d ame     -35.882  19.078  27.477  0.00  0.00    -0.082 A 
ATOM     64  H49 non d ame     -35.069  17.687  28.912  0.00  0.00     0.084 H 
ATOM     65  C32 non d ame     -35.743  19.642  26.206  0.00  0.00    -0.083 A 
ATOM     66  H50 non d ame     -36.708  19.377  28.122  0.00  0.00     0.083 H 
ATOM     67  C33 non d ame     -34.689  19.254  25.390  0.00  0.00    -0.082 A 
ATOM     68  H51 non d ame     -36.458  20.385  25.851  0.00  0.00     0.083 H 
ATOM     69  C34 non d ame     -33.766  18.308  25.831  0.00  0.00    -0.075 A 
ATOM     70  H52 non d ame     -34.585  19.694  24.398  0.00  0.00     0.083 H 
ATOM     71  H53 non d ame     -32.940  18.010  25.185  0.00  0.00     0.084 H 
ENDBRANCH  58  61
ENDBRANCH  57  58
ENDBRANCH  55  57
ENDBRANCH  52  55
ENDBRANCH  49  52
ENDBRANCH  47  49
BRANCH  47  72
ATOM     72  C24 non d ame     -32.114  12.749  26.876  0.00  0.00    -0.039 C 
ATOM     73  H35 non d ame     -32.737  11.921  26.535  0.00  0.00     0.036 H 
ATOM     74  H36 non d ame     -32.549  13.740  27.007  0.00  0.00     0.036 H 
BRANCH  72  75
ATOM     75  C25 non d ame     -30.909  12.895  25.830  0.00  0.00    -0.001 C 
ATOM     76  C26 non d ame     -31.094  14.272  24.951  0.00  0.00    -0.035 C 
ATOM     77  C27 non d ame     -30.999  13.966  23.635  0.00  0.00     0.085 C 
ATOM     78  H38 non d ame     -32.113  14.646  25.053  0.00  0.00     0.036 H 
ATOM     79  H39 non d ame     -30.249  14.940  25.119  0.00  0.00     0.036 H 
ATOM     80  N5  non d ame     -31.093  12.463  23.524  0.00  0.00    -0.049 N 
ATOM     81  H40 non d ame     -31.877  14.413  23.169  0.00  0.00     0.075 H 
ATOM     82  H41 non d ame     -30.001  14.282  23.334  0.00  0.00     0.075 H 
ATOM     83  C28 non d ame     -30.871  11.892  25.017  0.00  0.00     0.193 C 
ATOM     84  H42 non d ame     -32.040  12.256  23.238  0.00  0.00     0.280 HD
ATOM     85  H43 non d ame     -30.316  12.171  22.948  0.00  0.00     0.280 HD
ATOM     86  H44 non d ame     -29.920  11.442  25.302  0.00  0.00     0.129 H 
ATOM     87  H37 non d ame     -29.937  12.730  26.295  0.00  0.00     0.046 H 
BRANCH  83  88
ATOM     88  O6  non d ame     -31.865  10.912  25.323  0.00  0.00    -0.369 OA
ATOM     89  H45 non d ame     -32.707  11.184  24.951  0.00  0.00     0.212 HD
ENDBRANCH  83  88
ENDBRANCH  72  75
ENDBRANCH  47  72
ENDBRANCH  45  47
ENDBRANCH   1  43
BRANCH   1  90
ATOM     90  C16 non d ame     -34.192  10.111  31.052  0.00  0.00    -0.035 C 
ATOM     91  H21 non d ame     -33.356   9.575  31.499  0.00  0.00     0.037 H 
ATOM     92  H22 non d ame     -34.178  11.200  31.004  0.00  0.00     0.037 H 
BRANCH  90  93
ATOM     93  C17 non d ame     -35.458   9.722  31.879  0.00  0.00    -0.059 C 
ATOM     94  H23 non d ame     -35.419   8.648  32.059  0.00  0.00     0.038 H 
BRANCH  93  95
ATOM     95  C18 non d ame     -35.497  10.437  33.268  0.00  0.00    -0.073 C 
ATOM     96  H24 non d ame     -36.506  10.803  33.460  0.00  0.00     0.028 H 
ATOM     97  H25 non d ame     -35.212   9.732  34.048  0.00  0.00     0.028 H 
ATOM     98  H26 non d ame     -34.801  11.276  33.264  0.00  0.00     0.028 H 
ENDBRANCH  93  95
BRANCH  93  99
ATOM     99  C19 non d ame     -36.737  10.003  31.086  0.00  0.00    -0.073 C 
ATOM    100  H27 non d ame     -36.591  10.884  30.459  0.00  0.00     0.028 H 
ATOM    101  H28 non d ame     -36.971   9.144  30.457  0.00  0.00     0.028 H 
ATOM    102  H29 non d ame     -37.561  10.182  31.776  0.00  0.00     0.028 H 
ENDBRANCH  93  99
ENDBRANCH  90  93
ENDBRANCH   1  90
TORSDOF 26
ENDMDL
MODEL 18
REMARK VINA RESULT:      -6.3      2.879      8.298
REMARK  26 active torsions:
REMARK  status: ('A' for Active; 'I' for Inactive)
REMARK    1  A    between atoms: C2_2  and  C3_3 
REMARK    2  A    between atoms: C4_6  and  C5_7 
REMARK       I    between atoms: C5_7  and  N2_9 
REMARK    3  A    between atoms: N2_9  and  C6_10 
REMARK    4  A    between atoms: C6_10  and  C7_11 
REMARK    5  A    between atoms: C6_10  and  C8_13 
REMARK       I    between atoms: C7_11  and  N3_14 
REMARK    6  A    between atoms: N3_14  and  C9_15 
REMARK    7  A    between atoms: C9_15  and  C10_16 
REMARK    8  A    between atoms: C9_15  and  C11_18 
REMARK       I    between atoms: C10_16  and  N4_21 
REMARK    9  A    between atoms: C11_18  and  C12_19 
REMARK   10  A    between atoms: C11_18  and  C13_20 
REMARK   11  A    between atoms: N4_21  and  C14_22 
REMARK   12  A    between atoms: C14_22  and  C15_23 
REMARK   13  A    between atoms: C14_22  and  C16_25 
REMARK       I    between atoms: C15_23  and  N6_40 
REMARK   14  A    between atoms: C16_25  and  C17_26 
REMARK   15  A    between atoms: C17_26  and  C18_27 
REMARK   16  A    between atoms: C17_26  and  C19_28 
REMARK   17  A    between atoms: C20_29  and  C21_30 
REMARK   18  A    between atoms: C20_29  and  C24_33 
REMARK   19  A    between atoms: C20_29  and  N6_40 
REMARK   20  A    between atoms: C21_30  and  C22_31 
REMARK   21  A    between atoms: C22_31  and  C23_32 
REMARK   22  A    between atoms: C23_32  and  O8_43 
REMARK   23  A    between atoms: C24_33  and  C25_34 
REMARK   24  A    between atoms: C28_38  and  O6_39 
REMARK   25  A    between atoms: C29_42  and  O8_43 
REMARK   26  A    between atoms: C29_42  and  C35_49 
ROOT
ATOM      1  C14 non d ame     -32.428   9.589  25.431  0.00  0.00     0.089 C 
ATOM      2  H20 non d ame     -31.588   8.898  25.366  0.00  0.00     0.087 H 
ENDROOT
BRANCH   1   3
ATOM      3  N4  non d ame     -33.442   8.969  26.272  0.00  0.00    -0.346 N 
ATOM      4  C10 non d ame     -33.087   7.799  27.155  0.00  0.00     0.241 C 
ATOM      5  O4  non d ame     -31.980   7.372  27.170  0.00  0.00    -0.271 OA
ATOM      6  H19 non d ame     -34.378   9.346  26.244  0.00  0.00     0.163 HD
BRANCH   4   7
ATOM      7  C9  non d ame     -34.147   7.174  28.023  0.00  0.00     0.092 C 
ATOM      8  H11 non d ame     -33.742   7.011  29.022  0.00  0.00     0.088 H 
BRANCH   7   9
ATOM      9  N3  non d ame     -35.277   8.098  28.159  0.00  0.00    -0.346 N 
ATOM     10  C7  non d ame     -35.432   8.874  29.365  0.00  0.00     0.240 C 
ATOM     11  O3  non d ame     -34.658   8.765  30.237  0.00  0.00    -0.271 OA
ATOM     12  H10 non d ame     -35.953   8.202  27.416  0.00  0.00     0.163 HD
BRANCH  10  13
ATOM     13  C6  non d ame     -36.638   9.854  29.505  0.00  0.00     0.086 C 
ATOM     14  H6  non d ame     -36.403  10.728  30.112  0.00  0.00     0.086 H 
BRANCH  13  15
ATOM     15  N2  non d ame     -36.999  10.348  28.187  0.00  0.00    -0.343 N 
ATOM     16  C5  non d ame     -36.026  11.124  27.415  0.00  0.00     0.273 C 
ATOM     17  O2  non d ame     -34.956  11.348  27.865  0.00  0.00    -0.266 OA
ATOM     18  H5  non d ame     -37.917  10.154  27.811  0.00  0.00     0.163 HD
BRANCH  16  19
ATOM     19  C4  non d ame     -36.394  11.651  26.019  0.00  0.00     0.154 A 
ATOM     20  C1  non d ame     -36.818  12.975  25.679  0.00  0.00    -0.017 A 
ATOM     21  C2  non d ame     -37.028  12.941  24.282  0.00  0.00     0.077 A 
ATOM     22  H1  non d ame     -36.952  13.829  26.343  0.00  0.00     0.091 H 
ATOM     23  O1  non d ame     -36.754  11.735  23.878  0.00  0.00    -0.218 OA
ATOM     24  N1  non d ame     -36.382  10.964  24.874  0.00  0.00    -0.123 NA
BRANCH  21  25
ATOM     25  C3  non d ame     -37.491  14.102  23.412  0.00  0.00    -0.029 C 
ATOM     26  H2  non d ame     -38.086  13.720  22.583  0.00  0.00     0.036 H 
ATOM     27  H3  non d ame     -38.095  14.784  24.008  0.00  0.00     0.036 H 
ATOM     28  H4  non d ame     -36.622  14.632  23.022  0.00  0.00     0.036 H 
ENDBRANCH  21  25
ENDBRANCH  16  19
ENDBRANCH  13  15
BRANCH  13  29
ATOM     29  C8  non d ame     -37.807   9.132  30.124  0.00  0.00    -0.049 C 
ATOM     30  H7  non d ame     -37.602   8.945  31.179  0.00  0.00     0.030 H 
ATOM     31  H8  non d ame     -38.703   9.745  30.032  0.00  0.00     0.030 H 
ATOM     32  H9  non d ame     -37.961   8.182  29.611  0.00  0.00     0.030 H 
ENDBRANCH  13  29
ENDBRANCH  10  13
ENDBRANCH   7   9
BRANCH   7  33
ATOM     33  C11 non d ame     -34.640   5.850  27.368  0.00  0.00    -0.033 C 
ATOM     34  H12 non d ame     -33.846   5.112  27.481  0.00  0.00     0.042 H 
BRANCH  33  35
ATOM     35  C12 non d ame     -35.904   5.293  28.093  0.00  0.00    -0.071 C 
ATOM     36  H13 non d ame     -36.527   6.123  28.426  0.00  0.00     0.028 H 
ATOM     37  H14 non d ame     -36.471   4.666  27.405  0.00  0.00     0.028 H 
ATOM     38  H15 non d ame     -35.597   4.702  28.956  0.00  0.00     0.028 H 
ENDBRANCH  33  35
BRANCH  33  39
ATOM     39  C13 non d ame     -34.903   6.046  25.841  0.00  0.00    -0.071 C 
ATOM     40  H16 non d ame     -35.975   6.140  25.666  0.00  0.00     0.028 H 
ATOM     41  H17 non d ame     -34.398   6.950  25.498  0.00  0.00     0.028 H 
ATOM     42  H18 non d ame     -34.518   5.187  25.292  0.00  0.00     0.028 H 
ENDBRANCH  33  39
ENDBRANCH   7  33
ENDBRANCH   4   7
ENDBRANCH   1   3
BRANCH   1  43
ATOM     43  C15 non d ame     -32.022  10.950  26.066  0.00  0.00     0.240 C 
ATOM     44  O5  non d ame     -31.076  11.008  26.782  0.00  0.00    -0.271 OA
ATOM     45  N6  non d ame     -32.808  12.182  25.773  0.00  0.00    -0.355 N 
ATOM     46  H46 non d ame     -33.611  12.145  25.162  0.00  0.00     0.162 HD
BRANCH  45  47
ATOM     47  C20 non d ame     -32.408  13.468  26.384  0.00  0.00     0.013 C 
ATOM     48  H30 non d ame     -32.238  13.297  27.446  0.00  0.00     0.072 H 
BRANCH  47  49
ATOM     49  C21 non d ame     -33.518  14.478  26.194  0.00  0.00    -0.038 C 
ATOM     50  H31 non d ame     -33.093  15.270  25.576  0.00  0.00     0.036 H 
ATOM     51  H32 non d ame     -34.376  13.908  25.837  0.00  0.00     0.036 H 
BRANCH  49  52
ATOM     52  C22 non d ame     -33.955  15.143  27.517  0.00  0.00     0.018 C 
ATOM     53  H33 non d ame     -34.918  15.609  27.309  0.00  0.00     0.048 H 
ATOM     54  H34 non d ame     -33.879  14.366  28.278  0.00  0.00     0.048 H 
BRANCH  52  55
ATOM     55  C23 non d ame     -33.016  16.290  27.982  0.00  0.00     0.259 C 
ATOM     56  O7  non d ame     -32.743  16.418  29.131  0.00  0.00    -0.265 OA
BRANCH  55  57
ATOM     57  O8  non d ame     -32.494  17.197  27.018  0.00  0.00    -0.317 OA
BRANCH  57  58
ATOM     58  C29 non d ame     -32.541  18.568  27.423  0.00  0.00     0.052 C 
ATOM     59  H47 non d ame     -32.481  18.556  28.512  0.00  0.00     0.082 H 
ATOM     60  H48 non d ame     -31.772  19.075  26.841  0.00  0.00     0.082 H 
BRANCH  58  61
ATOM     61  C35 non d ame     -33.924  19.142  27.014  0.00  0.00    -0.034 A 
ATOM     62  C30 non d ame     -34.648  19.921  27.910  0.00  0.00    -0.075 A 
ATOM     63  C31 non d ame     -35.890  20.436  27.543  0.00  0.00    -0.082 A 
ATOM     64  H49 non d ame     -34.242  20.128  28.901  0.00  0.00     0.084 H 
ATOM     65  C32 non d ame     -36.409  20.167  26.274  0.00  0.00    -0.083 A 
ATOM     66  H50 non d ame     -36.454  21.048  28.247  0.00  0.00     0.083 H 
ATOM     67  C33 non d ame     -35.685  19.386  25.384  0.00  0.00    -0.082 A 
ATOM     68  H51 non d ame     -37.379  20.566  25.978  0.00  0.00     0.083 H 
ATOM     69  C34 non d ame     -34.442  18.871  25.746  0.00  0.00    -0.075 A 
ATOM     70  H52 non d ame     -36.094  19.175  24.395  0.00  0.00     0.083 H 
ATOM     71  H53 non d ame     -33.878  18.259  25.041  0.00  0.00     0.084 H 
ENDBRANCH  58  61
ENDBRANCH  57  58
ENDBRANCH  55  57
ENDBRANCH  52  55
ENDBRANCH  49  52
ENDBRANCH  47  49
BRANCH  47  72
ATOM     72  C24 non d ame     -31.133  13.981  25.718  0.00  0.00    -0.039 C 
ATOM     73  H35 non d ame     -30.882  14.903  26.244  0.00  0.00     0.036 H 
ATOM     74  H36 non d ame     -30.440  13.140  25.732  0.00  0.00     0.036 H 
BRANCH  72  75
ATOM     75  C25 non d ame     -31.379  14.365  24.183  0.00  0.00    -0.001 C 
ATOM     76  C26 non d ame     -30.466  13.402  23.211  0.00  0.00    -0.035 C 
ATOM     77  C27 non d ame     -29.767  14.184  22.354  0.00  0.00     0.085 C 
ATOM     78  H38 non d ame     -29.690  12.910  23.797  0.00  0.00     0.036 H 
ATOM     79  H39 non d ame     -31.109  12.816  22.555  0.00  0.00     0.036 H 
ATOM     80  N5  non d ame     -29.869  15.601  22.865  0.00  0.00    -0.049 N 
ATOM     81  H40 non d ame     -28.733  13.851  22.433  0.00  0.00     0.075 H 
ATOM     82  H41 non d ame     -30.291  14.112  21.401  0.00  0.00     0.075 H 
ATOM     83  C28 non d ame     -31.063  15.596  23.952  0.00  0.00     0.193 C 
ATOM     84  H42 non d ame     -29.000  15.796  23.343  0.00  0.00     0.280 HD
ATOM     85  H43 non d ame     -30.152  16.169  22.079  0.00  0.00     0.280 HD
ATOM     86  H44 non d ame     -32.041  16.008  23.702  0.00  0.00     0.129 H 
ATOM     87  H37 non d ame     -32.439  14.449  23.942  0.00  0.00     0.046 H 
BRANCH  83  88
ATOM     88  O6  non d ame     -30.653  16.278  25.138  0.00  0.00    -0.369 OA
ATOM     89  H45 non d ame     -31.073  17.141  25.173  0.00  0.00     0.212 HD
ENDBRANCH  83  88
ENDBRANCH  72  75
ENDBRANCH  47  72
ENDBRANCH  45  47
ENDBRANCH   1  43
BRANCH   1  90
ATOM     90  C16 non d ame     -33.009   9.824  24.046  0.00  0.00    -0.035 C 
ATOM     91  H21 non d ame     -34.006   9.386  24.073  0.00  0.00     0.037 H 
ATOM     92  H22 non d ame     -32.888  10.891  23.860  0.00  0.00     0.037 H 
BRANCH  90  93
ATOM     93  C17 non d ame     -32.235   9.087  22.908  0.00  0.00    -0.059 C 
ATOM     94  H23 non d ame     -32.733   9.316  21.966  0.00  0.00     0.038 H 
BRANCH  93  95
ATOM     95  C18 non d ame     -30.753   9.571  22.794  0.00  0.00    -0.073 C 
ATOM     96  H24 non d ame     -30.084   8.716  22.887  0.00  0.00     0.028 H 
ATOM     97  H25 non d ame     -30.600  10.048  21.827  0.00  0.00     0.028 H 
ATOM     98  H26 non d ame     -30.543  10.285  23.589  0.00  0.00     0.028 H 
ENDBRANCH  93  95
BRANCH  93  99
ATOM     99  C19 non d ame     -32.298   7.569  23.098  0.00  0.00    -0.073 C 
ATOM    100  H27 non d ame     -32.843   7.340  24.014  0.00  0.00     0.028 H 
ATOM    101  H28 non d ame     -32.811   7.117  22.248  0.00  0.00     0.028 H 
ATOM    102  H29 non d ame     -31.287   7.168  23.166  0.00  0.00     0.028 H 
ENDBRANCH  93  99
ENDBRANCH  90  93
ENDBRANCH   1  90
TORSDOF 26
ENDMDL
MODEL 19
REMARK VINA RESULT:      -6.2      3.022      7.248
REMARK  26 active torsions:
REMARK  status: ('A' for Active; 'I' for Inactive)
REMARK    1  A    between atoms: C2_2  and  C3_3 
REMARK    2  A    between atoms: C4_6  and  C5_7 
REMARK       I    between atoms: C5_7  and  N2_9 
REMARK    3  A    between atoms: N2_9  and  C6_10 
REMARK    4  A    between atoms: C6_10  and  C7_11 
REMARK    5  A    between atoms: C6_10  and  C8_13 
REMARK       I    between atoms: C7_11  and  N3_14 
REMARK    6  A    between atoms: N3_14  and  C9_15 
REMARK    7  A    between atoms: C9_15  and  C10_16 
REMARK    8  A    between atoms: C9_15  and  C11_18 
REMARK       I    between atoms: C10_16  and  N4_21 
REMARK    9  A    between atoms: C11_18  and  C12_19 
REMARK   10  A    between atoms: C11_18  and  C13_20 
REMARK   11  A    between atoms: N4_21  and  C14_22 
REMARK   12  A    between atoms: C14_22  and  C15_23 
REMARK   13  A    between atoms: C14_22  and  C16_25 
REMARK       I    between atoms: C15_23  and  N6_40 
REMARK   14  A    between atoms: C16_25  and  C17_26 
REMARK   15  A    between atoms: C17_26  and  C18_27 
REMARK   16  A    between atoms: C17_26  and  C19_28 
REMARK   17  A    between atoms: C20_29  and  C21_30 
REMARK   18  A    between atoms: C20_29  and  C24_33 
REMARK   19  A    between atoms: C20_29  and  N6_40 
REMARK   20  A    between atoms: C21_30  and  C22_31 
REMARK   21  A    between atoms: C22_31  and  C23_32 
REMARK   22  A    between atoms: C23_32  and  O8_43 
REMARK   23  A    between atoms: C24_33  and  C25_34 
REMARK   24  A    between atoms: C28_38  and  O6_39 
REMARK   25  A    between atoms: C29_42  and  O8_43 
REMARK   26  A    between atoms: C29_42  and  C35_49 
ROOT
ATOM      1  C14 non d ame     -32.278  14.875  27.433  0.00  0.00     0.089 C 
ATOM      2  H20 non d ame     -31.279  15.236  27.678  0.00  0.00     0.087 H 
ENDROOT
BRANCH   1   3
ATOM      3  N4  non d ame     -33.170  16.025  27.423  0.00  0.00    -0.346 N 
ATOM      4  C10 non d ame     -32.831  17.244  26.603  0.00  0.00     0.241 C 
ATOM      5  O4  non d ame     -31.834  17.278  25.961  0.00  0.00    -0.271 OA
ATOM      6  H19 non d ame     -34.013  15.977  27.978  0.00  0.00     0.163 HD
BRANCH   4   7
ATOM      7  C9  non d ame     -33.769  18.423  26.599  0.00  0.00     0.092 C 
ATOM      8  H11 non d ame     -33.458  19.126  25.827  0.00  0.00     0.088 H 
BRANCH   7   9
ATOM      9  N3  non d ame     -35.121  17.971  26.256  0.00  0.00    -0.346 N 
ATOM     10  C7  non d ame     -35.908  18.714  25.302  0.00  0.00     0.240 C 
ATOM     11  O3  non d ame     -35.470  19.678  24.803  0.00  0.00    -0.271 OA
ATOM     12  H10 non d ame     -35.513  17.143  26.679  0.00  0.00     0.163 HD
BRANCH  10  13
ATOM     13  C6  non d ame     -37.347  18.231  24.943  0.00  0.00     0.086 C 
ATOM     14  H6  non d ame     -37.669  18.562  23.956  0.00  0.00     0.086 H 
BRANCH  13  15
ATOM     15  N2  non d ame     -37.364  16.778  24.920  0.00  0.00    -0.343 N 
ATOM     16  C5  non d ame     -37.830  16.081  23.719  0.00  0.00     0.273 C 
ATOM     17  O2  non d ame     -38.191  16.698  22.778  0.00  0.00    -0.266 OA
ATOM     18  H5  non d ame     -37.057  16.258  25.730  0.00  0.00     0.163 HD
BRANCH  16  19
ATOM     19  C4  non d ame     -37.852  14.545  23.680  0.00  0.00     0.154 A 
ATOM     20  C1  non d ame     -36.877  13.652  24.229  0.00  0.00    -0.017 A 
ATOM     21  C2  non d ame     -37.359  12.358  23.929  0.00  0.00     0.077 A 
ATOM     22  H1  non d ame     -35.961  13.904  24.764  0.00  0.00     0.091 H 
ATOM     23  O1  non d ame     -38.480  12.503  23.284  0.00  0.00    -0.218 OA
ATOM     24  N1  non d ame     -38.788  13.770  23.126  0.00  0.00    -0.123 NA
BRANCH  21  25
ATOM     25  C3  non d ame     -36.691  11.040  24.293  0.00  0.00    -0.029 C 
ATOM     26  H2  non d ame     -36.181  10.636  23.419  0.00  0.00     0.036 H 
ATOM     27  H3  non d ame     -35.966  11.208  25.090  0.00  0.00     0.036 H 
ATOM     28  H4  non d ame     -37.446  10.331  24.633  0.00  0.00     0.036 H 
ENDBRANCH  21  25
ENDBRANCH  16  19
ENDBRANCH  13  15
BRANCH  13  29
ATOM     29  C8  non d ame     -38.324  18.743  25.971  0.00  0.00    -0.049 C 
ATOM     30  H7  non d ame     -38.717  19.707  25.650  0.00  0.00     0.030 H 
ATOM     31  H8  non d ame     -39.144  18.033  26.078  0.00  0.00     0.030 H 
ATOM     32  H9  non d ame     -37.816  18.859  26.929  0.00  0.00     0.030 H 
ENDBRANCH  13  29
ENDBRANCH  10  13
ENDBRANCH   7   9
BRANCH   7  33
ATOM     33  C11 non d ame     -33.787  19.075  28.013  0.00  0.00    -0.033 C 
ATOM     34  H12 non d ame     -33.700  18.274  28.746  0.00  0.00     0.042 H 
BRANCH  33  35
ATOM     35  C12 non d ame     -32.568  20.029  28.214  0.00  0.00    -0.071 C 
ATOM     36  H13 non d ame     -31.929  19.640  29.006  0.00  0.00     0.028 H 
ATOM     37  H14 non d ame     -31.999  20.092  27.286  0.00  0.00     0.028 H 
ATOM     38  H15 non d ame     -32.924  21.021  28.490  0.00  0.00     0.028 H 
ENDBRANCH  33  35
BRANCH  33  39
ATOM     39  C13 non d ame     -35.136  19.820  28.268  0.00  0.00    -0.071 C 
ATOM     40  H16 non d ame     -35.795  19.682  27.411  0.00  0.00     0.028 H 
ATOM     41  H17 non d ame     -35.612  19.414  29.161  0.00  0.00     0.028 H 
ATOM     42  H18 non d ame     -34.943  20.883  28.412  0.00  0.00     0.028 H 
ENDBRANCH  33  39
ENDBRANCH   7  33
ENDBRANCH   4   7
ENDBRANCH   1   3
BRANCH   1  43
ATOM     43  C15 non d ame     -32.329  14.195  26.034  0.00  0.00     0.240 C 
ATOM     44  O5  non d ame     -33.318  14.267  25.379  0.00  0.00    -0.271 OA
ATOM     45  N6  non d ame     -31.142  13.463  25.509  0.00  0.00    -0.355 N 
ATOM     46  H46 non d ame     -30.295  13.400  26.054  0.00  0.00     0.162 HD
BRANCH  45  47
ATOM     47  C20 non d ame     -31.206  12.824  24.176  0.00  0.00     0.013 C 
ATOM     48  H30 non d ame     -32.239  12.871  23.831  0.00  0.00     0.072 H 
BRANCH  47  49
ATOM     49  C21 non d ame     -30.765  11.382  24.292  0.00  0.00    -0.038 C 
ATOM     50  H31 non d ame     -29.910  11.389  24.968  0.00  0.00     0.036 H 
ATOM     51  H32 non d ame     -31.662  10.820  24.553  0.00  0.00     0.036 H 
BRANCH  49  52
ATOM     52  C22 non d ame     -30.259  10.801  22.954  0.00  0.00     0.018 C 
ATOM     53  H33 non d ame     -30.692  11.430  22.177  0.00  0.00     0.048 H 
ATOM     54  H34 non d ame     -29.176  10.727  23.055  0.00  0.00     0.048 H 
BRANCH  52  55
ATOM     55  C23 non d ame     -30.762   9.359  22.667  0.00  0.00     0.259 C 
ATOM     56  O7  non d ame     -29.993   8.494  22.400  0.00  0.00    -0.265 OA
BRANCH  55  57
ATOM     57  O8  non d ame     -32.157   9.085  22.716  0.00  0.00    -0.317 OA
BRANCH  57  58
ATOM     58  C29 non d ame     -32.472   7.715  22.979  0.00  0.00     0.052 C 
ATOM     59  H47 non d ame     -33.469   7.557  22.566  0.00  0.00     0.082 H 
ATOM     60  H48 non d ame     -31.628   7.140  22.600  0.00  0.00     0.082 H 
BRANCH  58  61
ATOM     61  C35 non d ame     -32.543   7.527  24.518  0.00  0.00    -0.034 A 
ATOM     62  C30 non d ame     -32.121   6.333  25.094  0.00  0.00    -0.075 A 
ATOM     63  C31 non d ame     -32.184   6.164  26.476  0.00  0.00    -0.082 A 
ATOM     64  H49 non d ame     -31.741   5.530  24.463  0.00  0.00     0.084 H 
ATOM     65  C32 non d ame     -32.674   7.194  27.284  0.00  0.00    -0.083 A 
ATOM     66  H50 non d ame     -31.852   5.228  26.925  0.00  0.00     0.083 H 
ATOM     67  C33 non d ame     -33.097   8.383  26.704  0.00  0.00    -0.082 A 
ATOM     68  H51 non d ame     -32.727   7.070  28.365  0.00  0.00     0.083 H 
ATOM     69  C34 non d ame     -33.034   8.557  25.323  0.00  0.00    -0.075 A 
ATOM     70  H52 non d ame     -33.481   9.184  27.337  0.00  0.00     0.083 H 
ATOM     71  H53 non d ame     -33.367   9.494  24.876  0.00  0.00     0.084 H 
ENDBRANCH  58  61
ENDBRANCH  57  58
ENDBRANCH  55  57
ENDBRANCH  52  55
ENDBRANCH  49  52
ENDBRANCH  47  49
BRANCH  47  72
ATOM     72  C24 non d ame     -30.288  13.562  23.204  0.00  0.00    -0.039 C 
ATOM     73  H35 non d ame     -29.573  14.097  23.830  0.00  0.00     0.036 H 
ATOM     74  H36 non d ame     -29.938  12.804  22.504  0.00  0.00     0.036 H 
BRANCH  72  75
ATOM     75  C25 non d ame     -31.086  14.660  22.354  0.00  0.00    -0.001 C 
ATOM     76  C26 non d ame     -30.674  14.546  20.766  0.00  0.00    -0.035 C 
ATOM     77  C27 non d ame     -30.318  15.774  20.318  0.00  0.00     0.085 C 
ATOM     78  H38 non d ame     -29.762  13.961  20.658  0.00  0.00     0.036 H 
ATOM     79  H39 non d ame     -31.553  14.302  20.168  0.00  0.00     0.036 H 
ATOM     80  N5  non d ame     -30.134  16.651  21.533  0.00  0.00    -0.049 N 
ATOM     81  H40 non d ame     -29.353  15.637  19.829  0.00  0.00     0.075 H 
ATOM     82  H41 non d ame     -31.172  16.134  19.746  0.00  0.00     0.075 H 
ATOM     83  C28 non d ame     -30.814  15.855  22.762  0.00  0.00     0.193 C 
ATOM     84  H42 non d ame     -29.139  16.707  21.698  0.00  0.00     0.280 HD
ATOM     85  H43 non d ame     -30.666  17.492  21.361  0.00  0.00     0.280 HD
ATOM     86  H44 non d ame     -31.788  16.159  23.147  0.00  0.00     0.129 H 
ATOM     87  H37 non d ame     -32.150  14.673  22.591  0.00  0.00     0.046 H 
BRANCH  83  88
ATOM     88  O6  non d ame     -29.940  15.853  23.892  0.00  0.00    -0.369 OA
ATOM     89  H45 non d ame     -29.618  16.744  24.049  0.00  0.00     0.212 HD
ENDBRANCH  83  88
ENDBRANCH  72  75
ENDBRANCH  47  72
ENDBRANCH  45  47
ENDBRANCH   1  43
BRANCH   1  90
ATOM     90  C16 non d ame     -32.746  13.893  28.495  0.00  0.00    -0.035 C 
ATOM     91  H21 non d ame     -32.960  14.500  29.374  0.00  0.00     0.037 H 
ATOM     92  H22 non d ame     -33.541  13.315  28.024  0.00  0.00     0.037 H 
BRANCH  90  93
ATOM     93  C17 non d ame     -31.650  12.867  28.926  0.00  0.00    -0.059 C 
ATOM     94  H23 non d ame     -30.748  13.086  28.355  0.00  0.00     0.038 H 
BRANCH  93  95
ATOM     95  C18 non d ame     -31.294  12.986  30.443  0.00  0.00    -0.073 C 
ATOM     96  H24 non d ame     -30.829  12.061  30.781  0.00  0.00     0.028 H 
ATOM     97  H25 non d ame     -30.601  13.815  30.589  0.00  0.00     0.028 H 
ATOM     98  H26 non d ame     -32.203  13.167  31.016  0.00  0.00     0.028 H 
ENDBRANCH  93  95
BRANCH  93  99
ATOM     99  C19 non d ame     -32.073  11.437  28.577  0.00  0.00    -0.073 C 
ATOM    100  H27 non d ame     -32.286  11.372  27.510  0.00  0.00     0.028 H 
ATOM    101  H28 non d ame     -31.267  10.748  28.830  0.00  0.00     0.028 H 
ATOM    102  H29 non d ame     -32.966  11.174  29.143  0.00  0.00     0.028 H 
ENDBRANCH  93  99
ENDBRANCH  90  93
ENDBRANCH   1  90
TORSDOF 26
ENDMDL
MODEL 20
REMARK VINA RESULT:      -6.2      3.373      7.941
REMARK  26 active torsions:
REMARK  status: ('A' for Active; 'I' for Inactive)
REMARK    1  A    between atoms: C2_2  and  C3_3 
REMARK    2  A    between atoms: C4_6  and  C5_7 
REMARK       I    between atoms: C5_7  and  N2_9 
REMARK    3  A    between atoms: N2_9  and  C6_10 
REMARK    4  A    between atoms: C6_10  and  C7_11 
REMARK    5  A    between atoms: C6_10  and  C8_13 
REMARK       I    between atoms: C7_11  and  N3_14 
REMARK    6  A    between atoms: N3_14  and  C9_15 
REMARK    7  A    between atoms: C9_15  and  C10_16 
REMARK    8  A    between atoms: C9_15  and  C11_18 
REMARK       I    between atoms: C10_16  and  N4_21 
REMARK    9  A    between atoms: C11_18  and  C12_19 
REMARK   10  A    between atoms: C11_18  and  C13_20 
REMARK   11  A    between atoms: N4_21  and  C14_22 
REMARK   12  A    between atoms: C14_22  and  C15_23 
REMARK   13  A    between atoms: C14_22  and  C16_25 
REMARK       I    between atoms: C15_23  and  N6_40 
REMARK   14  A    between atoms: C16_25  and  C17_26 
REMARK   15  A    between atoms: C17_26  and  C18_27 
REMARK   16  A    between atoms: C17_26  and  C19_28 
REMARK   17  A    between atoms: C20_29  and  C21_30 
REMARK   18  A    between atoms: C20_29  and  C24_33 
REMARK   19  A    between atoms: C20_29  and  N6_40 
REMARK   20  A    between atoms: C21_30  and  C22_31 
REMARK   21  A    between atoms: C22_31  and  C23_32 
REMARK   22  A    between atoms: C23_32  and  O8_43 
REMARK   23  A    between atoms: C24_33  and  C25_34 
REMARK   24  A    between atoms: C28_38  and  O6_39 
REMARK   25  A    between atoms: C29_42  and  O8_43 
REMARK   26  A    between atoms: C29_42  and  C35_49 
ROOT
ATOM      1  C14 non d ame     -32.923  10.767  29.694  0.00  0.00     0.089 C 
ATOM      2  H20 non d ame     -31.896  10.405  29.644  0.00  0.00     0.087 H 
ENDROOT
BRANCH   1   3
ATOM      3  N4  non d ame     -33.497  10.645  28.363  0.00  0.00    -0.346 N 
ATOM      4  C10 non d ame     -32.603  10.598  27.149  0.00  0.00     0.241 C 
ATOM      5  O4  non d ame     -31.424  10.662  27.270  0.00  0.00    -0.271 OA
ATOM      6  H19 non d ame     -34.503  10.594  28.282  0.00  0.00     0.163 HD
BRANCH   4   7
ATOM      7  C9  non d ame     -33.214  10.466  25.779  0.00  0.00     0.092 C 
ATOM      8  H11 non d ame     -33.925   9.641  25.782  0.00  0.00     0.088 H 
BRANCH   7   9
ATOM      9  N3  non d ame     -33.964  11.684  25.459  0.00  0.00    -0.346 N 
ATOM     10  C7  non d ame     -35.363  11.777  25.794  0.00  0.00     0.240 C 
ATOM     11  O3  non d ame     -35.902  10.881  26.321  0.00  0.00    -0.271 OA
ATOM     12  H10 non d ame     -33.513  12.465  25.003  0.00  0.00     0.163 HD
BRANCH  10  13
ATOM     13  C6  non d ame     -36.157  13.075  25.448  0.00  0.00     0.086 C 
ATOM     14  H6  non d ame     -36.862  13.359  26.229  0.00  0.00     0.086 H 
BRANCH  13  15
ATOM     15  N2  non d ame     -35.221  14.179  25.312  0.00  0.00    -0.343 N 
ATOM     16  C5  non d ame     -35.198  15.234  26.327  0.00  0.00     0.273 C 
ATOM     17  O2  non d ame     -35.938  15.188  27.247  0.00  0.00    -0.266 OA
ATOM     18  H5  non d ame     -34.594  14.211  24.521  0.00  0.00     0.163 HD
BRANCH  16  19
ATOM     19  C4  non d ame     -34.212  16.406  26.196  0.00  0.00     0.154 A 
ATOM     20  C1  non d ame     -34.089  17.534  27.068  0.00  0.00    -0.017 A 
ATOM     21  C2  non d ame     -33.047  18.310  26.514  0.00  0.00     0.077 A 
ATOM     22  H1  non d ame     -34.667  17.755  27.966  0.00  0.00     0.091 H 
ATOM     23  O1  non d ame     -32.627  17.691  25.449  0.00  0.00    -0.218 OA
ATOM     24  N1  non d ame     -33.291  16.578  25.243  0.00  0.00    -0.123 NA
BRANCH  21  25
ATOM     25  C3  non d ame     -32.514  19.627  27.062  0.00  0.00    -0.029 C 
ATOM     26  H2  non d ame     -31.669  19.431  27.722  0.00  0.00     0.036 H 
ATOM     27  H3  non d ame     -32.190  20.260  26.236  0.00  0.00     0.036 H 
ATOM     28  H4  non d ame     -33.301  20.134  27.620  0.00  0.00     0.036 H 
ENDBRANCH  21  25
ENDBRANCH  16  19
ENDBRANCH  13  15
BRANCH  13  29
ATOM     29  C8  non d ame     -36.913  12.877  24.159  0.00  0.00    -0.049 C 
ATOM     30  H7  non d ame     -36.533  11.992  23.648  0.00  0.00     0.030 H 
ATOM     31  H8  non d ame     -37.972  12.744  24.375  0.00  0.00     0.030 H 
ATOM     32  H9  non d ame     -36.779  13.750  23.520  0.00  0.00     0.030 H 
ENDBRANCH  13  29
ENDBRANCH  10  13
ENDBRANCH   7   9
BRANCH   7  33
ATOM     33  C11 non d ame     -32.085  10.263  24.726  0.00  0.00    -0.033 C 
ATOM     34  H12 non d ame     -31.312   9.649  25.187  0.00  0.00     0.042 H 
BRANCH  33  35
ATOM     35  C12 non d ame     -32.609   9.495  23.472  0.00  0.00    -0.071 C 
ATOM     36  H13 non d ame     -31.878   8.743  23.175  0.00  0.00     0.028 H 
ATOM     37  H14 non d ame     -33.553   9.007  23.714  0.00  0.00     0.028 H 
ATOM     38  H15 non d ame     -32.762  10.197  22.653  0.00  0.00     0.028 H 
ENDBRANCH  33  35
BRANCH  33  39
ATOM     39  C13 non d ame     -31.442  11.629  24.324  0.00  0.00    -0.071 C 
ATOM     40  H16 non d ame     -30.356  11.540  24.345  0.00  0.00     0.028 H 
ATOM     41  H17 non d ame     -31.766  11.902  23.319  0.00  0.00     0.028 H 
ATOM     42  H18 non d ame     -31.758  12.400  25.028  0.00  0.00     0.028 H 
ENDBRANCH  33  39
ENDBRANCH   7  33
ENDBRANCH   4   7
ENDBRANCH   1   3
BRANCH   1  43
ATOM     43  C15 non d ame     -33.789   9.937  30.685  0.00  0.00     0.240 C 
ATOM     44  O5  non d ame     -33.985  10.345  31.784  0.00  0.00    -0.271 OA
ATOM     45  N6  non d ame     -34.383   8.638  30.260  0.00  0.00    -0.355 N 
ATOM     46  H46 non d ame     -34.228   8.283  29.327  0.00  0.00     0.162 HD
BRANCH  45  47
ATOM     47  C20 non d ame     -35.206   7.861  31.213  0.00  0.00     0.013 C 
ATOM     48  H30 non d ame     -35.036   8.267  32.210  0.00  0.00     0.072 H 
BRANCH  47  49
ATOM     49  C21 non d ame     -34.787   6.409  31.167  0.00  0.00    -0.038 C 
ATOM     50  H31 non d ame     -33.697   6.417  31.145  0.00  0.00     0.036 H 
ATOM     51  H32 non d ame     -35.313   5.926  31.991  0.00  0.00     0.036 H 
BRANCH  49  52
ATOM     52  C22 non d ame     -35.245   5.694  29.878  0.00  0.00     0.018 C 
ATOM     53  H33 non d ame     -35.569   4.702  30.189  0.00  0.00     0.048 H 
ATOM     54  H34 non d ame     -35.952   6.372  29.398  0.00  0.00     0.048 H 
BRANCH  52  55
ATOM     55  C23 non d ame     -34.103   5.468  28.848  0.00  0.00     0.259 C 
ATOM     56  O7  non d ame     -33.652   4.382  28.676  0.00  0.00    -0.265 OA
BRANCH  55  57
ATOM     57  O8  non d ame     -33.592   6.578  28.119  0.00  0.00    -0.317 OA
BRANCH  57  58
ATOM     58  C29 non d ame     -34.434   7.006  27.045  0.00  0.00     0.052 C 
ATOM     59  H47 non d ame     -35.365   6.452  27.161  0.00  0.00     0.082 H 
ATOM     60  H48 non d ame     -34.438   8.095  27.090  0.00  0.00     0.082 H 
BRANCH  58  61
ATOM     61  C35 non d ame     -33.767   6.573  25.712  0.00  0.00    -0.034 A 
ATOM     62  C30 non d ame     -34.548   6.346  24.584  0.00  0.00    -0.075 A 
ATOM     63  C31 non d ame     -33.950   5.956  23.387  0.00  0.00    -0.082 A 
ATOM     64  H49 non d ame     -35.630   6.472  24.637  0.00  0.00     0.084 H 
ATOM     65  C32 non d ame     -32.563   5.791  23.321  0.00  0.00    -0.083 A 
ATOM     66  H50 non d ame     -34.565   5.780  22.504  0.00  0.00     0.083 H 
ATOM     67  C33 non d ame     -31.788   6.016  24.451  0.00  0.00    -0.082 A 
ATOM     68  H51 non d ame     -32.087   5.488  22.389  0.00  0.00     0.083 H 
ATOM     69  C34 non d ame     -32.382   6.407  25.649  0.00  0.00    -0.075 A 
ATOM     70  H52 non d ame     -30.707   5.884  24.397  0.00  0.00     0.083 H 
ATOM     71  H53 non d ame     -31.766   6.583  26.531  0.00  0.00     0.084 H 
ENDBRANCH  58  61
ENDBRANCH  57  58
ENDBRANCH  55  57
ENDBRANCH  52  55
ENDBRANCH  49  52
ENDBRANCH  47  49
BRANCH  47  72
ATOM     72  C24 non d ame     -36.681   7.979  30.837  0.00  0.00    -0.039 C 
ATOM     73  H35 non d ame     -36.999   6.966  30.589  0.00  0.00     0.036 H 
ATOM     74  H36 non d ame     -37.151   8.510  31.665  0.00  0.00     0.036 H 
BRANCH  72  75
ATOM     75  C25 non d ame     -36.889   8.874  29.524  0.00  0.00    -0.001 C 
ATOM     76  C26 non d ame     -37.404  10.377  29.947  0.00  0.00    -0.035 C 
ATOM     77  C27 non d ame     -38.510  10.678  29.225  0.00  0.00     0.085 C 
ATOM     78  H38 non d ame     -37.764  10.373  30.975  0.00  0.00     0.036 H 
ATOM     79  H39 non d ame     -36.679  11.125  29.625  0.00  0.00     0.036 H 
ATOM     80  N5  non d ame     -38.986   9.394  28.590  0.00  0.00    -0.049 N 
ATOM     81  H40 non d ame     -39.251  11.010  29.953  0.00  0.00     0.075 H 
ATOM     82  H41 non d ame     -38.172  11.357  28.443  0.00  0.00     0.075 H 
ATOM     83  C28 non d ame     -37.764   8.348  28.734  0.00  0.00     0.193 C 
ATOM     84  H42 non d ame     -39.758   9.065  29.152  0.00  0.00     0.280 HD
ATOM     85  H43 non d ame     -39.125   9.594  27.610  0.00  0.00     0.280 HD
ATOM     86  H44 non d ame     -37.137   8.108  27.875  0.00  0.00     0.129 H 
ATOM     87  H37 non d ame     -36.038   8.814  28.845  0.00  0.00     0.046 H 
BRANCH  83  88
ATOM     88  O6  non d ame     -38.244   7.093  29.219  0.00  0.00    -0.369 OA
ATOM     89  H45 non d ame     -38.698   7.225  30.055  0.00  0.00     0.212 HD
ENDBRANCH  83  88
ENDBRANCH  72  75
ENDBRANCH  47  72
ENDBRANCH  45  47
ENDBRANCH   1  43
BRANCH   1  90
ATOM     90  C16 non d ame     -32.934  12.230  30.108  0.00  0.00    -0.035 C 
ATOM     91  H21 non d ame     -33.399  12.761  29.278  0.00  0.00     0.037 H 
ATOM     92  H22 non d ame     -33.396  12.248  31.095  0.00  0.00     0.037 H 
BRANCH  90  93
ATOM     93  C17 non d ame     -31.507  12.843  30.278  0.00  0.00    -0.059 C 
ATOM     94  H23 non d ame     -31.554  13.568  31.090  0.00  0.00     0.038 H 
BRANCH  93  95
ATOM     95  C18 non d ame     -30.444  11.765  30.662  0.00  0.00    -0.073 C 
ATOM     96  H24 non d ame     -30.082  11.955  31.672  0.00  0.00     0.028 H 
ATOM     97  H25 non d ame     -30.898  10.775  30.621  0.00  0.00     0.028 H 
ATOM     98  H26 non d ame     -29.610  11.811  29.962  0.00  0.00     0.028 H 
ENDBRANCH  93  95
BRANCH  93  99
ATOM     99  C19 non d ame     -31.084  13.600  29.016  0.00  0.00    -0.073 C 
ATOM    100  H27 non d ame     -31.755  14.445  28.857  0.00  0.00     0.028 H 
ATOM    101  H28 non d ame     -30.063  13.965  29.136  0.00  0.00     0.028 H 
ATOM    102  H29 non d ame     -31.131  12.931  28.158  0.00  0.00     0.028 H 
ENDBRANCH  93  99
ENDBRANCH  90  93
ENDBRANCH   1  90
TORSDOF 26
ENDMDL
