MODEL 1
REMARK VINA RESULT:      -6.3      0.000      0.000
REMARK  26 active torsions:
REMARK  status: ('A' for Active; 'I' for Inactive)
REMARK    1  A    between atoms: C2_2  and  C3_3 
REMARK    2  A    between atoms: C4_6  and  C5_7 
REMARK       I    between atoms: C5_7  and  N2_9 
REMARK    3  A    between atoms: N2_9  and  C6_10 
REMARK    4  A    between atoms: C6_10  and  C7_11 
REMARK    5  A    between atoms: C6_10  and  C8_13 
REMARK       I    between atoms: C7_11  and  N3_14 
REMARK    6  A    between atoms: N3_14  and  C9_15 
REMARK    7  A    between atoms: C9_15  and  C10_16 
REMARK    8  A    between atoms: C9_15  and  C11_18 
REMARK       I    between atoms: C10_16  and  N4_21 
REMARK    9  A    between atoms: C11_18  and  C12_19 
REMARK   10  A    between atoms: C11_18  and  C13_20 
REMARK   11  A    between atoms: N4_21  and  C14_22 
REMARK   12  A    between atoms: C14_22  and  C15_23 
REMARK   13  A    between atoms: C14_22  and  C16_25 
REMARK       I    between atoms: C15_23  and  N6_40 
REMARK   14  A    between atoms: C16_25  and  C17_26 
REMARK   15  A    between atoms: C17_26  and  C18_27 
REMARK   16  A    between atoms: C17_26  and  C19_28 
REMARK   17  A    between atoms: C20_29  and  C21_30 
REMARK   18  A    between atoms: C20_29  and  C24_33 
REMARK   19  A    between atoms: C20_29  and  N6_40 
REMARK   20  A    between atoms: C21_30  and  C22_31 
REMARK   21  A    between atoms: C22_31  and  C23_32 
REMARK   22  A    between atoms: C23_32  and  O8_43 
REMARK   23  A    between atoms: C24_33  and  C25_34 
REMARK   24  A    between atoms: C28_38  and  O6_39 
REMARK   25  A    between atoms: C29_42  and  O8_43 
REMARK   26  A    between atoms: C29_42  and  C35_49 
ROOT
ATOM      1  C14 non d ame     -31.038  13.682  24.818  0.00  0.00     0.089 C 
ATOM      2  H20 non d ame     -29.995  13.407  24.978  0.00  0.00     0.087 H 
ENDROOT
BRANCH   1   3
ATOM      3  N4  non d ame     -31.711  12.529  24.239  0.00  0.00    -0.346 N 
ATOM      4  C10 non d ame     -31.657  11.190  24.929  0.00  0.00     0.241 C 
ATOM      5  O4  non d ame     -31.063  11.064  25.949  0.00  0.00    -0.271 OA
ATOM      6  H19 non d ame     -32.209  12.657  23.369  0.00  0.00     0.163 HD
BRANCH   4   7
ATOM      7  C9  non d ame     -32.365  10.008  24.319  0.00  0.00     0.092 C 
ATOM      8  H11 non d ame     -32.679  10.263  23.307  0.00  0.00     0.088 H 
BRANCH   7   9
ATOM      9  N3  non d ame     -31.433   8.882  24.213  0.00  0.00    -0.346 N 
ATOM     10  C7  non d ame     -31.072   8.365  22.915  0.00  0.00     0.240 C 
ATOM     11  O3  non d ame     -31.523   8.843  21.947  0.00  0.00    -0.271 OA
ATOM     12  H10 non d ame     -31.036   8.458  25.039  0.00  0.00     0.163 HD
BRANCH  10  13
ATOM     13  C6  non d ame     -30.082   7.164  22.808  0.00  0.00     0.086 C 
ATOM     14  H6  non d ame     -30.037   6.572  23.723  0.00  0.00     0.086 H 
BRANCH  13  15
ATOM     15  N2  non d ame     -30.537   6.270  21.757  0.00  0.00    -0.343 N 
ATOM     16  C5  non d ame     -31.764   5.494  21.950  0.00  0.00     0.273 C 
ATOM     17  O2  non d ame     -32.375   5.593  22.957  0.00  0.00    -0.266 OA
ATOM     18  H5  non d ame     -30.007   6.189  20.901  0.00  0.00     0.163 HD
BRANCH  16  19
ATOM     19  C4  non d ame     -32.257   4.546  20.846  0.00  0.00     0.154 A 
ATOM     20  C1  non d ame     -32.732   3.206  21.006  0.00  0.00    -0.017 A 
ATOM     21  C2  non d ame     -33.060   2.778  19.700  0.00  0.00     0.077 A 
ATOM     22  H1  non d ame     -32.825   2.631  21.928  0.00  0.00     0.091 H 
ATOM     23  O1  non d ame     -32.801   3.765  18.893  0.00  0.00    -0.218 OA
ATOM     24  N1  non d ame     -32.331   4.808  19.538  0.00  0.00    -0.123 NA
BRANCH  21  25
ATOM     25  C3  non d ame     -33.615   1.415  19.310  0.00  0.00    -0.029 C 
ATOM     26  H2  non d ame     -33.936   0.883  20.205  0.00  0.00     0.036 H 
ATOM     27  H3  non d ame     -34.466   1.546  18.642  0.00  0.00     0.036 H 
ATOM     28  H4  non d ame     -32.841   0.839  18.803  0.00  0.00     0.036 H 
ENDBRANCH  21  25
ENDBRANCH  16  19
ENDBRANCH  13  15
BRANCH  13  29
ATOM     29  C8  non d ame     -28.700   7.675  22.490  0.00  0.00    -0.049 C 
ATOM     30  H7  non d ame     -28.173   7.899  23.418  0.00  0.00     0.030 H 
ATOM     31  H8  non d ame     -28.151   6.915  21.935  0.00  0.00     0.030 H 
ATOM     32  H9  non d ame     -28.777   8.580  21.888  0.00  0.00     0.030 H 
ENDBRANCH  13  29
ENDBRANCH  10  13
ENDBRANCH   7   9
BRANCH   7  33
ATOM     33  C11 non d ame     -33.566   9.601  25.221  0.00  0.00    -0.033 C 
ATOM     34  H12 non d ame     -33.159   9.207  26.152  0.00  0.00     0.042 H 
BRANCH  33  35
ATOM     35  C12 non d ame     -34.451  10.835  25.581  0.00  0.00    -0.071 C 
ATOM     36  H13 non d ame     -34.692  10.811  26.644  0.00  0.00     0.028 H 
ATOM     37  H14 non d ame     -33.908  11.751  25.351  0.00  0.00     0.028 H 
ATOM     38  H15 non d ame     -35.373  10.803  24.999  0.00  0.00     0.028 H 
ENDBRANCH  33  35
BRANCH  33  39
ATOM     39  C13 non d ame     -34.413   8.473  24.548  0.00  0.00    -0.071 C 
ATOM     40  H16 non d ame     -35.004   7.960  25.308  0.00  0.00     0.028 H 
ATOM     41  H17 non d ame     -35.079   8.913  23.805  0.00  0.00     0.028 H 
ATOM     42  H18 non d ame     -33.748   7.760  24.061  0.00  0.00     0.028 H 
ENDBRANCH  33  39
ENDBRANCH   7  33
ENDBRANCH   4   7
ENDBRANCH   1   3
BRANCH   1  43
ATOM     43  C15 non d ame     -31.756  14.061  26.145  0.00  0.00     0.240 C 
ATOM     44  O5  non d ame     -32.915  14.324  26.135  0.00  0.00    -0.271 OA
ATOM     45  N6  non d ame     -31.001  14.086  27.430  0.00  0.00    -0.355 N 
ATOM     46  H46 non d ame     -30.017  13.860  27.451  0.00  0.00     0.162 HD
BRANCH  45  47
ATOM     47  C20 non d ame     -31.698  14.447  28.683  0.00  0.00     0.013 C 
ATOM     48  H30 non d ame     -32.760  14.549  28.459  0.00  0.00     0.072 H 
BRANCH  47  49
ATOM     49  C21 non d ame     -31.151  15.758  29.200  0.00  0.00    -0.038 C 
ATOM     50  H31 non d ame     -30.739  15.537  30.185  0.00  0.00     0.036 H 
ATOM     51  H32 non d ame     -30.503  16.138  28.410  0.00  0.00     0.036 H 
BRANCH  49  52
ATOM     52  C22 non d ame     -32.249  16.822  29.414  0.00  0.00     0.018 C 
ATOM     53  H33 non d ame     -32.965  16.374  30.102  0.00  0.00     0.048 H 
ATOM     54  H34 non d ame     -31.724  17.736  29.693  0.00  0.00     0.048 H 
BRANCH  52  55
ATOM     55  C23 non d ame     -33.050  17.164  28.127  0.00  0.00     0.259 C 
ATOM     56  O7  non d ame     -32.483  17.464  27.126  0.00  0.00    -0.265 OA
BRANCH  55  57
ATOM     57  O8  non d ame     -34.471  17.128  28.160  0.00  0.00    -0.317 OA
BRANCH  57  58
ATOM     58  C29 non d ame     -35.086  17.203  26.871  0.00  0.00     0.052 C 
ATOM     59  H47 non d ame     -34.265  17.240  26.155  0.00  0.00     0.082 H 
ATOM     60  H48 non d ame     -35.802  16.382  26.837  0.00  0.00     0.082 H 
BRANCH  58  61
ATOM     61  C35 non d ame     -35.868  18.541  26.791  0.00  0.00    -0.034 A 
ATOM     62  C30 non d ame     -37.018  18.630  26.012  0.00  0.00    -0.075 A 
ATOM     63  C31 non d ame     -37.720  19.832  25.939  0.00  0.00    -0.082 A 
ATOM     64  H49 non d ame     -37.368  17.759  25.458  0.00  0.00     0.084 H 
ATOM     65  C32 non d ame     -37.268  20.949  26.648  0.00  0.00    -0.083 A 
ATOM     66  H50 non d ame     -38.621  19.899  25.329  0.00  0.00     0.083 H 
ATOM     67  C33 non d ame     -36.119  20.856  27.421  0.00  0.00    -0.082 A 
ATOM     68  H51 non d ame     -37.812  21.892  26.597  0.00  0.00     0.083 H 
ATOM     69  C34 non d ame     -35.415  19.656  27.498  0.00  0.00    -0.075 A 
ATOM     70  H52 non d ame     -35.767  21.729  27.971  0.00  0.00     0.083 H 
ATOM     71  H53 non d ame     -34.513  19.590  28.108  0.00  0.00     0.084 H 
ENDBRANCH  58  61
ENDBRANCH  57  58
ENDBRANCH  55  57
ENDBRANCH  52  55
ENDBRANCH  49  52
ENDBRANCH  47  49
BRANCH  47  72
ATOM     72  C24 non d ame     -31.479  13.355  29.728  0.00  0.00    -0.039 C 
ATOM     73  H35 non d ame     -30.403  13.335  29.906  0.00  0.00     0.036 H 
ATOM     74  H36 non d ame     -32.161  13.593  30.544  0.00  0.00     0.036 H 
BRANCH  72  75
ATOM     75  C25 non d ame     -31.893  11.911  29.172  0.00  0.00    -0.001 C 
ATOM     76  C26 non d ame     -33.475  11.915  28.725  0.00  0.00    -0.035 C 
ATOM     77  C27 non d ame     -34.099  10.867  29.313  0.00  0.00     0.085 C 
ATOM     78  H38 non d ame     -33.981  12.783  29.148  0.00  0.00     0.036 H 
ATOM     79  H39 non d ame     -33.563  11.699  27.660  0.00  0.00     0.036 H 
ATOM     80  N5  non d ame     -33.167  10.340  30.378  0.00  0.00    -0.049 N 
ATOM     81  H40 non d ame     -34.984  11.286  29.791  0.00  0.00     0.075 H 
ATOM     82  H41 non d ame     -34.206  10.115  28.532  0.00  0.00     0.075 H 
ATOM     83  C28 non d ame     -31.725  10.998  30.071  0.00  0.00     0.193 C 
ATOM     84  H42 non d ame     -33.504  10.701  31.258  0.00  0.00     0.280 HD
ATOM     85  H43 non d ame     -33.102   9.342  30.232  0.00  0.00     0.280 HD
ATOM     86  H44 non d ame     -30.934  10.408  29.608  0.00  0.00     0.129 H 
ATOM     87  H37 non d ame     -31.174  11.525  28.449  0.00  0.00     0.046 H 
BRANCH  83  88
ATOM     88  O6  non d ame     -31.157  11.523  31.272  0.00  0.00    -0.369 OA
ATOM     89  H45 non d ame     -31.746  11.345  32.009  0.00  0.00     0.212 HD
ENDBRANCH  83  88
ENDBRANCH  72  75
ENDBRANCH  47  72
ENDBRANCH  45  47
ENDBRANCH   1  43
BRANCH   1  90
ATOM     90  C16 non d ame     -31.120  14.846  23.843  0.00  0.00    -0.035 C 
ATOM     91  H21 non d ame     -31.922  14.588  23.152  0.00  0.00     0.037 H 
ATOM     92  H22 non d ame     -31.201  15.738  24.464  0.00  0.00     0.037 H 
BRANCH  90  93
ATOM     93  C17 non d ame     -29.834  15.028  22.975  0.00  0.00    -0.059 C 
ATOM     94  H23 non d ame     -29.151  15.674  23.527  0.00  0.00     0.038 H 
BRANCH  93  95
ATOM     95  C18 non d ame     -29.101  13.672  22.715  0.00  0.00    -0.073 C 
ATOM     96  H24 non d ame     -28.955  13.152  23.661  0.00  0.00     0.028 H 
ATOM     97  H25 non d ame     -29.705  13.055  22.051  0.00  0.00     0.028 H 
ATOM     98  H26 non d ame     -28.134  13.865  22.253  0.00  0.00     0.028 H 
ENDBRANCH  93  95
BRANCH  93  99
ATOM     99  C19 non d ame     -30.160  15.732  21.656  0.00  0.00    -0.073 C 
ATOM    100  H27 non d ame     -30.429  14.990  20.904  0.00  0.00     0.028 H 
ATOM    101  H28 non d ame     -30.995  16.417  21.805  0.00  0.00     0.028 H 
ATOM    102  H29 non d ame     -29.288  16.292  21.318  0.00  0.00     0.028 H 
ENDBRANCH  93  99
ENDBRANCH  90  93
ENDBRANCH   1  90
TORSDOF 26
ENDMDL
