MODEL 1
REMARK VINA RESULT:      -7.4      0.000      0.000
REMARK  26 active torsions:
REMARK  status: ('A' for Active; 'I' for Inactive)
REMARK    1  A    between atoms: C2_2  and  C3_3 
REMARK    2  A    between atoms: C4_6  and  C5_7 
REMARK       I    between atoms: C5_7  and  N2_9 
REMARK    3  A    between atoms: N2_9  and  C6_10 
REMARK    4  A    between atoms: C6_10  and  C7_11 
REMARK    5  A    between atoms: C6_10  and  C8_13 
REMARK       I    between atoms: C7_11  and  N3_14 
REMARK    6  A    between atoms: N3_14  and  C9_15 
REMARK    7  A    between atoms: C9_15  and  C10_16 
REMARK    8  A    between atoms: C9_15  and  C11_18 
REMARK       I    between atoms: C10_16  and  N4_21 
REMARK    9  A    between atoms: C11_18  and  C12_19 
REMARK   10  A    between atoms: C11_18  and  C13_20 
REMARK   11  A    between atoms: N4_21  and  C14_22 
REMARK   12  A    between atoms: C14_22  and  C15_23 
REMARK   13  A    between atoms: C14_22  and  C16_25 
REMARK       I    between atoms: C15_23  and  N6_40 
REMARK   14  A    between atoms: C16_25  and  C17_26 
REMARK   15  A    between atoms: C17_26  and  C18_27 
REMARK   16  A    between atoms: C17_26  and  C19_28 
REMARK   17  A    between atoms: C20_29  and  C21_30 
REMARK   18  A    between atoms: C20_29  and  C24_33 
REMARK   19  A    between atoms: C20_29  and  N6_40 
REMARK   20  A    between atoms: C21_30  and  C22_31 
REMARK   21  A    between atoms: C22_31  and  C23_32 
REMARK   22  A    between atoms: C23_32  and  O8_43 
REMARK   23  A    between atoms: C24_33  and  C25_34 
REMARK   24  A    between atoms: C28_38  and  O6_39 
REMARK   25  A    between atoms: C29_42  and  O8_43 
REMARK   26  A    between atoms: C29_42  and  C35_49 
ROOT
ATOM      1  C14 non d ame     -33.649   7.013  27.929  0.00  0.00     0.089 C 
ATOM      2  H20 non d ame     -33.073   6.626  28.770  0.00  0.00     0.087 H 
ENDROOT
BRANCH   1   3
ATOM      3  N4  non d ame     -34.186   8.307  28.323  0.00  0.00    -0.346 N 
ATOM      4  C10 non d ame     -34.791   8.496  29.691  0.00  0.00     0.241 C 
ATOM      5  O4  non d ame     -34.837   7.591  30.458  0.00  0.00    -0.271 OA
ATOM      6  H19 non d ame     -34.141   9.062  27.655  0.00  0.00     0.163 HD
BRANCH   4   7
ATOM      7  C9  non d ame     -35.339   9.843  30.083  0.00  0.00     0.092 C 
ATOM      8  H11 non d ame     -35.359   9.919  31.170  0.00  0.00     0.088 H 
BRANCH   7   9
ATOM      9  N3  non d ame     -34.446  10.896  29.591  0.00  0.00    -0.346 N 
ATOM     10  C7  non d ame     -33.247  11.225  30.322  0.00  0.00     0.240 C 
ATOM     11  O3  non d ame     -32.986  10.652  31.309  0.00  0.00    -0.271 OA
ATOM     12  H10 non d ame     -34.659  11.400  28.742  0.00  0.00     0.163 HD
BRANCH  10  13
ATOM     13  C6  non d ame     -32.302  12.349  29.795  0.00  0.00     0.086 C 
ATOM     14  H6  non d ame     -31.853  12.105  28.833  0.00  0.00     0.086 H 
BRANCH  13  15
ATOM     15  N2  non d ame     -33.078  13.562  29.596  0.00  0.00    -0.343 N 
ATOM     16  C5  non d ame     -32.613  14.566  28.636  0.00  0.00     0.273 C 
ATOM     17  O2  non d ame     -31.612  14.390  28.032  0.00  0.00    -0.266 OA
ATOM     18  H5  non d ame     -33.930  13.705  30.119  0.00  0.00     0.163 HD
BRANCH  16  19
ATOM     19  C4  non d ame     -33.423  15.853  28.415  0.00  0.00     0.154 A 
ATOM     20  C1  non d ame     -34.743  15.961  27.873  0.00  0.00    -0.017 A 
ATOM     21  C2  non d ame     -35.026  17.345  27.881  0.00  0.00     0.077 A 
ATOM     22  H1  non d ame     -35.395  15.159  27.528  0.00  0.00     0.091 H 
ATOM     23  O1  non d ame     -33.986  17.951  28.373  0.00  0.00    -0.218 OA
ATOM     24  N1  non d ame     -33.037  17.101  28.692  0.00  0.00    -0.123 NA
BRANCH  21  25
ATOM     25  C3  non d ame     -36.313  18.005  27.404  0.00  0.00    -0.029 C 
ATOM     26  H2  non d ame     -36.124  18.540  26.474  0.00  0.00     0.036 H 
ATOM     27  H3  non d ame     -37.072  17.241  27.233  0.00  0.00     0.036 H 
ATOM     28  H4  non d ame     -36.666  18.705  28.160  0.00  0.00     0.036 H 
ENDBRANCH  21  25
ENDBRANCH  16  19
ENDBRANCH  13  15
BRANCH  13  29
ATOM     29  C8  non d ame     -31.204  12.596  30.797  0.00  0.00    -0.049 C 
ATOM     30  H7  non d ame     -31.642  12.851  31.762  0.00  0.00     0.030 H 
ATOM     31  H8  non d ame     -30.597  11.697  30.901  0.00  0.00     0.030 H 
ATOM     32  H9  non d ame     -30.578  13.421  30.454  0.00  0.00     0.030 H 
ENDBRANCH  13  29
ENDBRANCH  10  13
ENDBRANCH   7   9
BRANCH   7  33
ATOM     33  C11 non d ame     -36.752  10.030  29.457  0.00  0.00    -0.033 C 
ATOM     34  H12 non d ame     -37.101   9.050  29.134  0.00  0.00     0.042 H 
BRANCH  33  35
ATOM     35  C12 non d ame     -37.772  10.569  30.508  0.00  0.00    -0.071 C 
ATOM     36  H13 non d ame     -37.289  11.323  31.129  0.00  0.00     0.028 H 
ATOM     37  H14 non d ame     -38.624  11.012  29.994  0.00  0.00     0.028 H 
ATOM     38  H15 non d ame     -38.114   9.747  31.137  0.00  0.00     0.028 H 
ENDBRANCH  33  35
BRANCH  33  39
ATOM     39  C13 non d ame     -36.689  10.958  28.201  0.00  0.00    -0.071 C 
ATOM     40  H16 non d ame     -36.291  10.398  27.355  0.00  0.00     0.028 H 
ATOM     41  H17 non d ame     -37.691  11.317  27.963  0.00  0.00     0.028 H 
ATOM     42  H18 non d ame     -36.040  11.809  28.410  0.00  0.00     0.028 H 
ENDBRANCH  33  39
ENDBRANCH   7  33
ENDBRANCH   4   7
ENDBRANCH   1   3
BRANCH   1  43
ATOM     43  C15 non d ame     -32.772   7.207  26.658  0.00  0.00     0.240 C 
ATOM     44  O5  non d ame     -31.809   6.531  26.496  0.00  0.00    -0.271 OA
ATOM     45  N6  non d ame     -33.141   8.229  25.637  0.00  0.00    -0.355 N 
ATOM     46  H46 non d ame     -33.961   8.806  25.762  0.00  0.00     0.162 HD
BRANCH  45  47
ATOM     47  C20 non d ame     -32.298   8.400  24.434  0.00  0.00     0.013 C 
ATOM     48  H30 non d ame     -31.264   8.206  24.720  0.00  0.00     0.072 H 
BRANCH  47  49
ATOM     49  C21 non d ame     -32.437   9.816  23.923  0.00  0.00    -0.038 C 
ATOM     50  H31 non d ame     -32.610   9.726  22.850  0.00  0.00     0.036 H 
ATOM     51  H32 non d ame     -33.189  10.285  24.558  0.00  0.00     0.036 H 
BRANCH  49  52
ATOM     52  C22 non d ame     -31.145  10.644  24.091  0.00  0.00     0.018 C 
ATOM     53  H33 non d ame     -30.337   9.918  24.169  0.00  0.00     0.048 H 
ATOM     54  H34 non d ame     -31.151  11.368  23.276  0.00  0.00     0.048 H 
BRANCH  52  55
ATOM     55  C23 non d ame     -31.101  11.476  25.403  0.00  0.00     0.259 C 
ATOM     56  O7  non d ame     -31.301  10.957  26.453  0.00  0.00    -0.265 OA
BRANCH  55  57
ATOM     57  O8  non d ame     -30.832  12.871  25.334  0.00  0.00    -0.317 OA
BRANCH  57  58
ATOM     58  C29 non d ame     -31.782  13.611  24.561  0.00  0.00     0.052 C 
ATOM     59  H47 non d ame     -32.441  12.867  24.114  0.00  0.00     0.082 H 
ATOM     60  H48 non d ame     -32.187  14.365  25.233  0.00  0.00     0.082 H 
BRANCH  58  61
ATOM     61  C35 non d ame     -31.012  14.333  23.422  0.00  0.00    -0.034 A 
ATOM     62  C30 non d ame     -29.774  13.853  23.005  0.00  0.00    -0.075 A 
ATOM     63  C31 non d ame     -29.083  14.501  21.983  0.00  0.00    -0.082 A 
ATOM     64  H49 non d ame     -29.345  12.970  23.479  0.00  0.00     0.084 H 
ATOM     65  C32 non d ame     -29.633  15.634  21.377  0.00  0.00    -0.083 A 
ATOM     66  H50 non d ame     -28.114  14.122  21.657  0.00  0.00     0.083 H 
ATOM     67  C33 non d ame     -30.867  16.111  21.799  0.00  0.00    -0.082 A 
ATOM     68  H51 non d ame     -29.099  16.147  20.576  0.00  0.00     0.083 H 
ATOM     69  C34 non d ame     -31.562  15.465  22.820  0.00  0.00    -0.075 A 
ATOM     70  H52 non d ame     -31.293  16.997  21.327  0.00  0.00     0.083 H 
ATOM     71  H53 non d ame     -32.531  15.845  23.144  0.00  0.00     0.084 H 
ENDBRANCH  58  61
ENDBRANCH  57  58
ENDBRANCH  55  57
ENDBRANCH  52  55
ENDBRANCH  49  52
ENDBRANCH  47  49
BRANCH  47  72
ATOM     72  C24 non d ame     -32.740   7.419  23.350  0.00  0.00    -0.039 C 
ATOM     73  H35 non d ame     -31.933   6.690  23.273  0.00  0.00     0.036 H 
ATOM     74  H36 non d ame     -33.740   7.096  23.642  0.00  0.00     0.036 H 
BRANCH  72  75
ATOM     75  C25 non d ame     -32.872   8.133  21.923  0.00  0.00    -0.001 C 
ATOM     76  C26 non d ame     -34.439   8.110  21.427  0.00  0.00    -0.035 C 
ATOM     77  C27 non d ame     -34.492   7.609  20.169  0.00  0.00     0.085 C 
ATOM     78  H38 non d ame     -35.006   7.386  22.012  0.00  0.00     0.036 H 
ATOM     79  H39 non d ame     -34.811   9.128  21.311  0.00  0.00     0.036 H 
ATOM     80  N5  non d ame     -33.146   6.986  19.886  0.00  0.00    -0.049 N 
ATOM     81  H40 non d ame     -35.248   6.825  20.199  0.00  0.00     0.075 H 
ATOM     82  H41 non d ame     -34.628   8.472  19.518  0.00  0.00     0.075 H 
ATOM     83  C28 non d ame     -32.152   7.535  21.033  0.00  0.00     0.193 C 
ATOM     84  H42 non d ame     -33.260   5.991  20.008  0.00  0.00     0.280 HD
ATOM     85  H43 non d ame     -32.843   7.354  18.995  0.00  0.00     0.280 HD
ATOM     86  H44 non d ame     -31.425   8.316  20.808  0.00  0.00     0.129 H 
ATOM     87  H37 non d ame     -32.356   9.093  21.892  0.00  0.00     0.046 H 
BRANCH  83  88
ATOM     88  O6  non d ame     -31.396   6.457  21.587  0.00  0.00    -0.369 OA
ATOM     89  H45 non d ame     -31.676   6.301  22.493  0.00  0.00     0.212 HD
ENDBRANCH  83  88
ENDBRANCH  72  75
ENDBRANCH  47  72
ENDBRANCH  45  47
ENDBRANCH   1  43
BRANCH   1  90
ATOM     90  C16 non d ame     -34.800   6.070  27.617  0.00  0.00    -0.035 C 
ATOM     91  H21 non d ame     -35.643   6.442  28.197  0.00  0.00     0.037 H 
ATOM     92  H22 non d ame     -34.858   6.036  26.529  0.00  0.00     0.037 H 
BRANCH  90  93
ATOM     93  C17 non d ame     -34.553   4.602  28.092  0.00  0.00    -0.059 C 
ATOM     94  H23 non d ame     -35.498   4.215  28.472  0.00  0.00     0.038 H 
BRANCH  93  95
ATOM     95  C18 non d ame     -34.093   3.674  26.923  0.00  0.00    -0.073 C 
ATOM     96  H24 non d ame     -33.127   4.011  26.548  0.00  0.00     0.028 H 
ATOM     97  H25 non d ame     -34.004   2.650  27.286  0.00  0.00     0.028 H 
ATOM     98  H26 non d ame     -34.828   3.712  26.118  0.00  0.00     0.028 H 
ENDBRANCH  93  95
BRANCH  93  99
ATOM     99  C19 non d ame     -33.547   4.562  29.246  0.00  0.00    -0.073 C 
ATOM    100  H27 non d ame     -34.004   4.988  30.140  0.00  0.00     0.028 H 
ATOM    101  H28 non d ame     -33.259   3.530  29.443  0.00  0.00     0.028 H 
ATOM    102  H29 non d ame     -32.664   5.141  28.978  0.00  0.00     0.028 H 
ENDBRANCH  93  99
ENDBRANCH  90  93
ENDBRANCH   1  90
TORSDOF 26
ENDMDL
MODEL 2
REMARK VINA RESULT:      -7.4      2.210      7.227
REMARK  26 active torsions:
REMARK  status: ('A' for Active; 'I' for Inactive)
REMARK    1  A    between atoms: C2_2  and  C3_3 
REMARK    2  A    between atoms: C4_6  and  C5_7 
REMARK       I    between atoms: C5_7  and  N2_9 
REMARK    3  A    between atoms: N2_9  and  C6_10 
REMARK    4  A    between atoms: C6_10  and  C7_11 
REMARK    5  A    between atoms: C6_10  and  C8_13 
REMARK       I    between atoms: C7_11  and  N3_14 
REMARK    6  A    between atoms: N3_14  and  C9_15 
REMARK    7  A    between atoms: C9_15  and  C10_16 
REMARK    8  A    between atoms: C9_15  and  C11_18 
REMARK       I    between atoms: C10_16  and  N4_21 
REMARK    9  A    between atoms: C11_18  and  C12_19 
REMARK   10  A    between atoms: C11_18  and  C13_20 
REMARK   11  A    between atoms: N4_21  and  C14_22 
REMARK   12  A    between atoms: C14_22  and  C15_23 
REMARK   13  A    between atoms: C14_22  and  C16_25 
REMARK       I    between atoms: C15_23  and  N6_40 
REMARK   14  A    between atoms: C16_25  and  C17_26 
REMARK   15  A    between atoms: C17_26  and  C18_27 
REMARK   16  A    between atoms: C17_26  and  C19_28 
REMARK   17  A    between atoms: C20_29  and  C21_30 
REMARK   18  A    between atoms: C20_29  and  C24_33 
REMARK   19  A    between atoms: C20_29  and  N6_40 
REMARK   20  A    between atoms: C21_30  and  C22_31 
REMARK   21  A    between atoms: C22_31  and  C23_32 
REMARK   22  A    between atoms: C23_32  and  O8_43 
REMARK   23  A    between atoms: C24_33  and  C25_34 
REMARK   24  A    between atoms: C28_38  and  O6_39 
REMARK   25  A    between atoms: C29_42  and  O8_43 
REMARK   26  A    between atoms: C29_42  and  C35_49 
ROOT
ATOM      1  C14 non d ame     -32.372   8.654  24.837  0.00  0.00     0.089 C 
ATOM      2  H20 non d ame     -31.314   8.485  24.630  0.00  0.00     0.087 H 
ENDROOT
BRANCH   1   3
ATOM      3  N4  non d ame     -32.959   7.371  25.195  0.00  0.00    -0.346 N 
ATOM      4  C10 non d ame     -32.267   6.086  24.820  0.00  0.00     0.241 C 
ATOM      5  O4  non d ame     -31.239   6.107  24.227  0.00  0.00    -0.271 OA
ATOM      6  H19 non d ame     -33.835   7.374  25.697  0.00  0.00     0.163 HD
BRANCH   4   7
ATOM      7  C9  non d ame     -32.887   4.767  25.203  0.00  0.00     0.092 C 
ATOM      8  H11 non d ame     -32.172   4.192  25.790  0.00  0.00     0.088 H 
BRANCH   7   9
ATOM      9  N3  non d ame     -34.056   5.005  26.055  0.00  0.00    -0.346 N 
ATOM     10  C7  non d ame     -34.073   4.511  27.409  0.00  0.00     0.240 C 
ATOM     11  O3  non d ame     -33.155   3.919  27.830  0.00  0.00    -0.271 OA
ATOM     12  H10 non d ame     -34.856   5.512  25.704  0.00  0.00     0.163 HD
BRANCH  10  13
ATOM     13  C6  non d ame     -35.322   4.764  28.310  0.00  0.00     0.086 C 
ATOM     14  H6  non d ame     -35.307   4.175  29.226  0.00  0.00     0.086 H 
BRANCH  13  15
ATOM     15  N2  non d ame     -35.337   6.160  28.714  0.00  0.00    -0.343 N 
ATOM     16  C5  non d ame     -35.380   6.499  30.137  0.00  0.00     0.273 C 
ATOM     17  O2  non d ame     -35.406   5.642  30.951  0.00  0.00    -0.266 OA
ATOM     18  H5  non d ame     -35.318   6.886  28.012  0.00  0.00     0.163 HD
BRANCH  16  19
ATOM     19  C4  non d ame     -35.396   7.972  30.578  0.00  0.00     0.154 A 
ATOM     20  C1  non d ame     -35.207   8.480  31.902  0.00  0.00    -0.017 A 
ATOM     21  C2  non d ame     -35.313   9.882  31.771  0.00  0.00     0.077 A 
ATOM     22  H1  non d ame     -35.021   7.917  32.817  0.00  0.00     0.091 H 
ATOM     23  O1  non d ame     -35.535  10.139  30.516  0.00  0.00    -0.218 OA
ATOM     24  N1  non d ame     -35.588   9.039  29.799  0.00  0.00    -0.123 NA
BRANCH  21  25
ATOM     25  C3  non d ame     -35.188  10.905  32.893  0.00  0.00    -0.029 C 
ATOM     26  H2  non d ame     -34.140  11.170  33.028  0.00  0.00     0.036 H 
ATOM     27  H3  non d ame     -35.757  11.798  32.635  0.00  0.00     0.036 H 
ATOM     28  H4  non d ame     -35.579  10.480  33.817  0.00  0.00     0.036 H 
ENDBRANCH  21  25
ENDBRANCH  16  19
ENDBRANCH  13  15
BRANCH  13  29
ATOM     29  C8  non d ame     -36.575   4.435  27.540  0.00  0.00    -0.049 C 
ATOM     30  H7  non d ame     -36.949   3.460  27.852  0.00  0.00     0.030 H 
ATOM     31  H8  non d ame     -37.333   5.193  27.738  0.00  0.00     0.030 H 
ATOM     32  H9  non d ame     -36.351   4.414  26.473  0.00  0.00     0.030 H 
ENDBRANCH  13  29
ENDBRANCH  10  13
ENDBRANCH   7   9
BRANCH   7  33
ATOM     33  C11 non d ame     -33.331   4.011  23.916  0.00  0.00    -0.033 C 
ATOM     34  H12 non d ame     -32.460   3.925  23.268  0.00  0.00     0.042 H 
BRANCH  33  35
ATOM     35  C12 non d ame     -33.815   2.564  24.247  0.00  0.00    -0.071 C 
ATOM     36  H13 non d ame     -34.457   2.203  23.443  0.00  0.00     0.028 H 
ATOM     37  H14 non d ame     -32.952   1.906  24.346  0.00  0.00     0.028 H 
ATOM     38  H15 non d ame     -34.375   2.573  25.182  0.00  0.00     0.028 H 
ENDBRANCH  33  35
BRANCH  33  39
ATOM     39  C13 non d ame     -34.429   4.813  23.147  0.00  0.00    -0.071 C 
ATOM     40  H16 non d ame     -34.178   4.847  22.087  0.00  0.00     0.028 H 
ATOM     41  H17 non d ame     -35.395   4.325  23.277  0.00  0.00     0.028 H 
ATOM     42  H18 non d ame     -34.480   5.828  23.541  0.00  0.00     0.028 H 
ENDBRANCH  33  39
ENDBRANCH   7  33
ENDBRANCH   4   7
ENDBRANCH   1   3
BRANCH   1  43
ATOM     43  C15 non d ame     -32.587   9.644  26.018  0.00  0.00     0.240 C 
ATOM     44  O5  non d ame     -32.592   9.240  27.135  0.00  0.00    -0.271 OA
ATOM     45  N6  non d ame     -32.778  11.099  25.756  0.00  0.00    -0.355 N 
ATOM     46  H46 non d ame     -32.771  11.456  24.810  0.00  0.00     0.162 HD
BRANCH  45  47
ATOM     47  C20 non d ame     -32.981  12.027  26.889  0.00  0.00     0.013 C 
ATOM     48  H30 non d ame     -33.415  11.460  27.712  0.00  0.00     0.072 H 
BRANCH  47  49
ATOM     49  C21 non d ame     -33.922  13.133  26.468  0.00  0.00    -0.038 C 
ATOM     50  H31 non d ame     -33.668  13.357  25.432  0.00  0.00     0.036 H 
ATOM     51  H32 non d ame     -34.922  12.779  26.720  0.00  0.00     0.036 H 
BRANCH  49  52
ATOM     52  C22 non d ame     -33.707  14.439  27.264  0.00  0.00     0.018 C 
ATOM     53  H33 non d ame     -34.700  14.761  27.576  0.00  0.00     0.048 H 
ATOM     54  H34 non d ame     -32.948  14.207  28.011  0.00  0.00     0.048 H 
BRANCH  52  55
ATOM     55  C23 non d ame     -33.127  15.602  26.413  0.00  0.00     0.259 C 
ATOM     56  O7  non d ame     -33.078  16.705  26.853  0.00  0.00    -0.265 OA
BRANCH  55  57
ATOM     57  O8  non d ame     -32.668  15.338  25.092  0.00  0.00    -0.317 OA
BRANCH  57  58
ATOM     58  C29 non d ame     -31.400  15.927  24.788  0.00  0.00     0.052 C 
ATOM     59  H47 non d ame     -31.625  16.866  24.282  0.00  0.00     0.082 H 
ATOM     60  H48 non d ame     -30.844  15.931  25.724  0.00  0.00     0.082 H 
BRANCH  58  61
ATOM     61  C35 non d ame     -30.667  14.994  23.787  0.00  0.00    -0.034 A 
ATOM     62  C30 non d ame     -29.772  15.529  22.864  0.00  0.00    -0.075 A 
ATOM     63  C31 non d ame     -29.115  14.691  21.965  0.00  0.00    -0.082 A 
ATOM     64  H49 non d ame     -29.587  16.602  22.845  0.00  0.00     0.084 H 
ATOM     65  C32 non d ame     -29.355  13.314  21.989  0.00  0.00    -0.083 A 
ATOM     66  H50 non d ame     -28.412  15.112  21.244  0.00  0.00     0.083 H 
ATOM     67  C33 non d ame     -30.252  12.787  22.908  0.00  0.00    -0.082 A 
ATOM     68  H51 non d ame     -28.844  12.652  21.289  0.00  0.00     0.083 H 
ATOM     69  C34 non d ame     -30.910  13.620  23.810  0.00  0.00    -0.075 A 
ATOM     70  H52 non d ame     -30.439  11.712  22.923  0.00  0.00     0.083 H 
ATOM     71  H53 non d ame     -31.611  13.198  24.530  0.00  0.00     0.084 H 
ENDBRANCH  58  61
ENDBRANCH  57  58
ENDBRANCH  55  57
ENDBRANCH  52  55
ENDBRANCH  49  52
ENDBRANCH  47  49
BRANCH  47  72
ATOM     72  C24 non d ame     -31.641  12.629  27.309  0.00  0.00    -0.039 C 
ATOM     73  H35 non d ame     -30.925  12.294  26.558  0.00  0.00     0.036 H 
ATOM     74  H36 non d ame     -31.831  13.694  27.443  0.00  0.00     0.036 H 
BRANCH  72  75
ATOM     75  C25 non d ame     -31.150  12.055  28.721  0.00  0.00    -0.001 C 
ATOM     76  C26 non d ame     -32.443  11.548  29.600  0.00  0.00    -0.035 C 
ATOM     77  C27 non d ame     -32.382  12.110  30.831  0.00  0.00     0.085 C 
ATOM     78  H38 non d ame     -33.363  11.954  29.180  0.00  0.00     0.036 H 
ATOM     79  H39 non d ame     -32.362  10.480  29.804  0.00  0.00     0.036 H 
ATOM     80  N5  non d ame     -31.347  13.208  30.764  0.00  0.00    -0.049 N 
ATOM     81  H40 non d ame     -33.363  12.556  30.997  0.00  0.00     0.075 H 
ATOM     82  H41 non d ame     -32.022  11.323  31.493  0.00  0.00     0.075 H 
ATOM     83  C28 non d ame     -30.522  12.957  29.399  0.00  0.00     0.193 C 
ATOM     84  H42 non d ame     -31.856  14.075  30.677  0.00  0.00     0.280 HD
ATOM     85  H43 non d ame     -30.726  13.062  31.547  0.00  0.00     0.280 HD
ATOM     86  H44 non d ame     -29.522  12.522  29.429  0.00  0.00     0.129 H 
ATOM     87  H37 non d ame     -30.318  11.359  28.616  0.00  0.00     0.046 H 
BRANCH  83  88
ATOM     88  O6  non d ame     -30.385  14.180  28.674  0.00  0.00    -0.369 OA
ATOM     89  H45 non d ame     -31.182  14.706  28.779  0.00  0.00     0.212 HD
ENDBRANCH  83  88
ENDBRANCH  72  75
ENDBRANCH  47  72
ENDBRANCH  45  47
ENDBRANCH   1  43
BRANCH   1  90
ATOM     90  C16 non d ame     -33.061   9.186  23.591  0.00  0.00    -0.035 C 
ATOM     91  H21 non d ame     -33.927   8.542  23.444  0.00  0.00     0.037 H 
ATOM     92  H22 non d ame     -33.198  10.253  23.771  0.00  0.00     0.037 H 
BRANCH  90  93
ATOM     93  C17 non d ame     -32.196   9.064  22.296  0.00  0.00    -0.059 C 
ATOM     94  H23 non d ame     -32.409   9.933  21.674  0.00  0.00     0.038 H 
BRANCH  93  95
ATOM     95  C18 non d ame     -30.665   9.066  22.608  0.00  0.00    -0.073 C 
ATOM     96  H24 non d ame     -30.473   8.458  23.492  0.00  0.00     0.028 H 
ATOM     97  H25 non d ame     -30.122   8.651  21.759  0.00  0.00     0.028 H 
ATOM     98  H26 non d ame     -30.332  10.087  22.789  0.00  0.00     0.028 H 
ENDBRANCH  93  95
BRANCH  93  99
ATOM     99  C19 non d ame     -32.587   7.821  21.493  0.00  0.00    -0.073 C 
ATOM    100  H27 non d ame     -33.137   8.123  20.601  0.00  0.00     0.028 H 
ATOM    101  H28 non d ame     -31.687   7.280  21.197  0.00  0.00     0.028 H 
ATOM    102  H29 non d ame     -33.214   7.174  22.105  0.00  0.00     0.028 H 
ENDBRANCH  93  99
ENDBRANCH  90  93
ENDBRANCH   1  90
TORSDOF 26
ENDMDL
MODEL 3
REMARK VINA RESULT:      -7.3      2.507      9.423
REMARK  26 active torsions:
REMARK  status: ('A' for Active; 'I' for Inactive)
REMARK    1  A    between atoms: C2_2  and  C3_3 
REMARK    2  A    between atoms: C4_6  and  C5_7 
REMARK       I    between atoms: C5_7  and  N2_9 
REMARK    3  A    between atoms: N2_9  and  C6_10 
REMARK    4  A    between atoms: C6_10  and  C7_11 
REMARK    5  A    between atoms: C6_10  and  C8_13 
REMARK       I    between atoms: C7_11  and  N3_14 
REMARK    6  A    between atoms: N3_14  and  C9_15 
REMARK    7  A    between atoms: C9_15  and  C10_16 
REMARK    8  A    between atoms: C9_15  and  C11_18 
REMARK       I    between atoms: C10_16  and  N4_21 
REMARK    9  A    between atoms: C11_18  and  C12_19 
REMARK   10  A    between atoms: C11_18  and  C13_20 
REMARK   11  A    between atoms: N4_21  and  C14_22 
REMARK   12  A    between atoms: C14_22  and  C15_23 
REMARK   13  A    between atoms: C14_22  and  C16_25 
REMARK       I    between atoms: C15_23  and  N6_40 
REMARK   14  A    between atoms: C16_25  and  C17_26 
REMARK   15  A    between atoms: C17_26  and  C18_27 
REMARK   16  A    between atoms: C17_26  and  C19_28 
REMARK   17  A    between atoms: C20_29  and  C21_30 
REMARK   18  A    between atoms: C20_29  and  C24_33 
REMARK   19  A    between atoms: C20_29  and  N6_40 
REMARK   20  A    between atoms: C21_30  and  C22_31 
REMARK   21  A    between atoms: C22_31  and  C23_32 
REMARK   22  A    between atoms: C23_32  and  O8_43 
REMARK   23  A    between atoms: C24_33  and  C25_34 
REMARK   24  A    between atoms: C28_38  and  O6_39 
REMARK   25  A    between atoms: C29_42  and  O8_43 
REMARK   26  A    between atoms: C29_42  and  C35_49 
ROOT
ATOM      1  C14 non d ame     -31.228  14.386  24.179  0.00  0.00     0.089 C 
ATOM      2  H20 non d ame     -30.231  14.425  24.618  0.00  0.00     0.087 H 
ENDROOT
BRANCH   1   3
ATOM      3  N4  non d ame     -31.591  12.984  24.039  0.00  0.00    -0.346 N 
ATOM      4  C10 non d ame     -31.388  12.026  25.184  0.00  0.00     0.241 C 
ATOM      5  O4  non d ame     -30.929  12.405  26.211  0.00  0.00    -0.271 OA
ATOM      6  H19 non d ame     -31.977  12.680  23.156  0.00  0.00     0.163 HD
BRANCH   4   7
ATOM      7  C9  non d ame     -31.774  10.578  25.023  0.00  0.00     0.092 C 
ATOM      8  H11 non d ame     -31.180   9.971  25.705  0.00  0.00     0.088 H 
BRANCH   7   9
ATOM      9  N3  non d ame     -33.181  10.402  25.396  0.00  0.00    -0.346 N 
ATOM     10  C7  non d ame     -33.520   9.805  26.664  0.00  0.00     0.240 C 
ATOM     11  O3  non d ame     -32.674   9.460  27.396  0.00  0.00    -0.271 OA
ATOM     12  H10 non d ame     -33.921  10.694  24.774  0.00  0.00     0.163 HD
BRANCH  10  13
ATOM     13  C6  non d ame     -35.019   9.617  27.054  0.00  0.00     0.086 C 
ATOM     14  H6  non d ame     -35.578   9.045  26.315  0.00  0.00     0.086 H 
BRANCH  13  15
ATOM     15  N2  non d ame     -35.092   8.871  28.300  0.00  0.00    -0.343 N 
ATOM     16  C5  non d ame     -35.622   7.506  28.293  0.00  0.00     0.273 C 
ATOM     17  O2  non d ame     -35.990   7.018  27.282  0.00  0.00    -0.266 OA
ATOM     18  H5  non d ame     -34.778   9.297  29.160  0.00  0.00     0.163 HD
BRANCH  16  19
ATOM     19  C4  non d ame     -35.704   6.706  29.603  0.00  0.00     0.154 A 
ATOM     20  C1  non d ame     -34.626   6.072  30.298  0.00  0.00    -0.017 A 
ATOM     21  C2  non d ame     -35.225   5.478  31.431  0.00  0.00     0.077 A 
ATOM     22  H1  non d ame     -33.572   6.048  30.023  0.00  0.00     0.091 H 
ATOM     23  O1  non d ame     -36.496   5.746  31.384  0.00  0.00    -0.218 OA
ATOM     24  N1  non d ame     -36.800   6.462  30.326  0.00  0.00    -0.123 NA
BRANCH  21  25
ATOM     25  C3  non d ame     -34.512   4.674  32.510  0.00  0.00    -0.029 C 
ATOM     26  H2  non d ame     -35.249   4.213  33.167  0.00  0.00     0.036 H 
ATOM     27  H3  non d ame     -33.906   3.896  32.044  0.00  0.00     0.036 H 
ATOM     28  H4  non d ame     -33.869   5.334  33.092  0.00  0.00     0.036 H 
ENDBRANCH  21  25
ENDBRANCH  16  19
ENDBRANCH  13  15
BRANCH  13  29
ATOM     29  C8  non d ame     -35.670  10.966  27.221  0.00  0.00    -0.049 C 
ATOM     30  H7  non d ame     -34.941  11.677  27.606  0.00  0.00     0.030 H 
ATOM     31  H8  non d ame     -36.040  11.313  26.256  0.00  0.00     0.030 H 
ATOM     32  H9  non d ame     -36.503  10.883  27.921  0.00  0.00     0.030 H 
ENDBRANCH  13  29
ENDBRANCH  10  13
ENDBRANCH   7   9
BRANCH   7  33
ATOM     33  C11 non d ame     -31.577  10.153  23.538  0.00  0.00    -0.033 C 
ATOM     34  H12 non d ame     -31.934  10.970  22.911  0.00  0.00     0.042 H 
BRANCH  33  35
ATOM     35  C12 non d ame     -30.068   9.931  23.206  0.00  0.00    -0.071 C 
ATOM     36  H13 non d ame     -29.957   9.029  22.604  0.00  0.00     0.028 H 
ATOM     37  H14 non d ame     -29.689  10.788  22.649  0.00  0.00     0.028 H 
ATOM     38  H15 non d ame     -29.505   9.820  24.132  0.00  0.00     0.028 H 
ENDBRANCH  33  35
BRANCH  33  39
ATOM     39  C13 non d ame     -32.423   8.883  23.203  0.00  0.00    -0.071 C 
ATOM     40  H16 non d ame     -33.407   9.186  22.844  0.00  0.00     0.028 H 
ATOM     41  H17 non d ame     -31.917   8.301  22.432  0.00  0.00     0.028 H 
ATOM     42  H18 non d ame     -32.536   8.275  24.100  0.00  0.00     0.028 H 
ENDBRANCH  33  39
ENDBRANCH   7  33
ENDBRANCH   4   7
ENDBRANCH   1   3
BRANCH   1  43
ATOM     43  C15 non d ame     -32.291  15.085  25.076  0.00  0.00     0.240 C 
ATOM     44  O5  non d ame     -33.365  15.335  24.634  0.00  0.00    -0.271 OA
ATOM     45  N6  non d ame     -31.973  15.433  26.490  0.00  0.00    -0.355 N 
ATOM     46  H46 non d ame     -31.065  15.220  26.879  0.00  0.00     0.162 HD
BRANCH  45  47
ATOM     47  C20 non d ame     -32.994  16.096  27.329  0.00  0.00     0.013 C 
ATOM     48  H30 non d ame     -33.975  15.827  26.937  0.00  0.00     0.072 H 
BRANCH  47  49
ATOM     49  C21 non d ame     -32.801  17.594  27.262  0.00  0.00    -0.038 C 
ATOM     50  H31 non d ame     -32.031  17.825  27.998  0.00  0.00     0.036 H 
ATOM     51  H32 non d ame     -32.636  17.822  26.208  0.00  0.00     0.036 H 
BRANCH  49  52
ATOM     52  C22 non d ame     -34.061  18.380  27.686  0.00  0.00     0.018 C 
ATOM     53  H33 non d ame     -34.898  17.881  27.198  0.00  0.00     0.048 H 
ATOM     54  H34 non d ame     -34.019  18.439  28.773  0.00  0.00     0.048 H 
BRANCH  52  55
ATOM     55  C23 non d ame     -34.084  19.848  27.177  0.00  0.00     0.259 C 
ATOM     56  O7  non d ame     -33.068  20.422  26.949  0.00  0.00    -0.265 OA
BRANCH  55  57
ATOM     57  O8  non d ame     -35.333  20.505  27.000  0.00  0.00    -0.317 OA
BRANCH  57  58
ATOM     58  C29 non d ame     -36.463  19.629  27.033  0.00  0.00     0.052 C 
ATOM     59  H47 non d ame     -36.087  18.678  27.413  0.00  0.00     0.082 H 
ATOM     60  H48 non d ame     -37.237  20.166  27.579  0.00  0.00     0.082 H 
BRANCH  58  61
ATOM     61  C35 non d ame     -36.948  19.418  25.574  0.00  0.00    -0.034 A 
ATOM     62  C30 non d ame     -37.183  18.131  25.098  0.00  0.00    -0.075 A 
ATOM     63  C31 non d ame     -37.618  17.942  23.787  0.00  0.00    -0.082 A 
ATOM     64  H49 non d ame     -37.025  17.272  25.750  0.00  0.00     0.084 H 
ATOM     65  C32 non d ame     -37.817  19.044  22.951  0.00  0.00    -0.083 A 
ATOM     66  H50 non d ame     -37.803  16.932  23.417  0.00  0.00     0.083 H 
ATOM     67  C33 non d ame     -37.578  20.324  23.430  0.00  0.00    -0.082 A 
ATOM     68  H51 non d ame     -38.159  18.904  21.925  0.00  0.00     0.083 H 
ATOM     69  C34 non d ame     -37.144  20.519  24.739  0.00  0.00    -0.075 A 
ATOM     70  H52 non d ame     -37.732  21.183  22.774  0.00  0.00     0.083 H 
ATOM     71  H53 non d ame     -36.960  21.528  25.109  0.00  0.00     0.084 H 
ENDBRANCH  58  61
ENDBRANCH  57  58
ENDBRANCH  55  57
ENDBRANCH  52  55
ENDBRANCH  49  52
ENDBRANCH  47  49
BRANCH  47  72
ATOM     72  C24 non d ame     -32.856  15.628  28.777  0.00  0.00    -0.039 C 
ATOM     73  H35 non d ame     -32.530  16.506  29.335  0.00  0.00     0.036 H 
ATOM     74  H36 non d ame     -33.805  15.150  29.019  0.00  0.00     0.036 H 
BRANCH  72  75
ATOM     75  C25 non d ame     -31.713  14.517  28.934  0.00  0.00    -0.001 C 
ATOM     76  C26 non d ame     -32.388  13.073  29.335  0.00  0.00    -0.035 C 
ATOM     77  C27 non d ame     -31.751  12.580  30.425  0.00  0.00     0.085 C 
ATOM     78  H38 non d ame     -33.410  13.220  29.682  0.00  0.00     0.036 H 
ATOM     79  H39 non d ame     -32.176  12.333  28.562  0.00  0.00     0.036 H 
ATOM     80  N5  non d ame     -30.926  13.707  30.999  0.00  0.00    -0.049 N 
ATOM     81  H40 non d ame     -32.541  12.322  31.131  0.00  0.00     0.075 H 
ATOM     82  H41 non d ame     -31.084  11.807  30.048  0.00  0.00     0.075 H 
ATOM     83  C28 non d ame     -30.868  14.843  29.855  0.00  0.00     0.193 C 
ATOM     84  H42 non d ame     -31.444  14.069  31.786  0.00  0.00     0.280 HD
ATOM     85  H43 non d ame     -29.995  13.338  31.134  0.00  0.00     0.280 HD
ATOM     86  H44 non d ame     -29.967  14.980  29.256  0.00  0.00     0.129 H 
ATOM     87  H37 non d ame     -31.014  14.523  28.098  0.00  0.00     0.046 H 
BRANCH  83  88
ATOM     88  O6  non d ame     -31.152  16.125  30.418  0.00  0.00    -0.369 OA
ATOM     89  H45 non d ame     -31.042  16.802  29.745  0.00  0.00     0.212 HD
ENDBRANCH  83  88
ENDBRANCH  72  75
ENDBRANCH  47  72
ENDBRANCH  45  47
ENDBRANCH   1  43
BRANCH   1  90
ATOM     90  C16 non d ame     -31.212  15.036  22.806  0.00  0.00    -0.035 C 
ATOM     91  H21 non d ame     -31.469  14.241  22.107  0.00  0.00     0.037 H 
ATOM     92  H22 non d ame     -31.852  15.914  22.894  0.00  0.00     0.037 H 
BRANCH  90  93
ATOM     93  C17 non d ame     -29.803  15.559  22.377  0.00  0.00    -0.059 C 
ATOM     94  H23 non d ame     -29.573  16.429  22.992  0.00  0.00     0.038 H 
BRANCH  93  95
ATOM     95  C18 non d ame     -28.683  14.498  22.616  0.00  0.00    -0.073 C 
ATOM     96  H24 non d ame     -28.262  14.190  21.659  0.00  0.00     0.028 H 
ATOM     97  H25 non d ame     -27.897  14.932  23.234  0.00  0.00     0.028 H 
ATOM     98  H26 non d ame     -29.106  13.630  23.123  0.00  0.00     0.028 H 
ENDBRANCH  93  95
BRANCH  93  99
ATOM     99  C19 non d ame     -29.812  16.022  20.918  0.00  0.00    -0.073 C 
ATOM    100  H27 non d ame     -30.778  15.786  20.468  0.00  0.00     0.028 H 
ATOM    101  H28 non d ame     -29.646  17.098  20.876  0.00  0.00     0.028 H 
ATOM    102  H29 non d ame     -29.021  15.510  20.370  0.00  0.00     0.028 H 
ENDBRANCH  93  99
ENDBRANCH  90  93
ENDBRANCH   1  90
TORSDOF 26
ENDMDL
MODEL 4
REMARK VINA RESULT:      -7.3      3.058      7.603
REMARK  26 active torsions:
REMARK  status: ('A' for Active; 'I' for Inactive)
REMARK    1  A    between atoms: C2_2  and  C3_3 
REMARK    2  A    between atoms: C4_6  and  C5_7 
REMARK       I    between atoms: C5_7  and  N2_9 
REMARK    3  A    between atoms: N2_9  and  C6_10 
REMARK    4  A    between atoms: C6_10  and  C7_11 
REMARK    5  A    between atoms: C6_10  and  C8_13 
REMARK       I    between atoms: C7_11  and  N3_14 
REMARK    6  A    between atoms: N3_14  and  C9_15 
REMARK    7  A    between atoms: C9_15  and  C10_16 
REMARK    8  A    between atoms: C9_15  and  C11_18 
REMARK       I    between atoms: C10_16  and  N4_21 
REMARK    9  A    between atoms: C11_18  and  C12_19 
REMARK   10  A    between atoms: C11_18  and  C13_20 
REMARK   11  A    between atoms: N4_21  and  C14_22 
REMARK   12  A    between atoms: C14_22  and  C15_23 
REMARK   13  A    between atoms: C14_22  and  C16_25 
REMARK       I    between atoms: C15_23  and  N6_40 
REMARK   14  A    between atoms: C16_25  and  C17_26 
REMARK   15  A    between atoms: C17_26  and  C18_27 
REMARK   16  A    between atoms: C17_26  and  C19_28 
REMARK   17  A    between atoms: C20_29  and  C21_30 
REMARK   18  A    between atoms: C20_29  and  C24_33 
REMARK   19  A    between atoms: C20_29  and  N6_40 
REMARK   20  A    between atoms: C21_30  and  C22_31 
REMARK   21  A    between atoms: C22_31  and  C23_32 
REMARK   22  A    between atoms: C23_32  and  O8_43 
REMARK   23  A    between atoms: C24_33  and  C25_34 
REMARK   24  A    between atoms: C28_38  and  O6_39 
REMARK   25  A    between atoms: C29_42  and  O8_43 
REMARK   26  A    between atoms: C29_42  and  C35_49 
ROOT
ATOM      1  C14 non d ame     -36.352  13.726  26.094  0.00  0.00     0.089 C 
ATOM      2  H20 non d ame     -37.131  13.610  26.848  0.00  0.00     0.087 H 
ENDROOT
BRANCH   1   3
ATOM      3  N4  non d ame     -36.043  15.145  25.999  0.00  0.00    -0.346 N 
ATOM      4  C10 non d ame     -37.005  16.172  26.539  0.00  0.00     0.241 C 
ATOM      5  O4  non d ame     -38.025  15.834  27.044  0.00  0.00    -0.271 OA
ATOM      6  H19 non d ame     -35.172  15.413  25.563  0.00  0.00     0.163 HD
BRANCH   4   7
ATOM      7  C9  non d ame     -36.668  17.637  26.436  0.00  0.00     0.092 C 
ATOM      8  H11 non d ame     -36.912  18.128  27.377  0.00  0.00     0.088 H 
BRANCH   7   9
ATOM      9  N3  non d ame     -35.225  17.792  26.227  0.00  0.00    -0.346 N 
ATOM     10  C7  non d ame     -34.346  17.948  27.359  0.00  0.00     0.240 C 
ATOM     11  O3  non d ame     -34.782  17.951  28.445  0.00  0.00    -0.271 OA
ATOM     12  H10 non d ame     -34.834  17.793  25.295  0.00  0.00     0.163 HD
BRANCH  10  13
ATOM     13  C6  non d ame     -32.811  18.116  27.131  0.00  0.00     0.086 C 
ATOM     14  H6  non d ame     -32.214  17.610  27.889  0.00  0.00     0.086 H 
BRANCH  13  15
ATOM     15  N2  non d ame     -32.456  17.519  25.854  0.00  0.00    -0.343 N 
ATOM     16  C5  non d ame     -31.909  16.161  25.821  0.00  0.00     0.273 C 
ATOM     17  O2  non d ame     -31.755  15.558  26.826  0.00  0.00    -0.266 OA
ATOM     18  H5  non d ame     -32.588  18.042  25.000  0.00  0.00     0.163 HD
BRANCH  16  19
ATOM     19  C4  non d ame     -31.530  15.516  24.478  0.00  0.00     0.154 A 
ATOM     20  C1  non d ame     -31.454  16.159  23.202  0.00  0.00    -0.017 A 
ATOM     21  C2  non d ame     -31.067  15.138  22.305  0.00  0.00     0.077 A 
ATOM     22  H1  non d ame     -31.649  17.204  22.964  0.00  0.00     0.091 H 
ATOM     23  O1  non d ame     -30.937  14.044  22.994  0.00  0.00    -0.218 OA
ATOM     24  N1  non d ame     -31.202  14.239  24.266  0.00  0.00    -0.123 NA
BRANCH  21  25
ATOM     25  C3  non d ame     -30.841  15.293  20.807  0.00  0.00    -0.029 C 
ATOM     26  H2  non d ame     -30.148  14.526  20.462  0.00  0.00     0.036 H 
ATOM     27  H3  non d ame     -31.791  15.183  20.283  0.00  0.00     0.036 H 
ATOM     28  H4  non d ame     -30.425  16.279  20.601  0.00  0.00     0.036 H 
ENDBRANCH  21  25
ENDBRANCH  16  19
ENDBRANCH  13  15
BRANCH  13  29
ATOM     29  C8  non d ame     -32.458  19.582  27.131  0.00  0.00    -0.049 C 
ATOM     30  H7  non d ame     -31.376  19.695  27.087  0.00  0.00     0.030 H 
ATOM     31  H8  non d ame     -32.909  20.065  26.265  0.00  0.00     0.030 H 
ATOM     32  H9  non d ame     -32.835  20.046  28.044  0.00  0.00     0.030 H 
ENDBRANCH  13  29
ENDBRANCH  10  13
ENDBRANCH   7   9
BRANCH   7  33
ATOM     33  C11 non d ame     -37.433  18.262  25.232  0.00  0.00    -0.033 C 
ATOM     34  H12 non d ame     -38.461  18.433  25.550  0.00  0.00     0.042 H 
BRANCH  33  35
ATOM     35  C12 non d ame     -36.829  19.644  24.832  0.00  0.00    -0.071 C 
ATOM     36  H13 non d ame     -36.737  20.271  25.719  0.00  0.00     0.028 H 
ATOM     37  H14 non d ame     -35.845  19.496  24.388  0.00  0.00     0.028 H 
ATOM     38  H15 non d ame     -37.485  20.132  24.110  0.00  0.00     0.028 H 
ENDBRANCH  33  35
BRANCH  33  39
ATOM     39  C13 non d ame     -37.461  17.281  24.017  0.00  0.00    -0.071 C 
ATOM     40  H16 non d ame     -37.990  16.370  24.296  0.00  0.00     0.028 H 
ATOM     41  H17 non d ame     -37.970  17.756  23.178  0.00  0.00     0.028 H 
ATOM     42  H18 non d ame     -36.440  17.033  23.727  0.00  0.00     0.028 H 
ENDBRANCH  33  39
ENDBRANCH   7  33
ENDBRANCH   4   7
ENDBRANCH   1   3
BRANCH   1  43
ATOM     43  C15 non d ame     -35.051  12.960  26.472  0.00  0.00     0.240 C 
ATOM     44  O5  non d ame     -34.035  13.206  25.906  0.00  0.00    -0.271 OA
ATOM     45  N6  non d ame     -35.070  11.927  27.546  0.00  0.00    -0.355 N 
ATOM     46  H46 non d ame     -35.926  11.713  28.037  0.00  0.00     0.162 HD
BRANCH  45  47
ATOM     47  C20 non d ame     -33.825  11.209  27.894  0.00  0.00     0.013 C 
ATOM     48  H30 non d ame     -32.991  11.749  27.445  0.00  0.00     0.072 H 
BRANCH  47  49
ATOM     49  C21 non d ame     -33.888   9.803  27.342  0.00  0.00    -0.038 C 
ATOM     50  H31 non d ame     -34.145   9.166  28.189  0.00  0.00     0.036 H 
ATOM     51  H32 non d ame     -34.551   9.855  26.478  0.00  0.00     0.036 H 
BRANCH  49  52
ATOM     52  C22 non d ame     -32.524   9.303  26.817  0.00  0.00     0.018 C 
ATOM     53  H33 non d ame     -31.854   9.317  27.675  0.00  0.00     0.048 H 
ATOM     54  H34 non d ame     -32.733   8.365  26.302  0.00  0.00     0.048 H 
BRANCH  52  55
ATOM     55  C23 non d ame     -31.881  10.239  25.756  0.00  0.00     0.259 C 
ATOM     56  O7  non d ame     -30.968  10.943  26.047  0.00  0.00    -0.265 OA
BRANCH  55  57
ATOM     57  O8  non d ame     -32.405  10.258  24.433  0.00  0.00    -0.317 OA
BRANCH  57  58
ATOM     58  C29 non d ame     -31.434  10.555  23.426  0.00  0.00     0.052 C 
ATOM     59  H47 non d ame     -32.004  10.846  22.544  0.00  0.00     0.082 H 
ATOM     60  H48 non d ame     -30.740  11.259  23.883  0.00  0.00     0.082 H 
BRANCH  58  61
ATOM     61  C35 non d ame     -30.664   9.246  23.104  0.00  0.00    -0.034 A 
ATOM     62  C30 non d ame     -29.310   9.297  22.785  0.00  0.00    -0.075 A 
ATOM     63  C31 non d ame     -28.618   8.121  22.494  0.00  0.00    -0.082 A 
ATOM     64  H49 non d ame     -28.792  10.255  22.760  0.00  0.00     0.084 H 
ATOM     65  C32 non d ame     -29.284   6.893  22.523  0.00  0.00    -0.083 A 
ATOM     66  H50 non d ame     -27.556   8.164  22.247  0.00  0.00     0.083 H 
ATOM     67  C33 non d ame     -30.635   6.850  22.838  0.00  0.00    -0.082 A 
ATOM     68  H51 non d ame     -28.750   5.970  22.298  0.00  0.00     0.083 H 
ATOM     69  C34 non d ame     -31.331   8.021  23.130  0.00  0.00    -0.075 A 
ATOM     70  H52 non d ame     -31.153   5.889  22.857  0.00  0.00     0.083 H 
ATOM     71  H53 non d ame     -32.391   7.978  23.379  0.00  0.00     0.084 H 
ENDBRANCH  58  61
ENDBRANCH  57  58
ENDBRANCH  55  57
ENDBRANCH  52  55
ENDBRANCH  49  52
ENDBRANCH  47  49
BRANCH  47  72
ATOM     72  C24 non d ame     -33.666  11.156  29.412  0.00  0.00    -0.039 C 
ATOM     73  H35 non d ame     -34.670  11.302  29.813  0.00  0.00     0.036 H 
ATOM     74  H36 non d ame     -33.128  10.230  29.615  0.00  0.00     0.036 H 
BRANCH  72  75
ATOM     75  C25 non d ame     -32.759  12.359  29.956  0.00  0.00    -0.001 C 
ATOM     76  C26 non d ame     -31.691  12.823  28.796  0.00  0.00    -0.035 C 
ATOM     77  C27 non d ame     -30.447  12.846  29.332  0.00  0.00     0.085 C 
ATOM     78  H38 non d ame     -31.622  12.059  28.023  0.00  0.00     0.036 H 
ATOM     79  H39 non d ame     -31.867  13.863  28.519  0.00  0.00     0.036 H 
ATOM     80  N5  non d ame     -30.525  12.125  30.657  0.00  0.00    -0.049 N 
ATOM     81  H40 non d ame     -29.825  12.267  28.648  0.00  0.00     0.075 H 
ATOM     82  H41 non d ame     -30.226  13.897  29.512  0.00  0.00     0.075 H 
ATOM     83  C28 non d ame     -32.096  12.006  31.006  0.00  0.00     0.193 C 
ATOM     84  H42 non d ame     -30.160  11.197  30.499  0.00  0.00     0.280 HD
ATOM     85  H43 non d ame     -30.088  12.731  31.336  0.00  0.00     0.280 HD
ATOM     86  H44 non d ame     -32.547  12.660  31.753  0.00  0.00     0.129 H 
ATOM     87  H37 non d ame     -33.353  13.143  30.426  0.00  0.00     0.046 H 
BRANCH  83  88
ATOM     88  O6  non d ame     -32.410  10.676  31.420  0.00  0.00    -0.369 OA
ATOM     89  H45 non d ame     -32.145  10.056  30.736  0.00  0.00     0.212 HD
ENDBRANCH  83  88
ENDBRANCH  72  75
ENDBRANCH  47  72
ENDBRANCH  45  47
ENDBRANCH   1  43
BRANCH   1  90
ATOM     90  C16 non d ame     -36.861  13.237  24.748  0.00  0.00    -0.035 C 
ATOM     91  H21 non d ame     -36.752  14.084  24.073  0.00  0.00     0.037 H 
ATOM     92  H22 non d ame     -36.318  12.311  24.554  0.00  0.00     0.037 H 
BRANCH  90  93
ATOM     93  C17 non d ame     -38.378  12.866  24.749  0.00  0.00    -0.059 C 
ATOM     94  H23 non d ame     -38.502  11.977  24.131  0.00  0.00     0.038 H 
BRANCH  93  95
ATOM     95  C18 non d ame     -38.901  12.527  26.181  0.00  0.00    -0.073 C 
ATOM     96  H24 non d ame     -39.968  12.308  26.137  0.00  0.00     0.028 H 
ATOM     97  H25 non d ame     -38.369  11.657  26.566  0.00  0.00     0.028 H 
ATOM     98  H26 non d ame     -38.732  13.378  26.841  0.00  0.00     0.028 H 
ENDBRANCH  93  95
BRANCH  93  99
ATOM     99  C19 non d ame     -39.214  13.982  24.115  0.00  0.00    -0.073 C 
ATOM    100  H27 non d ame     -38.745  14.301  23.183  0.00  0.00     0.028 H 
ATOM    101  H28 non d ame     -40.218  13.611  23.907  0.00  0.00     0.028 H 
ATOM    102  H29 non d ame     -39.273  14.826  24.801  0.00  0.00     0.028 H 
ENDBRANCH  93  99
ENDBRANCH  90  93
ENDBRANCH   1  90
TORSDOF 26
ENDMDL
MODEL 5
REMARK VINA RESULT:      -7.2      2.362      7.079
REMARK  26 active torsions:
REMARK  status: ('A' for Active; 'I' for Inactive)
REMARK    1  A    between atoms: C2_2  and  C3_3 
REMARK    2  A    between atoms: C4_6  and  C5_7 
REMARK       I    between atoms: C5_7  and  N2_9 
REMARK    3  A    between atoms: N2_9  and  C6_10 
REMARK    4  A    between atoms: C6_10  and  C7_11 
REMARK    5  A    between atoms: C6_10  and  C8_13 
REMARK       I    between atoms: C7_11  and  N3_14 
REMARK    6  A    between atoms: N3_14  and  C9_15 
REMARK    7  A    between atoms: C9_15  and  C10_16 
REMARK    8  A    between atoms: C9_15  and  C11_18 
REMARK       I    between atoms: C10_16  and  N4_21 
REMARK    9  A    between atoms: C11_18  and  C12_19 
REMARK   10  A    between atoms: C11_18  and  C13_20 
REMARK   11  A    between atoms: N4_21  and  C14_22 
REMARK   12  A    between atoms: C14_22  and  C15_23 
REMARK   13  A    between atoms: C14_22  and  C16_25 
REMARK       I    between atoms: C15_23  and  N6_40 
REMARK   14  A    between atoms: C16_25  and  C17_26 
REMARK   15  A    between atoms: C17_26  and  C18_27 
REMARK   16  A    between atoms: C17_26  and  C19_28 
REMARK   17  A    between atoms: C20_29  and  C21_30 
REMARK   18  A    between atoms: C20_29  and  C24_33 
REMARK   19  A    between atoms: C20_29  and  N6_40 
REMARK   20  A    between atoms: C21_30  and  C22_31 
REMARK   21  A    between atoms: C22_31  and  C23_32 
REMARK   22  A    between atoms: C23_32  and  O8_43 
REMARK   23  A    between atoms: C24_33  and  C25_34 
REMARK   24  A    between atoms: C28_38  and  O6_39 
REMARK   25  A    between atoms: C29_42  and  O8_43 
REMARK   26  A    between atoms: C29_42  and  C35_49 
ROOT
ATOM      1  C14 non d ame     -35.217   9.451  29.488  0.00  0.00     0.089 C 
ATOM      2  H20 non d ame     -36.248   9.739  29.695  0.00  0.00     0.087 H 
ENDROOT
BRANCH   1   3
ATOM      3  N4  non d ame     -35.253   8.258  28.655  0.00  0.00    -0.346 N 
ATOM      4  C10 non d ame     -36.533   7.844  27.974  0.00  0.00     0.241 C 
ATOM      5  O4  non d ame     -37.522   8.485  28.112  0.00  0.00    -0.271 OA
ATOM      6  H19 non d ame     -34.402   7.724  28.552  0.00  0.00     0.163 HD
BRANCH   4   7
ATOM      7  C9  non d ame     -36.552   6.609  27.111  0.00  0.00     0.092 C 
ATOM      8  H11 non d ame     -36.948   6.864  26.129  0.00  0.00     0.088 H 
BRANCH   7   9
ATOM      9  N3  non d ame     -35.181   6.128  26.915  0.00  0.00    -0.346 N 
ATOM     10  C7  non d ame     -34.534   6.298  25.637  0.00  0.00     0.240 C 
ATOM     11  O3  non d ame     -35.102   6.818  24.756  0.00  0.00    -0.271 OA
ATOM     12  H10 non d ame     -34.679   5.676  27.665  0.00  0.00     0.163 HD
BRANCH  10  13
ATOM     13  C6  non d ame     -33.076   5.782  25.433  0.00  0.00     0.086 C 
ATOM     14  H6  non d ame     -33.009   4.996  24.680  0.00  0.00     0.086 H 
BRANCH  13  15
ATOM     15  N2  non d ame     -32.248   6.880  24.963  0.00  0.00    -0.343 N 
ATOM     16  C5  non d ame     -31.749   6.869  23.586  0.00  0.00     0.273 C 
ATOM     17  O2  non d ame     -32.016   5.971  22.865  0.00  0.00    -0.266 OA
ATOM     18  H5  non d ame     -32.022   7.641  25.586  0.00  0.00     0.163 HD
BRANCH  16  19
ATOM     19  C4  non d ame     -30.873   8.024  23.076  0.00  0.00     0.154 A 
ATOM     20  C1  non d ame     -31.157   9.424  23.154  0.00  0.00    -0.017 A 
ATOM     21  C2  non d ame     -30.047  10.054  22.548  0.00  0.00     0.077 A 
ATOM     22  H1  non d ame     -32.034   9.909  23.585  0.00  0.00     0.091 H 
ATOM     23  O1  non d ame     -29.228   9.118  22.172  0.00  0.00    -0.218 OA
ATOM     24  N1  non d ame     -29.688   7.924  22.469  0.00  0.00    -0.123 NA
BRANCH  21  25
ATOM     25  C3  non d ame     -29.847  11.553  22.371  0.00  0.00    -0.029 C 
ATOM     26  H2  non d ame     -28.787  11.765  22.236  0.00  0.00     0.036 H 
ATOM     27  H3  non d ame     -30.399  11.893  21.495  0.00  0.00     0.036 H 
ATOM     28  H4  non d ame     -30.212  12.077  23.255  0.00  0.00     0.036 H 
ENDBRANCH  21  25
ENDBRANCH  16  19
ENDBRANCH  13  15
BRANCH  13  29
ATOM     29  C8  non d ame     -32.540   5.252  26.738  0.00  0.00    -0.049 C 
ATOM     30  H7  non d ame     -33.099   4.363  27.027  0.00  0.00     0.030 H 
ATOM     31  H8  non d ame     -31.487   4.996  26.622  0.00  0.00     0.030 H 
ATOM     32  H9  non d ame     -32.646   6.015  27.511  0.00  0.00     0.030 H 
ENDBRANCH  13  29
ENDBRANCH  10  13
ENDBRANCH   7   9
BRANCH   7  33
ATOM     33  C11 non d ame     -37.392   5.501  27.812  0.00  0.00    -0.033 C 
ATOM     34  H12 non d ame     -38.396   5.895  27.964  0.00  0.00     0.042 H 
BRANCH  33  35
ATOM     35  C12 non d ame     -37.517   4.231  26.914  0.00  0.00    -0.071 C 
ATOM     36  H13 non d ame     -36.917   3.425  27.337  0.00  0.00     0.028 H 
ATOM     37  H14 non d ame     -38.560   3.920  26.867  0.00  0.00     0.028 H 
ATOM     38  H15 non d ame     -37.160   4.459  25.910  0.00  0.00     0.028 H 
ENDBRANCH  33  35
BRANCH  33  39
ATOM     39  C13 non d ame     -36.794   5.148  29.212  0.00  0.00    -0.071 C 
ATOM     40  H16 non d ame     -37.578   4.736  29.848  0.00  0.00     0.028 H 
ATOM     41  H17 non d ame     -35.998   4.413  29.093  0.00  0.00     0.028 H 
ATOM     42  H18 non d ame     -36.389   6.049  29.672  0.00  0.00     0.028 H 
ENDBRANCH  33  39
ENDBRANCH   7  33
ENDBRANCH   4   7
ENDBRANCH   1   3
BRANCH   1  43
ATOM     43  C15 non d ame     -34.439  10.563  28.727  0.00  0.00     0.240 C 
ATOM     44  O5  non d ame     -35.032  11.352  28.066  0.00  0.00    -0.271 OA
ATOM     45  N6  non d ame     -32.954  10.650  28.830  0.00  0.00    -0.355 N 
ATOM     46  H46 non d ame     -32.439   9.987  29.393  0.00  0.00     0.162 HD
BRANCH  45  47
ATOM     47  C20 non d ame     -32.230  11.713  28.101  0.00  0.00     0.013 C 
ATOM     48  H30 non d ame     -32.939  12.513  27.885  0.00  0.00     0.072 H 
BRANCH  47  49
ATOM     49  C21 non d ame     -31.677  11.149  26.813  0.00  0.00    -0.038 C 
ATOM     50  H31 non d ame     -30.611  11.379  26.824  0.00  0.00     0.036 H 
ATOM     51  H32 non d ame     -32.010  10.111  26.779  0.00  0.00     0.036 H 
BRANCH  49  52
ATOM     52  C22 non d ame     -32.259  11.836  25.558  0.00  0.00     0.018 C 
ATOM     53  H33 non d ame     -31.589  11.574  24.741  0.00  0.00     0.048 H 
ATOM     54  H34 non d ame     -33.308  11.539  25.521  0.00  0.00     0.048 H 
BRANCH  52  55
ATOM     55  C23 non d ame     -32.255  13.387  25.636  0.00  0.00     0.259 C 
ATOM     56  O7  non d ame     -33.278  13.991  25.687  0.00  0.00    -0.265 OA
BRANCH  55  57
ATOM     57  O8  non d ame     -31.014  14.083  25.630  0.00  0.00    -0.317 OA
BRANCH  57  58
ATOM     58  C29 non d ame     -31.109  15.441  25.194  0.00  0.00     0.052 C 
ATOM     59  H47 non d ame     -32.172  15.680  25.202  0.00  0.00     0.082 H 
ATOM     60  H48 non d ame     -30.419  16.003  25.822  0.00  0.00     0.082 H 
BRANCH  58  61
ATOM     61  C35 non d ame     -30.601  15.509  23.728  0.00  0.00    -0.034 A 
ATOM     62  C30 non d ame     -31.451  15.948  22.717  0.00  0.00    -0.075 A 
ATOM     63  C31 non d ame     -30.995  16.008  21.400  0.00  0.00    -0.082 A 
ATOM     64  H49 non d ame     -32.473  16.242  22.955  0.00  0.00     0.084 H 
ATOM     65  C32 non d ame     -29.686  15.627  21.097  0.00  0.00    -0.083 A 
ATOM     66  H50 non d ame     -31.663  16.354  20.610  0.00  0.00     0.083 H 
ATOM     67  C33 non d ame     -28.843  15.187  22.109  0.00  0.00    -0.082 A 
ATOM     68  H51 non d ame     -29.321  15.673  20.070  0.00  0.00     0.083 H 
ATOM     69  C34 non d ame     -29.294  15.127  23.426  0.00  0.00    -0.075 A 
ATOM     70  H52 non d ame     -27.822  14.888  21.868  0.00  0.00     0.083 H 
ATOM     71  H53 non d ame     -28.626  14.782  24.215  0.00  0.00     0.084 H 
ENDBRANCH  58  61
ENDBRANCH  57  58
ENDBRANCH  55  57
ENDBRANCH  52  55
ENDBRANCH  49  52
ENDBRANCH  47  49
BRANCH  47  72
ATOM     72  C24 non d ame     -31.084  12.240  28.962  0.00  0.00    -0.039 C 
ATOM     73  H35 non d ame     -30.958  11.506  29.758  0.00  0.00     0.036 H 
ATOM     74  H36 non d ame     -30.266  12.437  28.268  0.00  0.00     0.036 H 
BRANCH  72  75
ATOM     75  C25 non d ame     -31.457  13.633  29.659  0.00  0.00    -0.001 C 
ATOM     76  C26 non d ame     -33.039  13.989  29.387  0.00  0.00    -0.035 C 
ATOM     77  C27 non d ame     -33.126  15.249  28.896  0.00  0.00     0.085 C 
ATOM     78  H38 non d ame     -33.427  13.373  28.576  0.00  0.00     0.036 H 
ATOM     79  H39 non d ame     -33.579  14.046  30.333  0.00  0.00     0.036 H 
ATOM     80  N5  non d ame     -31.729  15.665  28.502  0.00  0.00    -0.049 N 
ATOM     81  H40 non d ame     -33.741  15.170  28.000  0.00  0.00     0.075 H 
ATOM     82  H41 non d ame     -33.457  15.864  29.732  0.00  0.00     0.075 H 
ATOM     83  C28 non d ame     -30.735  14.597  29.193  0.00  0.00     0.193 C 
ATOM     84  H42 non d ame     -31.670  15.557  27.500  0.00  0.00     0.280 HD
ATOM     85  H43 non d ame     -31.572  16.570  28.922  0.00  0.00     0.280 HD
ATOM     86  H44 non d ame     -30.167  14.867  30.084  0.00  0.00     0.129 H 
ATOM     87  H37 non d ame     -31.108  13.686  30.690  0.00  0.00     0.046 H 
BRANCH  83  88
ATOM     88  O6  non d ame     -29.769  14.138  28.247  0.00  0.00    -0.369 OA
ATOM     89  H45 non d ame     -29.232  13.449  28.646  0.00  0.00     0.212 HD
ENDBRANCH  83  88
ENDBRANCH  72  75
ENDBRANCH  47  72
ENDBRANCH  45  47
ENDBRANCH   1  43
BRANCH   1  90
ATOM     90  C16 non d ame     -34.501   9.126  30.790  0.00  0.00    -0.035 C 
ATOM     91  H21 non d ame     -34.275   8.062  30.737  0.00  0.00     0.037 H 
ATOM     92  H22 non d ame     -33.692   9.853  30.863  0.00  0.00     0.037 H 
BRANCH  90  93
ATOM     93  C17 non d ame     -35.390   9.325  32.059  0.00  0.00    -0.059 C 
ATOM     94  H23 non d ame     -35.088   8.579  32.794  0.00  0.00     0.038 H 
BRANCH  93  95
ATOM     95  C18 non d ame     -35.192  10.734  32.703  0.00  0.00    -0.073 C 
ATOM     96  H24 non d ame     -34.668  11.384  32.002  0.00  0.00     0.028 H 
ATOM     97  H25 non d ame     -36.165  11.165  32.938  0.00  0.00     0.028 H 
ATOM     98  H26 non d ame     -34.607  10.637  33.617  0.00  0.00     0.028 H 
ENDBRANCH  93  95
BRANCH  93  99
ATOM     99  C19 non d ame     -36.866   9.075  31.737  0.00  0.00    -0.073 C 
ATOM    100  H27 non d ame     -36.944   8.323  30.951  0.00  0.00     0.028 H 
ATOM    101  H28 non d ame     -37.379   8.720  32.631  0.00  0.00     0.028 H 
ATOM    102  H29 non d ame     -37.326  10.004  31.399  0.00  0.00     0.028 H 
ENDBRANCH  93  99
ENDBRANCH  90  93
ENDBRANCH   1  90
TORSDOF 26
ENDMDL
MODEL 6
REMARK VINA RESULT:      -7.1      2.952      8.727
REMARK  26 active torsions:
REMARK  status: ('A' for Active; 'I' for Inactive)
REMARK    1  A    between atoms: C2_2  and  C3_3 
REMARK    2  A    between atoms: C4_6  and  C5_7 
REMARK       I    between atoms: C5_7  and  N2_9 
REMARK    3  A    between atoms: N2_9  and  C6_10 
REMARK    4  A    between atoms: C6_10  and  C7_11 
REMARK    5  A    between atoms: C6_10  and  C8_13 
REMARK       I    between atoms: C7_11  and  N3_14 
REMARK    6  A    between atoms: N3_14  and  C9_15 
REMARK    7  A    between atoms: C9_15  and  C10_16 
REMARK    8  A    between atoms: C9_15  and  C11_18 
REMARK       I    between atoms: C10_16  and  N4_21 
REMARK    9  A    between atoms: C11_18  and  C12_19 
REMARK   10  A    between atoms: C11_18  and  C13_20 
REMARK   11  A    between atoms: N4_21  and  C14_22 
REMARK   12  A    between atoms: C14_22  and  C15_23 
REMARK   13  A    between atoms: C14_22  and  C16_25 
REMARK       I    between atoms: C15_23  and  N6_40 
REMARK   14  A    between atoms: C16_25  and  C17_26 
REMARK   15  A    between atoms: C17_26  and  C18_27 
REMARK   16  A    between atoms: C17_26  and  C19_28 
REMARK   17  A    between atoms: C20_29  and  C21_30 
REMARK   18  A    between atoms: C20_29  and  C24_33 
REMARK   19  A    between atoms: C20_29  and  N6_40 
REMARK   20  A    between atoms: C21_30  and  C22_31 
REMARK   21  A    between atoms: C22_31  and  C23_32 
REMARK   22  A    between atoms: C23_32  and  O8_43 
REMARK   23  A    between atoms: C24_33  and  C25_34 
REMARK   24  A    between atoms: C28_38  and  O6_39 
REMARK   25  A    between atoms: C29_42  and  O8_43 
REMARK   26  A    between atoms: C29_42  and  C35_49 
ROOT
ATOM      1  C14 non d ame     -31.300  14.603  24.104  0.00  0.00     0.089 C 
ATOM      2  H20 non d ame     -30.300  14.658  24.536  0.00  0.00     0.087 H 
ENDROOT
BRANCH   1   3
ATOM      3  N4  non d ame     -31.614  13.196  23.904  0.00  0.00    -0.346 N 
ATOM      4  C10 non d ame     -31.413  12.204  25.021  0.00  0.00     0.241 C 
ATOM      5  O4  non d ame     -30.996  12.560  26.073  0.00  0.00    -0.271 OA
ATOM      6  H19 non d ame     -31.964  12.912  23.000  0.00  0.00     0.163 HD
BRANCH   4   7
ATOM      7  C9  non d ame     -31.748  10.752  24.797  0.00  0.00     0.092 C 
ATOM      8  H11 non d ame     -31.235  10.147  25.544  0.00  0.00     0.088 H 
BRANCH   7   9
ATOM      9  N3  non d ame     -33.187  10.547  24.986  0.00  0.00    -0.346 N 
ATOM     10  C7  non d ame     -33.660   9.674  26.031  0.00  0.00     0.240 C 
ATOM     11  O3  non d ame     -32.896   9.127  26.730  0.00  0.00    -0.271 OA
ATOM     12  H10 non d ame     -33.858  11.011  24.390  0.00  0.00     0.163 HD
BRANCH  10  13
ATOM     13  C6  non d ame     -35.192   9.457  26.225  0.00  0.00     0.086 C 
ATOM     14  H6  non d ame     -35.471   9.327  27.271  0.00  0.00     0.086 H 
BRANCH  13  15
ATOM     15  N2  non d ame     -35.900  10.634  25.750  0.00  0.00    -0.343 N 
ATOM     16  C5  non d ame     -36.221  11.711  26.688  0.00  0.00     0.273 C 
ATOM     17  O2  non d ame     -35.909  11.620  27.825  0.00  0.00    -0.266 OA
ATOM     18  H5  non d ame     -36.165  10.702  24.778  0.00  0.00     0.163 HD
BRANCH  16  19
ATOM     19  C4  non d ame     -36.967  12.962  26.199  0.00  0.00     0.154 A 
ATOM     20  C1  non d ame     -37.790  13.077  25.034  0.00  0.00    -0.017 A 
ATOM     21  C2  non d ame     -38.235  14.417  25.035  0.00  0.00     0.077 A 
ATOM     22  H1  non d ame     -38.027  12.306  24.300  0.00  0.00     0.091 H 
ATOM     23  O1  non d ame     -37.725  14.995  26.083  0.00  0.00    -0.218 OA
ATOM     24  N1  non d ame     -36.981  14.165  26.777  0.00  0.00    -0.123 NA
BRANCH  21  25
ATOM     25  C3  non d ame     -39.147  15.065  24.002  0.00  0.00    -0.029 C 
ATOM     26  H2  non d ame     -39.369  14.348  23.212  0.00  0.00     0.036 H 
ATOM     27  H3  non d ame     -40.076  15.376  24.480  0.00  0.00     0.036 H 
ATOM     28  H4  non d ame     -38.651  15.936  23.573  0.00  0.00     0.036 H 
ENDBRANCH  21  25
ENDBRANCH  16  19
ENDBRANCH  13  15
BRANCH  13  29
ATOM     29  C8  non d ame     -35.633   8.241  25.450  0.00  0.00    -0.049 C 
ATOM     30  H7  non d ame     -36.721   8.204  25.419  0.00  0.00     0.030 H 
ATOM     31  H8  non d ame     -35.243   8.296  24.434  0.00  0.00     0.030 H 
ATOM     32  H9  non d ame     -35.252   7.342  25.938  0.00  0.00     0.030 H 
ENDBRANCH  13  29
ENDBRANCH  10  13
ENDBRANCH   7   9
BRANCH   7  33
ATOM     33  C11 non d ame     -31.355  10.348  23.345  0.00  0.00    -0.033 C 
ATOM     34  H12 non d ame     -31.565  11.200  22.699  0.00  0.00     0.042 H 
BRANCH  33  35
ATOM     35  C12 non d ame     -29.829  10.040  23.235  0.00  0.00    -0.071 C 
ATOM     36  H13 non d ame     -29.653   8.989  23.465  0.00  0.00     0.028 H 
ATOM     37  H14 non d ame     -29.488  10.252  22.223  0.00  0.00     0.028 H 
ATOM     38  H15 non d ame     -29.281  10.662  23.943  0.00  0.00     0.028 H 
ENDBRANCH  33  35
BRANCH  33  39
ATOM     39  C13 non d ame     -32.214   9.141  22.849  0.00  0.00    -0.071 C 
ATOM     40  H16 non d ame     -33.244   9.266  23.185  0.00  0.00     0.028 H 
ATOM     41  H17 non d ame     -32.189   9.100  21.760  0.00  0.00     0.028 H 
ATOM     42  H18 non d ame     -31.809   8.215  23.256  0.00  0.00     0.028 H 
ENDBRANCH  33  39
ENDBRANCH   7  33
ENDBRANCH   4   7
ENDBRANCH   1   3
BRANCH   1  43
ATOM     43  C15 non d ame     -32.377  15.222  25.041  0.00  0.00     0.240 C 
ATOM     44  O5  non d ame     -33.457  15.474  24.614  0.00  0.00    -0.271 OA
ATOM     45  N6  non d ame     -32.066  15.490  26.474  0.00  0.00    -0.355 N 
ATOM     46  H46 non d ame     -31.153  15.276  26.850  0.00  0.00     0.162 HD
BRANCH  45  47
ATOM     47  C20 non d ame     -33.101  16.078  27.351  0.00  0.00     0.013 C 
ATOM     48  H30 non d ame     -34.074  15.876  26.902  0.00  0.00     0.072 H 
BRANCH  47  49
ATOM     49  C21 non d ame     -32.880  17.570  27.456  0.00  0.00    -0.038 C 
ATOM     50  H31 non d ame     -32.301  17.718  28.368  0.00  0.00     0.036 H 
ATOM     51  H32 non d ame     -32.469  17.875  26.493  0.00  0.00     0.036 H 
BRANCH  49  52
ATOM     52  C22 non d ame     -34.194  18.360  27.639  0.00  0.00     0.018 C 
ATOM     53  H33 non d ame     -34.897  17.932  26.925  0.00  0.00     0.048 H 
ATOM     54  H34 non d ame     -34.412  18.326  28.707  0.00  0.00     0.048 H 
BRANCH  52  55
ATOM     55  C23 non d ame     -34.076  19.866  27.274  0.00  0.00     0.259 C 
ATOM     56  O7  non d ame     -33.014  20.400  27.259  0.00  0.00    -0.265 OA
BRANCH  55  57
ATOM     57  O8  non d ame     -35.254  20.604  26.972  0.00  0.00    -0.317 OA
BRANCH  57  58
ATOM     58  C29 non d ame     -36.460  19.840  27.060  0.00  0.00     0.052 C 
ATOM     59  H47 non d ame     -36.157  18.850  27.401  0.00  0.00     0.082 H 
ATOM     60  H48 non d ame     -37.145  20.438  27.659  0.00  0.00     0.082 H 
BRANCH  58  61
ATOM     61  C35 non d ame     -37.048  19.708  25.629  0.00  0.00    -0.034 A 
ATOM     62  C30 non d ame     -37.090  18.464  25.006  0.00  0.00    -0.075 A 
ATOM     63  C31 non d ame     -37.617  18.345  23.721  0.00  0.00    -0.082 A 
ATOM     64  H49 non d ame     -36.709  17.583  25.523  0.00  0.00     0.084 H 
ATOM     65  C32 non d ame     -38.103  19.476  23.058  0.00  0.00    -0.083 A 
ATOM     66  H50 non d ame     -37.651  17.369  23.236  0.00  0.00     0.083 H 
ATOM     67  C33 non d ame     -38.055  20.715  23.683  0.00  0.00    -0.082 A 
ATOM     68  H51 non d ame     -38.518  19.391  22.054  0.00  0.00     0.083 H 
ATOM     69  C34 non d ame     -37.530  20.838  24.968  0.00  0.00    -0.075 A 
ATOM     70  H52 non d ame     -38.432  21.596  23.162  0.00  0.00     0.083 H 
ATOM     71  H53 non d ame     -37.498  21.814  25.452  0.00  0.00     0.084 H 
ENDBRANCH  58  61
ENDBRANCH  57  58
ENDBRANCH  55  57
ENDBRANCH  52  55
ENDBRANCH  49  52
ENDBRANCH  47  49
BRANCH  47  72
ATOM     72  C24 non d ame     -33.018  15.450  28.740  0.00  0.00    -0.039 C 
ATOM     73  H35 non d ame     -32.925  16.289  29.432  0.00  0.00     0.036 H 
ATOM     74  H36 non d ame     -33.876  14.781  28.809  0.00  0.00     0.036 H 
BRANCH  72  75
ATOM     75  C25 non d ame     -31.703  14.551  28.907  0.00  0.00    -0.001 C 
ATOM     76  C26 non d ame     -32.123  13.012  29.302  0.00  0.00    -0.035 C 
ATOM     77  C27 non d ame     -31.421  12.634  30.397  0.00  0.00     0.085 C 
ATOM     78  H38 non d ame     -33.158  12.982  29.640  0.00  0.00     0.036 H 
ATOM     79  H39 non d ame     -31.782  12.321  28.530  0.00  0.00     0.036 H 
ATOM     80  N5  non d ame     -30.805  13.885  30.978  0.00  0.00    -0.049 N 
ATOM     81  H40 non d ame     -32.160  12.243  31.096  0.00  0.00     0.075 H 
ATOM     82  H41 non d ame     -30.627  11.987  30.025  0.00  0.00     0.075 H 
ATOM     83  C28 non d ame     -30.934  15.016  29.834  0.00  0.00     0.193 C 
ATOM     84  H42 non d ame     -31.384  14.151  31.761  0.00  0.00     0.280 HD
ATOM     85  H43 non d ame     -29.826  13.680  31.120  0.00  0.00     0.280 HD
ATOM     86  H44 non d ame     -30.064  15.307  29.243  0.00  0.00     0.129 H 
ATOM     87  H37 non d ame     -31.008  14.678  28.077  0.00  0.00     0.046 H 
BRANCH  83  88
ATOM     88  O6  non d ame     -31.438  16.229  30.395  0.00  0.00    -0.369 OA
ATOM     89  H45 non d ame     -31.440  16.916  29.724  0.00  0.00     0.212 HD
ENDBRANCH  83  88
ENDBRANCH  72  75
ENDBRANCH  47  72
ENDBRANCH  45  47
ENDBRANCH   1  43
BRANCH   1  90
ATOM     90  C16 non d ame     -31.321  15.314  22.761  0.00  0.00    -0.035 C 
ATOM     91  H21 non d ame     -31.685  14.574  22.049  0.00  0.00     0.037 H 
ATOM     92  H22 non d ame     -31.883  16.232  22.930  0.00  0.00     0.037 H 
BRANCH  90  93
ATOM     93  C17 non d ame     -29.906  15.748  22.260  0.00  0.00    -0.059 C 
ATOM     94  H23 non d ame     -29.679  16.714  22.711  0.00  0.00     0.038 H 
BRANCH  93  95
ATOM     95  C18 non d ame     -28.792  14.745  22.698  0.00  0.00    -0.073 C 
ATOM     96  H24 non d ame     -27.955  14.804  22.003  0.00  0.00     0.028 H 
ATOM     97  H25 non d ame     -28.449  14.998  23.701  0.00  0.00     0.028 H 
ATOM     98  H26 non d ame     -29.194  13.731  22.696  0.00  0.00     0.028 H 
ENDBRANCH  93  95
BRANCH  93  99
ATOM     99  C19 non d ame     -29.899  15.941  20.741  0.00  0.00    -0.073 C 
ATOM    100  H27 non d ame     -30.560  15.206  20.279  0.00  0.00     0.028 H 
ATOM    101  H28 non d ame     -30.248  16.945  20.500  0.00  0.00     0.028 H 
ATOM    102  H29 non d ame     -28.886  15.807  20.363  0.00  0.00     0.028 H 
ENDBRANCH  93  99
ENDBRANCH  90  93
ENDBRANCH   1  90
TORSDOF 26
ENDMDL
MODEL 7
REMARK VINA RESULT:      -7.1      2.920      8.126
REMARK  26 active torsions:
REMARK  status: ('A' for Active; 'I' for Inactive)
REMARK    1  A    between atoms: C2_2  and  C3_3 
REMARK    2  A    between atoms: C4_6  and  C5_7 
REMARK       I    between atoms: C5_7  and  N2_9 
REMARK    3  A    between atoms: N2_9  and  C6_10 
REMARK    4  A    between atoms: C6_10  and  C7_11 
REMARK    5  A    between atoms: C6_10  and  C8_13 
REMARK       I    between atoms: C7_11  and  N3_14 
REMARK    6  A    between atoms: N3_14  and  C9_15 
REMARK    7  A    between atoms: C9_15  and  C10_16 
REMARK    8  A    between atoms: C9_15  and  C11_18 
REMARK       I    between atoms: C10_16  and  N4_21 
REMARK    9  A    between atoms: C11_18  and  C12_19 
REMARK   10  A    between atoms: C11_18  and  C13_20 
REMARK   11  A    between atoms: N4_21  and  C14_22 
REMARK   12  A    between atoms: C14_22  and  C15_23 
REMARK   13  A    between atoms: C14_22  and  C16_25 
REMARK       I    between atoms: C15_23  and  N6_40 
REMARK   14  A    between atoms: C16_25  and  C17_26 
REMARK   15  A    between atoms: C17_26  and  C18_27 
REMARK   16  A    between atoms: C17_26  and  C19_28 
REMARK   17  A    between atoms: C20_29  and  C21_30 
REMARK   18  A    between atoms: C20_29  and  C24_33 
REMARK   19  A    between atoms: C20_29  and  N6_40 
REMARK   20  A    between atoms: C21_30  and  C22_31 
REMARK   21  A    between atoms: C22_31  and  C23_32 
REMARK   22  A    between atoms: C23_32  and  O8_43 
REMARK   23  A    between atoms: C24_33  and  C25_34 
REMARK   24  A    between atoms: C28_38  and  O6_39 
REMARK   25  A    between atoms: C29_42  and  O8_43 
REMARK   26  A    between atoms: C29_42  and  C35_49 
ROOT
ATOM      1  C14 non d ame     -30.782  13.463  24.095  0.00  0.00     0.089 C 
ATOM      2  H20 non d ame     -29.732  13.356  24.367  0.00  0.00     0.087 H 
ENDROOT
BRANCH   1   3
ATOM      3  N4  non d ame     -31.226  12.190  23.547  0.00  0.00    -0.346 N 
ATOM      4  C10 non d ame     -31.080  10.923  24.350  0.00  0.00     0.241 C 
ATOM      5  O4  non d ame     -30.600  10.951  25.436  0.00  0.00    -0.271 OA
ATOM      6  H19 non d ame     -31.628  12.187  22.621  0.00  0.00     0.163 HD
BRANCH   4   7
ATOM      7  C9  non d ame     -31.549   9.614  23.769  0.00  0.00     0.092 C 
ATOM      8  H11 non d ame     -31.367   8.817  24.489  0.00  0.00     0.088 H 
BRANCH   7   9
ATOM      9  N3  non d ame     -32.996   9.671  23.541  0.00  0.00    -0.346 N 
ATOM     10  C7  non d ame     -33.906   9.321  24.603  0.00  0.00     0.240 C 
ATOM     11  O3  non d ame     -33.492   8.992  25.647  0.00  0.00    -0.271 OA
ATOM     12  H10 non d ame     -33.368   9.952  22.645  0.00  0.00     0.163 HD
BRANCH  10  13
ATOM     13  C6  non d ame     -35.446   9.380  24.354  0.00  0.00     0.086 C 
ATOM     14  H6  non d ame     -36.015   8.831  25.103  0.00  0.00     0.086 H 
BRANCH  13  15
ATOM     15  N2  non d ame     -35.883  10.764  24.431  0.00  0.00    -0.343 N 
ATOM     16  C5  non d ame     -36.238  11.337  25.731  0.00  0.00     0.273 C 
ATOM     17  O2  non d ame     -36.170  10.677  26.709  0.00  0.00    -0.266 OA
ATOM     18  H5  non d ame     -35.941  11.320  23.590  0.00  0.00     0.163 HD
BRANCH  16  19
ATOM     19  C4  non d ame     -36.701  12.799  25.826  0.00  0.00     0.154 A 
ATOM     20  C1  non d ame     -36.146  13.831  26.647  0.00  0.00    -0.017 A 
ATOM     21  C2  non d ame     -36.924  14.976  26.368  0.00  0.00     0.077 A 
ATOM     22  H1  non d ame     -35.306  13.759  27.339  0.00  0.00     0.091 H 
ATOM     23  O1  non d ame     -37.818  14.633  25.488  0.00  0.00    -0.218 OA
ATOM     24  N1  non d ame     -37.708  13.367  25.157  0.00  0.00    -0.123 NA
BRANCH  21  25
ATOM     25  C3  non d ame     -36.748  16.358  26.983  0.00  0.00    -0.029 C 
ATOM     26  H2  non d ame     -35.708  16.669  26.886  0.00  0.00     0.036 H 
ATOM     27  H3  non d ame     -37.388  17.071  26.464  0.00  0.00     0.036 H 
ATOM     28  H4  non d ame     -37.020  16.325  28.037  0.00  0.00     0.036 H 
ENDBRANCH  21  25
ENDBRANCH  16  19
ENDBRANCH  13  15
BRANCH  13  29
ATOM     29  C8  non d ame     -35.759   8.813  22.993  0.00  0.00    -0.049 C 
ATOM     30  H7  non d ame     -36.730   9.180  22.661  0.00  0.00     0.030 H 
ATOM     31  H8  non d ame     -34.992   9.125  22.284  0.00  0.00     0.030 H 
ATOM     32  H9  non d ame     -35.782   7.724  23.049  0.00  0.00     0.030 H 
ENDBRANCH  13  29
ENDBRANCH  10  13
ENDBRANCH   7   9
BRANCH   7  33
ATOM     33  C11 non d ame     -30.823   9.359  22.415  0.00  0.00    -0.033 C 
ATOM     34  H12 non d ame     -30.946  10.252  21.803  0.00  0.00     0.042 H 
BRANCH  33  35
ATOM     35  C12 non d ame     -29.292   9.142  22.624  0.00  0.00    -0.071 C 
ATOM     36  H13 non d ame     -28.874   9.992  23.164  0.00  0.00     0.028 H 
ATOM     37  H14 non d ame     -29.129   8.230  23.198  0.00  0.00     0.028 H 
ATOM     38  H15 non d ame     -28.802   9.053  21.654  0.00  0.00     0.028 H 
ENDBRANCH  33  35
BRANCH  33  39
ATOM     39  C13 non d ame     -31.468   8.158  21.653  0.00  0.00    -0.071 C 
ATOM     40  H16 non d ame     -30.702   7.641  21.074  0.00  0.00     0.028 H 
ATOM     41  H17 non d ame     -31.911   7.467  22.370  0.00  0.00     0.028 H 
ATOM     42  H18 non d ame     -32.242   8.527  20.981  0.00  0.00     0.028 H 
ENDBRANCH  33  39
ENDBRANCH   7  33
ENDBRANCH   4   7
ENDBRANCH   1   3
BRANCH   1  43
ATOM     43  C15 non d ame     -31.672  13.811  25.324  0.00  0.00     0.240 C 
ATOM     44  O5  non d ame     -32.753  14.275  25.157  0.00  0.00    -0.271 OA
ATOM     45  N6  non d ame     -31.181  13.554  26.707  0.00  0.00    -0.355 N 
ATOM     46  H46 non d ame     -30.266  13.155  26.861  0.00  0.00     0.162 HD
BRANCH  45  47
ATOM     47  C20 non d ame     -32.040  13.889  27.864  0.00  0.00     0.013 C 
ATOM     48  H30 non d ame     -33.076  13.883  27.524  0.00  0.00     0.072 H 
BRANCH  47  49
ATOM     49  C21 non d ame     -31.672  15.263  28.378  0.00  0.00    -0.038 C 
ATOM     50  H31 non d ame     -31.454  15.131  29.439  0.00  0.00     0.036 H 
ATOM     51  H32 non d ame     -30.899  15.632  27.704  0.00  0.00     0.036 H 
BRANCH  49  52
ATOM     52  C22 non d ame     -32.842  16.267  28.294  0.00  0.00     0.018 C 
ATOM     53  H33 non d ame     -33.723  15.675  28.051  0.00  0.00     0.048 H 
ATOM     54  H34 non d ame     -32.808  16.838  29.222  0.00  0.00     0.048 H 
BRANCH  52  55
ATOM     55  C23 non d ame     -32.694  17.305  27.147  0.00  0.00     0.259 C 
ATOM     56  O7  non d ame     -31.844  17.179  26.326  0.00  0.00    -0.265 OA
BRANCH  55  57
ATOM     57  O8  non d ame     -33.579  18.418  27.096  0.00  0.00    -0.317 OA
BRANCH  57  58
ATOM     58  C29 non d ame     -34.065  18.716  25.784  0.00  0.00     0.052 C 
ATOM     59  H47 non d ame     -33.288  19.316  25.311  0.00  0.00     0.082 H 
ATOM     60  H48 non d ame     -34.355  17.760  25.352  0.00  0.00     0.082 H 
BRANCH  58  61
ATOM     61  C35 non d ame     -35.338  19.592  25.933  0.00  0.00    -0.034 A 
ATOM     62  C30 non d ame     -36.212  19.738  24.859  0.00  0.00    -0.075 A 
ATOM     63  C31 non d ame     -37.355  20.525  24.993  0.00  0.00    -0.082 A 
ATOM     64  H49 non d ame     -36.001  19.238  23.914  0.00  0.00     0.084 H 
ATOM     65  C32 non d ame     -37.623  21.167  26.204  0.00  0.00    -0.083 A 
ATOM     66  H50 non d ame     -38.039  20.636  24.150  0.00  0.00     0.083 H 
ATOM     67  C33 non d ame     -36.747  21.021  27.271  0.00  0.00    -0.082 A 
ATOM     68  H51 non d ame     -38.516  21.783  26.317  0.00  0.00     0.083 H 
ATOM     69  C34 non d ame     -35.604  20.235  27.143  0.00  0.00    -0.075 A 
ATOM     70  H52 non d ame     -36.958  21.526  28.215  0.00  0.00     0.083 H 
ATOM     71  H53 non d ame     -34.921  20.123  27.986  0.00  0.00     0.084 H 
ENDBRANCH  58  61
ENDBRANCH  57  58
ENDBRANCH  55  57
ENDBRANCH  52  55
ENDBRANCH  49  52
ENDBRANCH  47  49
BRANCH  47  72
ATOM     72  C24 non d ame     -31.839  12.858  28.972  0.00  0.00    -0.039 C 
ATOM     73  H35 non d ame     -31.103  12.154  28.582  0.00  0.00     0.036 H 
ATOM     74  H36 non d ame     -31.618  13.436  29.869  0.00  0.00     0.036 H 
BRANCH  72  75
ATOM     75  C25 non d ame     -33.179  12.030  29.261  0.00  0.00    -0.001 C 
ATOM     76  C26 non d ame     -33.259  11.633  30.854  0.00  0.00    -0.035 C 
ATOM     77  C27 non d ame     -33.492  10.303  30.962  0.00  0.00     0.085 C 
ATOM     78  H38 non d ame     -32.282  11.758  31.321  0.00  0.00     0.036 H 
ATOM     79  H39 non d ame     -34.142  12.084  31.309  0.00  0.00     0.036 H 
ATOM     80  N5  non d ame     -33.253   9.701  29.598  0.00  0.00    -0.049 N 
ATOM     81  H40 non d ame     -32.736   9.930  31.653  0.00  0.00     0.075 H 
ATOM     82  H41 non d ame     -34.549  10.212  31.210  0.00  0.00     0.075 H 
ATOM     83  C28 non d ame     -33.215  10.942  28.566  0.00  0.00     0.193 C 
ATOM     84  H42 non d ame     -32.337   9.280  29.628  0.00  0.00     0.280 HD
ATOM     85  H43 non d ame     -34.064   9.135  29.391  0.00  0.00     0.280 HD
ATOM     86  H44 non d ame     -34.068  11.149  27.919  0.00  0.00     0.129 H 
ATOM     87  H37 non d ame     -34.059  12.501  28.823  0.00  0.00     0.046 H 
BRANCH  83  88
ATOM     88  O6  non d ame     -32.091  10.823  27.692  0.00  0.00    -0.369 OA
ATOM     89  H45 non d ame     -31.281  10.850  28.207  0.00  0.00     0.212 HD
ENDBRANCH  83  88
ENDBRANCH  72  75
ENDBRANCH  47  72
ENDBRANCH  45  47
ENDBRANCH   1  43
BRANCH   1  90
ATOM     90  C16 non d ame     -30.932  14.541  23.034  0.00  0.00    -0.035 C 
ATOM     91  H21 non d ame     -31.884  14.335  22.547  0.00  0.00     0.037 H 
ATOM     92  H22 non d ame     -30.780  15.485  23.558  0.00  0.00     0.037 H 
BRANCH  90  93
ATOM     93  C17 non d ame     -29.842  14.476  21.917  0.00  0.00    -0.059 C 
ATOM     94  H23 non d ame     -29.838  13.461  21.519  0.00  0.00     0.038 H 
BRANCH  93  95
ATOM     95  C18 non d ame     -30.150  15.450  20.735  0.00  0.00    -0.073 C 
ATOM     96  H24 non d ame     -29.974  16.477  21.055  0.00  0.00     0.028 H 
ATOM     97  H25 non d ame     -29.499  15.216  19.893  0.00  0.00     0.028 H 
ATOM     98  H26 non d ame     -31.191  15.337  20.433  0.00  0.00     0.028 H 
ENDBRANCH  93  95
BRANCH  93  99
ATOM     99  C19 non d ame     -28.450  14.744  22.495  0.00  0.00    -0.073 C 
ATOM    100  H27 non d ame     -27.731  14.059  22.044  0.00  0.00     0.028 H 
ATOM    101  H28 non d ame     -28.157  15.771  22.278  0.00  0.00     0.028 H 
ATOM    102  H29 non d ame     -28.469  14.592  23.574  0.00  0.00     0.028 H 
ENDBRANCH  93  99
ENDBRANCH  90  93
ENDBRANCH   1  90
TORSDOF 26
ENDMDL
MODEL 8
REMARK VINA RESULT:      -7.0      3.364      7.290
REMARK  26 active torsions:
REMARK  status: ('A' for Active; 'I' for Inactive)
REMARK    1  A    between atoms: C2_2  and  C3_3 
REMARK    2  A    between atoms: C4_6  and  C5_7 
REMARK       I    between atoms: C5_7  and  N2_9 
REMARK    3  A    between atoms: N2_9  and  C6_10 
REMARK    4  A    between atoms: C6_10  and  C7_11 
REMARK    5  A    between atoms: C6_10  and  C8_13 
REMARK       I    between atoms: C7_11  and  N3_14 
REMARK    6  A    between atoms: N3_14  and  C9_15 
REMARK    7  A    between atoms: C9_15  and  C10_16 
REMARK    8  A    between atoms: C9_15  and  C11_18 
REMARK       I    between atoms: C10_16  and  N4_21 
REMARK    9  A    between atoms: C11_18  and  C12_19 
REMARK   10  A    between atoms: C11_18  and  C13_20 
REMARK   11  A    between atoms: N4_21  and  C14_22 
REMARK   12  A    between atoms: C14_22  and  C15_23 
REMARK   13  A    between atoms: C14_22  and  C16_25 
REMARK       I    between atoms: C15_23  and  N6_40 
REMARK   14  A    between atoms: C16_25  and  C17_26 
REMARK   15  A    between atoms: C17_26  and  C18_27 
REMARK   16  A    between atoms: C17_26  and  C19_28 
REMARK   17  A    between atoms: C20_29  and  C21_30 
REMARK   18  A    between atoms: C20_29  and  C24_33 
REMARK   19  A    between atoms: C20_29  and  N6_40 
REMARK   20  A    between atoms: C21_30  and  C22_31 
REMARK   21  A    between atoms: C22_31  and  C23_32 
REMARK   22  A    between atoms: C23_32  and  O8_43 
REMARK   23  A    between atoms: C24_33  and  C25_34 
REMARK   24  A    between atoms: C28_38  and  O6_39 
REMARK   25  A    between atoms: C29_42  and  O8_43 
REMARK   26  A    between atoms: C29_42  and  C35_49 
ROOT
ATOM      1  C14 non d ame     -36.567  16.009  26.727  0.00  0.00     0.089 C 
ATOM      2  H20 non d ame     -37.125  16.491  27.530  0.00  0.00     0.087 H 
ENDROOT
BRANCH   1   3
ATOM      3  N4  non d ame     -35.151  16.175  27.016  0.00  0.00    -0.346 N 
ATOM      4  C10 non d ame     -34.686  17.264  27.948  0.00  0.00     0.241 C 
ATOM      5  O4  non d ame     -35.471  17.998  28.453  0.00  0.00    -0.271 OA
ATOM      6  H19 non d ame     -34.499  15.542  26.574  0.00  0.00     0.163 HD
BRANCH   4   7
ATOM      7  C9  non d ame     -33.216  17.419  28.240  0.00  0.00     0.092 C 
ATOM      8  H11 non d ame     -33.092  17.934  29.192  0.00  0.00     0.088 H 
BRANCH   7   9
ATOM      9  N3  non d ame     -32.604  16.094  28.381  0.00  0.00    -0.346 N 
ATOM     10  C7  non d ame     -31.722  15.823  29.489  0.00  0.00     0.240 C 
ATOM     11  O3  non d ame     -31.494  16.658  30.277  0.00  0.00    -0.271 OA
ATOM     12  H10 non d ame     -32.791  15.364  27.709  0.00  0.00     0.163 HD
BRANCH  10  13
ATOM     13  C6  non d ame     -31.071  14.412  29.633  0.00  0.00     0.086 C 
ATOM     14  H6  non d ame     -30.391  14.346  30.482  0.00  0.00     0.086 H 
BRANCH  13  15
ATOM     15  N2  non d ame     -32.117  13.430  29.861  0.00  0.00    -0.343 N 
ATOM     16  C5  non d ame     -31.809  12.206  30.603  0.00  0.00     0.273 C 
ATOM     17  O2  non d ame     -30.715  12.019  31.010  0.00  0.00    -0.266 OA
ATOM     18  H5  non d ame     -33.048  13.597  29.507  0.00  0.00     0.163 HD
BRANCH  16  19
ATOM     19  C4  non d ame     -32.906  11.159  30.852  0.00  0.00     0.154 A 
ATOM     20  C1  non d ame     -33.309  10.104  29.974  0.00  0.00    -0.017 A 
ATOM     21  C2  non d ame     -34.344   9.433  30.664  0.00  0.00     0.077 A 
ATOM     22  H1  non d ame     -32.912   9.861  28.989  0.00  0.00     0.091 H 
ATOM     23  O1  non d ame     -34.507  10.039  31.803  0.00  0.00    -0.218 OA
ATOM     24  N1  non d ame     -33.679  11.050  31.936  0.00  0.00    -0.123 NA
BRANCH  21  25
ATOM     25  C3  non d ame     -35.122   8.223  30.166  0.00  0.00    -0.029 C 
ATOM     26  H2  non d ame     -34.603   7.781  29.317  0.00  0.00     0.036 H 
ATOM     27  H3  non d ame     -35.200   7.486  30.966  0.00  0.00     0.036 H 
ATOM     28  H4  non d ame     -36.121   8.533  29.861  0.00  0.00     0.036 H 
ENDBRANCH  21  25
ENDBRANCH  16  19
ENDBRANCH  13  15
BRANCH  13  29
ATOM     29  C8  non d ame     -30.311  14.076  28.375  0.00  0.00    -0.049 C 
ATOM     30  H7  non d ame     -30.571  14.788  27.592  0.00  0.00     0.030 H 
ATOM     31  H8  non d ame     -29.241  14.128  28.571  0.00  0.00     0.030 H 
ATOM     32  H9  non d ame     -30.574  13.068  28.050  0.00  0.00     0.030 H 
ENDBRANCH  13  29
ENDBRANCH  10  13
ENDBRANCH   7   9
BRANCH   7  33
ATOM     33  C11 non d ame     -32.533  18.181  27.067  0.00  0.00    -0.033 C 
ATOM     34  H12 non d ame     -31.457  18.146  27.235  0.00  0.00     0.042 H 
BRANCH  33  35
ATOM     35  C12 non d ame     -32.817  17.488  25.698  0.00  0.00    -0.071 C 
ATOM     36  H13 non d ame     -31.879  17.351  25.158  0.00  0.00     0.028 H 
ATOM     37  H14 non d ame     -33.281  16.517  25.871  0.00  0.00     0.028 H 
ATOM     38  H15 non d ame     -33.487  18.111  25.107  0.00  0.00     0.028 H 
ENDBRANCH  33  35
BRANCH  33  39
ATOM     39  C13 non d ame     -32.969  19.680  27.044  0.00  0.00    -0.071 C 
ATOM     40  H16 non d ame     -33.852  19.812  27.670  0.00  0.00     0.028 H 
ATOM     41  H17 non d ame     -32.158  20.302  27.424  0.00  0.00     0.028 H 
ATOM     42  H18 non d ame     -33.202  19.976  26.021  0.00  0.00     0.028 H 
ENDBRANCH  33  39
ENDBRANCH   7  33
ENDBRANCH   4   7
ENDBRANCH   1   3
BRANCH   1  43
ATOM     43  C15 non d ame     -36.878  14.487  26.628  0.00  0.00     0.240 C 
ATOM     44  O5  non d ame     -37.978  14.093  26.845  0.00  0.00    -0.271 OA
ATOM     45  N6  non d ame     -35.806  13.522  26.251  0.00  0.00    -0.355 N 
ATOM     46  H46 non d ame     -34.868  13.846  26.059  0.00  0.00     0.162 HD
BRANCH  45  47
ATOM     47  C20 non d ame     -36.117  12.080  26.160  0.00  0.00     0.013 C 
ATOM     48  H30 non d ame     -36.870  11.852  26.915  0.00  0.00     0.072 H 
BRANCH  47  49
ATOM     49  C21 non d ame     -34.862  11.279  26.423  0.00  0.00    -0.038 C 
ATOM     50  H31 non d ame     -34.512  11.596  27.406  0.00  0.00     0.036 H 
ATOM     51  H32 non d ame     -35.136  10.238  26.251  0.00  0.00     0.036 H 
BRANCH  49  52
ATOM     52  C22 non d ame     -33.726  11.602  25.429  0.00  0.00     0.018 C 
ATOM     53  H33 non d ame     -33.580  10.696  24.843  0.00  0.00     0.048 H 
ATOM     54  H34 non d ame     -34.020  12.529  24.936  0.00  0.00     0.048 H 
BRANCH  52  55
ATOM     55  C23 non d ame     -32.361  11.895  26.111  0.00  0.00     0.259 C 
ATOM     56  O7  non d ame     -32.125  11.468  27.195  0.00  0.00    -0.265 OA
BRANCH  55  57
ATOM     57  O8  non d ame     -31.399  12.693  25.432  0.00  0.00    -0.317 OA
BRANCH  57  58
ATOM     58  C29 non d ame     -31.911  13.938  24.948  0.00  0.00     0.052 C 
ATOM     59  H47 non d ame     -32.954  13.748  24.693  0.00  0.00     0.082 H 
ATOM     60  H48 non d ame     -31.661  14.676  25.709  0.00  0.00     0.082 H 
BRANCH  58  61
ATOM     61  C35 non d ame     -31.145  14.297  23.646  0.00  0.00    -0.034 A 
ATOM     62  C30 non d ame     -30.258  13.382  23.086  0.00  0.00    -0.075 A 
ATOM     63  C31 non d ame     -29.569  13.705  21.917  0.00  0.00    -0.082 A 
ATOM     64  H49 non d ame     -30.103  12.414  23.561  0.00  0.00     0.084 H 
ATOM     65  C32 non d ame     -29.768  14.947  21.310  0.00  0.00    -0.083 A 
ATOM     66  H50 non d ame     -28.877  12.985  21.479  0.00  0.00     0.083 H 
ATOM     67  C33 non d ame     -30.651  15.858  21.876  0.00  0.00    -0.082 A 
ATOM     68  H51 non d ame     -29.234  15.207  20.395  0.00  0.00     0.083 H 
ATOM     69  C34 non d ame     -31.342  15.539  23.042  0.00  0.00    -0.075 A 
ATOM     70  H52 non d ame     -30.802  16.828  21.401  0.00  0.00     0.083 H 
ATOM     71  H53 non d ame     -32.035  16.259  23.479  0.00  0.00     0.084 H 
ENDBRANCH  58  61
ENDBRANCH  57  58
ENDBRANCH  55  57
ENDBRANCH  52  55
ENDBRANCH  49  52
ENDBRANCH  47  49
BRANCH  47  72
ATOM     72  C24 non d ame     -36.648  11.753  24.766  0.00  0.00    -0.039 C 
ATOM     73  H35 non d ame     -36.625  12.697  24.219  0.00  0.00     0.036 H 
ATOM     74  H36 non d ame     -36.054  10.908  24.420  0.00  0.00     0.036 H 
BRANCH  72  75
ATOM     75  C25 non d ame     -38.175  11.271  24.811  0.00  0.00    -0.001 C 
ATOM     76  C26 non d ame     -38.312   9.933  25.756  0.00  0.00    -0.035 C 
ATOM     77  C27 non d ame     -38.977   8.976  25.065  0.00  0.00     0.085 C 
ATOM     78  H38 non d ame     -37.330   9.490  25.923  0.00  0.00     0.036 H 
ATOM     79  H39 non d ame     -38.968  10.137  26.602  0.00  0.00     0.036 H 
ATOM     80  N5  non d ame     -39.018   9.422  23.622  0.00  0.00    -0.049 N 
ATOM     81  H40 non d ame     -38.361   8.080  25.143  0.00  0.00     0.075 H 
ATOM     82  H41 non d ame     -39.989   8.977  25.466  0.00  0.00     0.075 H 
ATOM     83  C28 non d ame     -38.609  10.984  23.629  0.00  0.00     0.193 C 
ATOM     84  H42 non d ame     -38.297   8.903  23.142  0.00  0.00     0.280 HD
ATOM     85  H43 non d ame     -39.981   9.342  23.327  0.00  0.00     0.280 HD
ATOM     86  H44 non d ame     -39.370  11.755  23.505  0.00  0.00     0.129 H 
ATOM     87  H37 non d ame     -38.862  12.093  25.013  0.00  0.00     0.046 H 
BRANCH  83  88
ATOM     88  O6  non d ame     -37.633  11.242  22.618  0.00  0.00    -0.369 OA
ATOM     89  H45 non d ame     -37.642  12.176  22.396  0.00  0.00     0.212 HD
ENDBRANCH  83  88
ENDBRANCH  72  75
ENDBRANCH  47  72
ENDBRANCH  45  47
ENDBRANCH   1  43
BRANCH   1  90
ATOM     90  C16 non d ame     -36.887  16.683  25.402  0.00  0.00    -0.035 C 
ATOM     91  H21 non d ame     -35.940  16.731  24.868  0.00  0.00     0.037 H 
ATOM     92  H22 non d ame     -37.721  16.118  24.985  0.00  0.00     0.037 H 
BRANCH  90  93
ATOM     93  C17 non d ame     -37.382  18.157  25.553  0.00  0.00    -0.059 C 
ATOM     94  H23 non d ame     -37.516  18.353  26.617  0.00  0.00     0.038 H 
BRANCH  93  95
ATOM     95  C18 non d ame     -36.344  19.187  25.006  0.00  0.00    -0.073 C 
ATOM     96  H24 non d ame     -36.837  20.143  24.830  0.00  0.00     0.028 H 
ATOM     97  H25 non d ame     -35.546  19.321  25.736  0.00  0.00     0.028 H 
ATOM     98  H26 non d ame     -35.923  18.817  24.071  0.00  0.00     0.028 H 
ENDBRANCH  93  95
BRANCH  93  99
ATOM     99  C19 non d ame     -38.745  18.347  24.881  0.00  0.00    -0.073 C 
ATOM    100  H27 non d ame     -39.318  19.097  25.428  0.00  0.00     0.028 H 
ATOM    101  H28 non d ame     -38.600  18.681  23.853  0.00  0.00     0.028 H 
ATOM    102  H29 non d ame     -39.287  17.402  24.884  0.00  0.00     0.028 H 
ENDBRANCH  93  99
ENDBRANCH  90  93
ENDBRANCH   1  90
TORSDOF 26
ENDMDL
MODEL 9
REMARK VINA RESULT:      -6.9      2.470      7.196
REMARK  26 active torsions:
REMARK  status: ('A' for Active; 'I' for Inactive)
REMARK    1  A    between atoms: C2_2  and  C3_3 
REMARK    2  A    between atoms: C4_6  and  C5_7 
REMARK       I    between atoms: C5_7  and  N2_9 
REMARK    3  A    between atoms: N2_9  and  C6_10 
REMARK    4  A    between atoms: C6_10  and  C7_11 
REMARK    5  A    between atoms: C6_10  and  C8_13 
REMARK       I    between atoms: C7_11  and  N3_14 
REMARK    6  A    between atoms: N3_14  and  C9_15 
REMARK    7  A    between atoms: C9_15  and  C10_16 
REMARK    8  A    between atoms: C9_15  and  C11_18 
REMARK       I    between atoms: C10_16  and  N4_21 
REMARK    9  A    between atoms: C11_18  and  C12_19 
REMARK   10  A    between atoms: C11_18  and  C13_20 
REMARK   11  A    between atoms: N4_21  and  C14_22 
REMARK   12  A    between atoms: C14_22  and  C15_23 
REMARK   13  A    between atoms: C14_22  and  C16_25 
REMARK       I    between atoms: C15_23  and  N6_40 
REMARK   14  A    between atoms: C16_25  and  C17_26 
REMARK   15  A    between atoms: C17_26  and  C18_27 
REMARK   16  A    between atoms: C17_26  and  C19_28 
REMARK   17  A    between atoms: C20_29  and  C21_30 
REMARK   18  A    between atoms: C20_29  and  C24_33 
REMARK   19  A    between atoms: C20_29  and  N6_40 
REMARK   20  A    between atoms: C21_30  and  C22_31 
REMARK   21  A    between atoms: C22_31  and  C23_32 
REMARK   22  A    between atoms: C23_32  and  O8_43 
REMARK   23  A    between atoms: C24_33  and  C25_34 
REMARK   24  A    between atoms: C28_38  and  O6_39 
REMARK   25  A    between atoms: C29_42  and  O8_43 
REMARK   26  A    between atoms: C29_42  and  C35_49 
ROOT
ATOM      1  C14 non d ame     -34.838   7.822  29.039  0.00  0.00     0.089 C 
ATOM      2  H20 non d ame     -34.799   6.977  29.727  0.00  0.00     0.087 H 
ENDROOT
BRANCH   1   3
ATOM      3  N4  non d ame     -33.685   8.666  29.316  0.00  0.00    -0.346 N 
ATOM      4  C10 non d ame     -33.643  10.087  28.816  0.00  0.00     0.241 C 
ATOM      5  O4  non d ame     -34.550  10.531  28.191  0.00  0.00    -0.271 OA
ATOM      6  H19 non d ame     -32.923   8.269  29.847  0.00  0.00     0.163 HD
BRANCH   4   7
ATOM      7  C9  non d ame     -32.444  10.948  29.116  0.00  0.00     0.092 C 
ATOM      8  H11 non d ame     -31.562  10.508  28.651  0.00  0.00     0.088 H 
BRANCH   7   9
ATOM      9  N3  non d ame     -32.633  12.274  28.520  0.00  0.00    -0.346 N 
ATOM     10  C7  non d ame     -31.857  12.664  27.369  0.00  0.00     0.240 C 
ATOM     11  O3  non d ame     -31.076  11.923  26.909  0.00  0.00    -0.271 OA
ATOM     12  H10 non d ame     -33.302  12.924  28.907  0.00  0.00     0.163 HD
BRANCH  10  13
ATOM     13  C6  non d ame     -32.060  14.078  26.741  0.00  0.00     0.086 C 
ATOM     14  H6  non d ame     -31.479  14.850  27.245  0.00  0.00     0.086 H 
BRANCH  13  15
ATOM     15  N2  non d ame     -31.605  14.050  25.361  0.00  0.00    -0.343 N 
ATOM     16  C5  non d ame     -31.098  15.277  24.744  0.00  0.00     0.273 C 
ATOM     17  O2  non d ame     -31.062  16.282  25.365  0.00  0.00    -0.266 OA
ATOM     18  H5  non d ame     -31.643  13.188  24.836  0.00  0.00     0.163 HD
BRANCH  16  19
ATOM     19  C4  non d ame     -30.613  15.262  23.285  0.00  0.00     0.154 A 
ATOM     20  C1  non d ame     -31.295  15.788  22.142  0.00  0.00    -0.017 A 
ATOM     21  C2  non d ame     -30.435  15.524  21.053  0.00  0.00     0.077 A 
ATOM     22  H1  non d ame     -32.265  16.285  22.109  0.00  0.00     0.091 H 
ATOM     23  O1  non d ame     -29.385  14.919  21.526  0.00  0.00    -0.218 OA
ATOM     24  N1  non d ame     -29.466  14.755  22.826  0.00  0.00    -0.123 NA
BRANCH  21  25
ATOM     25  C3  non d ame     -30.690  15.884  19.596  0.00  0.00    -0.029 C 
ATOM     26  H2  non d ame     -29.756  16.196  19.130  0.00  0.00     0.036 H 
ATOM     27  H3  non d ame     -31.082  15.013  19.070  0.00  0.00     0.036 H 
ATOM     28  H4  non d ame     -31.413  16.697  19.542  0.00  0.00     0.036 H 
ENDBRANCH  21  25
ENDBRANCH  16  19
ENDBRANCH  13  15
BRANCH  13  29
ATOM     29  C8  non d ame     -33.519  14.451  26.798  0.00  0.00    -0.049 C 
ATOM     30  H7  non d ame     -34.004  14.166  25.865  0.00  0.00     0.030 H 
ATOM     31  H8  non d ame     -33.996  13.930  27.628  0.00  0.00     0.030 H 
ATOM     32  H9  non d ame     -33.613  15.528  26.942  0.00  0.00     0.030 H 
ENDBRANCH  13  29
ENDBRANCH  10  13
ENDBRANCH   7   9
BRANCH   7  33
ATOM     33  C11 non d ame     -32.283  11.094  30.658  0.00  0.00    -0.033 C 
ATOM     34  H12 non d ame     -31.914  10.143  31.041  0.00  0.00     0.042 H 
BRANCH  33  35
ATOM     35  C12 non d ame     -31.228  12.186  31.018  0.00  0.00    -0.071 C 
ATOM     36  H13 non d ame     -31.237  12.965  30.255  0.00  0.00     0.028 H 
ATOM     37  H14 non d ame     -31.472  12.622  31.986  0.00  0.00     0.028 H 
ATOM     38  H15 non d ame     -30.237  11.734  31.061  0.00  0.00     0.028 H 
ENDBRANCH  33  35
BRANCH  33  39
ATOM     39  C13 non d ame     -33.658  11.387  31.338  0.00  0.00    -0.071 C 
ATOM     40  H16 non d ame     -33.686  12.426  31.669  0.00  0.00     0.028 H 
ATOM     41  H17 non d ame     -34.463  11.212  30.624  0.00  0.00     0.028 H 
ATOM     42  H18 non d ame     -33.787  10.729  32.197  0.00  0.00     0.028 H 
ENDBRANCH  33  39
ENDBRANCH   7  33
ENDBRANCH   4   7
ENDBRANCH   1   3
BRANCH   1  43
ATOM     43  C15 non d ame     -34.775   7.370  27.551  0.00  0.00     0.240 C 
ATOM     44  O5  non d ame     -35.777   7.093  26.975  0.00  0.00    -0.271 OA
ATOM     45  N6  non d ame     -33.466   7.294  26.842  0.00  0.00    -0.355 N 
ATOM     46  H46 non d ame     -32.609   7.532  27.320  0.00  0.00     0.162 HD
BRANCH  45  47
ATOM     47  C20 non d ame     -33.424   6.863  25.427  0.00  0.00     0.013 C 
ATOM     48  H30 non d ame     -34.448   6.835  25.056  0.00  0.00     0.072 H 
BRANCH  47  49
ATOM     49  C21 non d ame     -32.803   5.488  25.341  0.00  0.00    -0.038 C 
ATOM     50  H31 non d ame     -32.358   5.427  24.348  0.00  0.00     0.036 H 
ATOM     51  H32 non d ame     -32.174   5.393  26.227  0.00  0.00     0.036 H 
BRANCH  49  52
ATOM     52  C22 non d ame     -33.847   4.353  25.424  0.00  0.00     0.018 C 
ATOM     53  H33 non d ame     -34.819   4.844  25.406  0.00  0.00     0.048 H 
ATOM     54  H34 non d ame     -33.578   3.647  24.638  0.00  0.00     0.048 H 
BRANCH  52  55
ATOM     55  C23 non d ame     -33.796   3.551  26.754  0.00  0.00     0.259 C 
ATOM     56  O7  non d ame     -33.753   2.363  26.741  0.00  0.00    -0.265 OA
BRANCH  55  57
ATOM     57  O8  non d ame     -33.816   4.253  27.992  0.00  0.00    -0.317 OA
BRANCH  57  58
ATOM     58  C29 non d ame     -32.558   4.268  28.673  0.00  0.00     0.052 C 
ATOM     59  H47 non d ame     -31.994   3.427  28.269  0.00  0.00     0.082 H 
ATOM     60  H48 non d ame     -32.176   5.283  28.565  0.00  0.00     0.082 H 
BRANCH  58  61
ATOM     61  C35 non d ame     -32.826   4.003  30.179  0.00  0.00    -0.034 A 
ATOM     62  C30 non d ame     -33.864   4.665  30.828  0.00  0.00    -0.075 A 
ATOM     63  C31 non d ame     -34.104   4.428  32.181  0.00  0.00    -0.082 A 
ATOM     64  H49 non d ame     -34.488   5.370  30.278  0.00  0.00     0.084 H 
ATOM     65  C32 non d ame     -33.302   3.526  32.884  0.00  0.00    -0.083 A 
ATOM     66  H50 non d ame     -34.920   4.946  32.686  0.00  0.00     0.083 H 
ATOM     67  C33 non d ame     -32.266   2.871  32.233  0.00  0.00    -0.082 A 
ATOM     68  H51 non d ame     -33.484   3.334  33.942  0.00  0.00     0.083 H 
ATOM     69  C34 non d ame     -32.022   3.104  30.881  0.00  0.00    -0.075 A 
ATOM     70  H52 non d ame     -31.639   2.169  32.786  0.00  0.00     0.083 H 
ATOM     71  H53 non d ame     -31.208   2.585  30.376  0.00  0.00     0.084 H 
ENDBRANCH  58  61
ENDBRANCH  57  58
ENDBRANCH  55  57
ENDBRANCH  52  55
ENDBRANCH  49  52
ENDBRANCH  47  49
BRANCH  47  72
ATOM     72  C24 non d ame     -32.592   7.851  24.612  0.00  0.00    -0.039 C 
ATOM     73  H35 non d ame     -32.304   8.635  25.314  0.00  0.00     0.036 H 
ATOM     74  H36 non d ame     -31.825   7.250  24.123  0.00  0.00     0.036 H 
BRANCH  72  75
ATOM     75  C25 non d ame     -33.458   8.545  23.457  0.00  0.00    -0.001 C 
ATOM     76  C26 non d ame     -34.931   7.823  23.353  0.00  0.00    -0.035 C 
ATOM     77  C27 non d ame     -35.158   7.476  22.063  0.00  0.00     0.085 C 
ATOM     78  H38 non d ame     -34.918   6.867  23.875  0.00  0.00     0.036 H 
ATOM     79  H39 non d ame     -35.719   8.547  23.564  0.00  0.00     0.036 H 
ATOM     80  N5  non d ame     -33.840   7.598  21.336  0.00  0.00    -0.049 N 
ATOM     81  H40 non d ame     -35.453   6.427  22.091  0.00  0.00     0.075 H 
ATOM     82  H41 non d ame     -35.848   8.225  21.677  0.00  0.00     0.075 H 
ATOM     83  C28 non d ame     -32.872   8.446  22.311  0.00  0.00     0.193 C 
ATOM     84  H42 non d ame     -33.472   6.662  21.252  0.00  0.00     0.280 HD
ATOM     85  H43 non d ame     -34.022   8.146  20.507  0.00  0.00     0.280 HD
ATOM     86  H44 non d ame     -32.662   9.496  22.105  0.00  0.00     0.129 H 
ATOM     87  H37 non d ame     -33.442   9.632  23.526  0.00  0.00     0.046 H 
BRANCH  83  88
ATOM     88  O6  non d ame     -31.596   7.812  22.410  0.00  0.00    -0.369 OA
ATOM     89  H45 non d ame     -30.930   8.467  22.636  0.00  0.00     0.212 HD
ENDBRANCH  83  88
ENDBRANCH  72  75
ENDBRANCH  47  72
ENDBRANCH  45  47
ENDBRANCH   1  43
BRANCH   1  90
ATOM     90  C16 non d ame     -36.108   8.622  29.277  0.00  0.00    -0.035 C 
ATOM     91  H21 non d ame     -35.773   9.623  29.543  0.00  0.00     0.037 H 
ATOM     92  H22 non d ame     -36.717   8.469  28.385  0.00  0.00     0.037 H 
BRANCH  90  93
ATOM     93  C17 non d ame     -36.956   8.107  30.484  0.00  0.00    -0.059 C 
ATOM     94  H23 non d ame     -37.994   8.386  30.301  0.00  0.00     0.038 H 
BRANCH  93  95
ATOM     95  C18 non d ame     -36.898   6.553  30.624  0.00  0.00    -0.073 C 
ATOM     96  H24 non d ame     -37.062   6.092  29.650  0.00  0.00     0.028 H 
ATOM     97  H25 non d ame     -35.919   6.258  31.003  0.00  0.00     0.028 H 
ATOM     98  H26 non d ame     -37.670   6.221  31.318  0.00  0.00     0.028 H 
ENDBRANCH  93  95
BRANCH  93  99
ATOM     99  C19 non d ame     -36.523   8.788  31.786  0.00  0.00    -0.073 C 
ATOM    100  H27 non d ame     -35.459   9.021  31.737  0.00  0.00     0.028 H 
ATOM    101  H28 non d ame     -37.091   9.709  31.921  0.00  0.00     0.028 H 
ATOM    102  H29 non d ame     -36.711   8.119  32.625  0.00  0.00     0.028 H 
ENDBRANCH  93  99
ENDBRANCH  90  93
ENDBRANCH   1  90
TORSDOF 26
ENDMDL
MODEL 10
REMARK VINA RESULT:      -6.9      2.375      7.480
REMARK  26 active torsions:
REMARK  status: ('A' for Active; 'I' for Inactive)
REMARK    1  A    between atoms: C2_2  and  C3_3 
REMARK    2  A    between atoms: C4_6  and  C5_7 
REMARK       I    between atoms: C5_7  and  N2_9 
REMARK    3  A    between atoms: N2_9  and  C6_10 
REMARK    4  A    between atoms: C6_10  and  C7_11 
REMARK    5  A    between atoms: C6_10  and  C8_13 
REMARK       I    between atoms: C7_11  and  N3_14 
REMARK    6  A    between atoms: N3_14  and  C9_15 
REMARK    7  A    between atoms: C9_15  and  C10_16 
REMARK    8  A    between atoms: C9_15  and  C11_18 
REMARK       I    between atoms: C10_16  and  N4_21 
REMARK    9  A    between atoms: C11_18  and  C12_19 
REMARK   10  A    between atoms: C11_18  and  C13_20 
REMARK   11  A    between atoms: N4_21  and  C14_22 
REMARK   12  A    between atoms: C14_22  and  C15_23 
REMARK   13  A    between atoms: C14_22  and  C16_25 
REMARK       I    between atoms: C15_23  and  N6_40 
REMARK   14  A    between atoms: C16_25  and  C17_26 
REMARK   15  A    between atoms: C17_26  and  C18_27 
REMARK   16  A    between atoms: C17_26  and  C19_28 
REMARK   17  A    between atoms: C20_29  and  C21_30 
REMARK   18  A    between atoms: C20_29  and  C24_33 
REMARK   19  A    between atoms: C20_29  and  N6_40 
REMARK   20  A    between atoms: C21_30  and  C22_31 
REMARK   21  A    between atoms: C22_31  and  C23_32 
REMARK   22  A    between atoms: C23_32  and  O8_43 
REMARK   23  A    between atoms: C24_33  and  C25_34 
REMARK   24  A    between atoms: C28_38  and  O6_39 
REMARK   25  A    between atoms: C29_42  and  O8_43 
REMARK   26  A    between atoms: C29_42  and  C35_49 
ROOT
ATOM      1  C14 non d ame     -34.517   9.509  29.247  0.00  0.00     0.089 C 
ATOM      2  H20 non d ame     -35.513   9.843  28.957  0.00  0.00     0.087 H 
ENDROOT
BRANCH   1   3
ATOM      3  N4  non d ame     -34.280   8.226  28.602  0.00  0.00    -0.346 N 
ATOM      4  C10 non d ame     -35.423   7.460  27.986  0.00  0.00     0.241 C 
ATOM      5  O4  non d ame     -36.526   7.896  28.022  0.00  0.00    -0.271 OA
ATOM      6  H19 non d ame     -33.334   7.871  28.585  0.00  0.00     0.163 HD
BRANCH   4   7
ATOM      7  C9  non d ame     -35.159   6.135  27.319  0.00  0.00     0.092 C 
ATOM      8  H11 non d ame     -36.075   5.546  27.318  0.00  0.00     0.088 H 
BRANCH   7   9
ATOM      9  N3  non d ame     -34.785   6.358  25.919  0.00  0.00    -0.346 N 
ATOM     10  C7  non d ame     -35.781   6.254  24.882  0.00  0.00     0.240 C 
ATOM     11  O3  non d ame     -36.888   5.990  25.156  0.00  0.00    -0.271 OA
ATOM     12  H10 non d ame     -33.833   6.585  25.668  0.00  0.00     0.163 HD
BRANCH  10  13
ATOM     13  C6  non d ame     -35.377   6.489  23.394  0.00  0.00     0.086 C 
ATOM     14  H6  non d ame     -35.960   7.277  22.918  0.00  0.00     0.086 H 
BRANCH  13  15
ATOM     15  N2  non d ame     -33.987   6.912  23.343  0.00  0.00    -0.343 N 
ATOM     16  C5  non d ame     -33.649   8.208  22.753  0.00  0.00     0.273 C 
ATOM     17  O2  non d ame     -34.501   8.903  22.318  0.00  0.00    -0.266 OA
ATOM     18  H5  non d ame     -33.265   6.311  23.715  0.00  0.00     0.163 HD
BRANCH  16  19
ATOM     19  C4  non d ame     -32.184   8.669  22.694  0.00  0.00     0.154 A 
ATOM     20  C1  non d ame     -31.047   7.888  22.312  0.00  0.00    -0.017 A 
ATOM     21  C2  non d ame     -29.948   8.768  22.426  0.00  0.00     0.077 A 
ATOM     22  H1  non d ame     -31.024   6.844  22.000  0.00  0.00     0.091 H 
ATOM     23  O1  non d ame     -30.410   9.916  22.826  0.00  0.00    -0.218 OA
ATOM     24  N1  non d ame     -31.712   9.883  22.989  0.00  0.00    -0.123 NA
BRANCH  21  25
ATOM     25  C3  non d ame     -28.491   8.434  22.133  0.00  0.00    -0.029 C 
ATOM     26  H2  non d ame     -28.245   8.743  21.118  0.00  0.00     0.036 H 
ATOM     27  H3  non d ame     -27.848   8.962  22.838  0.00  0.00     0.036 H 
ATOM     28  H4  non d ame     -28.336   7.360  22.235  0.00  0.00     0.036 H 
ENDBRANCH  21  25
ENDBRANCH  16  19
ENDBRANCH  13  15
BRANCH  13  29
ATOM     29  C8  non d ame     -35.557   5.212  22.614  0.00  0.00    -0.049 C 
ATOM     30  H7  non d ame     -36.401   5.316  21.934  0.00  0.00     0.030 H 
ATOM     31  H8  non d ame     -34.653   5.005  22.040  0.00  0.00     0.030 H 
ATOM     32  H9  non d ame     -35.745   4.388  23.304  0.00  0.00     0.030 H 
ENDBRANCH  13  29
ENDBRANCH  10  13
ENDBRANCH   7   9
BRANCH   7  33
ATOM     33  C11 non d ame     -33.995   5.408  28.055  0.00  0.00    -0.033 C 
ATOM     34  H12 non d ame     -33.162   6.107  28.123  0.00  0.00     0.042 H 
BRANCH  33  35
ATOM     35  C12 non d ame     -34.399   5.017  29.510  0.00  0.00    -0.071 C 
ATOM     36  H13 non d ame     -34.111   3.983  29.702  0.00  0.00     0.028 H 
ATOM     37  H14 non d ame     -33.893   5.673  30.218  0.00  0.00     0.028 H 
ATOM     38  H15 non d ame     -35.478   5.119  29.627  0.00  0.00     0.028 H 
ENDBRANCH  33  35
BRANCH  33  39
ATOM     39  C13 non d ame     -33.514   4.162  27.245  0.00  0.00    -0.071 C 
ATOM     40  H16 non d ame     -32.890   4.487  26.413  0.00  0.00     0.028 H 
ATOM     41  H17 non d ame     -32.938   3.504  27.897  0.00  0.00     0.028 H 
ATOM     42  H18 non d ame     -34.380   3.622  26.861  0.00  0.00     0.028 H 
ENDBRANCH  33  39
ENDBRANCH   7  33
ENDBRANCH   4   7
ENDBRANCH   1   3
BRANCH   1  43
ATOM     43  C15 non d ame     -33.410  10.503  28.791  0.00  0.00     0.240 C 
ATOM     44  O5  non d ame     -32.447  10.097  28.226  0.00  0.00    -0.271 OA
ATOM     45  N6  non d ame     -33.555  11.964  29.051  0.00  0.00    -0.355 N 
ATOM     46  H46 non d ame     -34.372  12.322  29.526  0.00  0.00     0.162 HD
BRANCH  45  47
ATOM     47  C20 non d ame     -32.495  12.896  28.611  0.00  0.00     0.013 C 
ATOM     48  H30 non d ame     -31.536  12.391  28.729  0.00  0.00     0.072 H 
BRANCH  47  49
ATOM     49  C21 non d ame     -32.534  14.140  29.469  0.00  0.00    -0.038 C 
ATOM     50  H31 non d ame     -33.347  13.983  30.178  0.00  0.00     0.036 H 
ATOM     51  H32 non d ame     -31.515  14.280  29.831  0.00  0.00     0.036 H 
BRANCH  49  52
ATOM     52  C22 non d ame     -32.891  15.410  28.667  0.00  0.00     0.018 C 
ATOM     53  H33 non d ame     -32.447  15.272  27.682  0.00  0.00     0.048 H 
ATOM     54  H34 non d ame     -33.970  15.528  28.768  0.00  0.00     0.048 H 
BRANCH  52  55
ATOM     55  C23 non d ame     -32.263  16.710  29.241  0.00  0.00     0.259 C 
ATOM     56  O7  non d ame     -31.542  16.665  30.186  0.00  0.00    -0.265 OA
BRANCH  55  57
ATOM     57  O8  non d ame     -32.569  17.960  28.633  0.00  0.00    -0.317 OA
BRANCH  57  58
ATOM     58  C29 non d ame     -32.657  17.908  27.207  0.00  0.00     0.052 C 
ATOM     59  H47 non d ame     -31.792  18.459  26.837  0.00  0.00     0.082 H 
ATOM     60  H48 non d ame     -32.781  16.855  26.956  0.00  0.00     0.082 H 
BRANCH  58  61
ATOM     61  C35 non d ame     -33.942  18.667  26.779  0.00  0.00    -0.034 A 
ATOM     62  C30 non d ame     -34.298  19.849  27.421  0.00  0.00    -0.075 A 
ATOM     63  C31 non d ame     -35.452  20.531  27.037  0.00  0.00    -0.082 A 
ATOM     64  H49 non d ame     -33.674  20.241  28.224  0.00  0.00     0.084 H 
ATOM     65  C32 non d ame     -36.252  20.026  26.009  0.00  0.00    -0.083 A 
ATOM     66  H50 non d ame     -35.728  21.459  27.541  0.00  0.00     0.083 H 
ATOM     67  C33 non d ame     -35.895  18.844  25.375  0.00  0.00    -0.082 A 
ATOM     68  H51 non d ame     -37.156  20.553  25.703  0.00  0.00     0.083 H 
ATOM     69  C34 non d ame     -34.742  18.160  25.754  0.00  0.00    -0.075 A 
ATOM     70  H52 non d ame     -36.523  18.450  24.574  0.00  0.00     0.083 H 
ATOM     71  H53 non d ame     -34.466  17.233  25.249  0.00  0.00     0.084 H 
ENDBRANCH  58  61
ENDBRANCH  57  58
ENDBRANCH  55  57
ENDBRANCH  52  55
ENDBRANCH  49  52
ENDBRANCH  47  49
BRANCH  47  72
ATOM     72  C24 non d ame     -32.717  13.277  27.148  0.00  0.00    -0.039 C 
ATOM     73  H35 non d ame     -33.394  12.520  26.752  0.00  0.00     0.036 H 
ATOM     74  H36 non d ame     -33.019  14.324  27.164  0.00  0.00     0.036 H 
BRANCH  72  75
ATOM     75  C25 non d ame     -31.361  13.189  26.300  0.00  0.00    -0.001 C 
ATOM     76  C26 non d ame     -31.140  14.580  25.453  0.00  0.00    -0.035 C 
ATOM     77  C27 non d ame     -30.905  14.270  24.156  0.00  0.00     0.085 C 
ATOM     78  H38 non d ame     -32.069  15.147  25.415  0.00  0.00     0.036 H 
ATOM     79  H39 non d ame     -30.217  15.068  25.769  0.00  0.00     0.036 H 
ATOM     80  N5  non d ame     -31.270  12.815  23.978  0.00  0.00    -0.049 N 
ATOM     81  H40 non d ame     -31.598  14.883  23.580  0.00  0.00     0.075 H 
ATOM     82  H41 non d ame     -29.831  14.385  24.018  0.00  0.00     0.075 H 
ATOM     83  C28 non d ame     -31.394  12.203  25.467  0.00  0.00     0.193 C 
ATOM     84  H42 non d ame     -32.183  12.800  23.547  0.00  0.00     0.280 HD
ATOM     85  H43 non d ame     -30.486  12.379  23.515  0.00  0.00     0.280 HD
ATOM     86  H44 non d ame     -30.602  11.573  25.874  0.00  0.00     0.129 H 
ATOM     87  H37 non d ame     -30.522  12.834  26.899  0.00  0.00     0.046 H 
BRANCH  83  88
ATOM     88  O6  non d ame     -32.593  11.436  25.586  0.00  0.00    -0.369 OA
ATOM     89  H45 non d ame     -33.003  11.613  26.437  0.00  0.00     0.212 HD
ENDBRANCH  83  88
ENDBRANCH  72  75
ENDBRANCH  47  72
ENDBRANCH  45  47
ENDBRANCH   1  43
BRANCH   1  90
ATOM     90  C16 non d ame     -34.452   9.328  30.755  0.00  0.00    -0.035 C 
ATOM     91  H21 non d ame     -34.001   8.349  30.908  0.00  0.00     0.037 H 
ATOM     92  H22 non d ame     -33.956  10.223  31.131  0.00  0.00     0.037 H 
BRANCH  90  93
ATOM     93  C17 non d ame     -35.855   9.279  31.440  0.00  0.00    -0.059 C 
ATOM     94  H23 non d ame     -35.739   9.656  32.456  0.00  0.00     0.038 H 
BRANCH  93  95
ATOM     95  C18 non d ame     -36.898  10.186  30.713  0.00  0.00    -0.073 C 
ATOM     96  H24 non d ame     -36.377  10.908  30.083  0.00  0.00     0.028 H 
ATOM     97  H25 non d ame     -37.547   9.568  30.093  0.00  0.00     0.028 H 
ATOM     98  H26 non d ame     -37.498  10.715  31.453  0.00  0.00     0.028 H 
ENDBRANCH  93  95
BRANCH  93  99
ATOM     99  C19 non d ame     -36.364   7.839  31.542  0.00  0.00    -0.073 C 
ATOM    100  H27 non d ame     -37.225   7.805  32.210  0.00  0.00     0.028 H 
ATOM    101  H28 non d ame     -36.657   7.485  30.554  0.00  0.00     0.028 H 
ATOM    102  H29 non d ame     -35.573   7.201  31.937  0.00  0.00     0.028 H 
ENDBRANCH  93  99
ENDBRANCH  90  93
ENDBRANCH   1  90
TORSDOF 26
ENDMDL
MODEL 11
REMARK VINA RESULT:      -6.9      2.399      9.569
REMARK  26 active torsions:
REMARK  status: ('A' for Active; 'I' for Inactive)
REMARK    1  A    between atoms: C2_2  and  C3_3 
REMARK    2  A    between atoms: C4_6  and  C5_7 
REMARK       I    between atoms: C5_7  and  N2_9 
REMARK    3  A    between atoms: N2_9  and  C6_10 
REMARK    4  A    between atoms: C6_10  and  C7_11 
REMARK    5  A    between atoms: C6_10  and  C8_13 
REMARK       I    between atoms: C7_11  and  N3_14 
REMARK    6  A    between atoms: N3_14  and  C9_15 
REMARK    7  A    between atoms: C9_15  and  C10_16 
REMARK    8  A    between atoms: C9_15  and  C11_18 
REMARK       I    between atoms: C10_16  and  N4_21 
REMARK    9  A    between atoms: C11_18  and  C12_19 
REMARK   10  A    between atoms: C11_18  and  C13_20 
REMARK   11  A    between atoms: N4_21  and  C14_22 
REMARK   12  A    between atoms: C14_22  and  C15_23 
REMARK   13  A    between atoms: C14_22  and  C16_25 
REMARK       I    between atoms: C15_23  and  N6_40 
REMARK   14  A    between atoms: C16_25  and  C17_26 
REMARK   15  A    between atoms: C17_26  and  C18_27 
REMARK   16  A    between atoms: C17_26  and  C19_28 
REMARK   17  A    between atoms: C20_29  and  C21_30 
REMARK   18  A    between atoms: C20_29  and  C24_33 
REMARK   19  A    between atoms: C20_29  and  N6_40 
REMARK   20  A    between atoms: C21_30  and  C22_31 
REMARK   21  A    between atoms: C22_31  and  C23_32 
REMARK   22  A    between atoms: C23_32  and  O8_43 
REMARK   23  A    between atoms: C24_33  and  C25_34 
REMARK   24  A    between atoms: C28_38  and  O6_39 
REMARK   25  A    between atoms: C29_42  and  O8_43 
REMARK   26  A    between atoms: C29_42  and  C35_49 
ROOT
ATOM      1  C14 non d ame     -31.375  14.659  24.153  0.00  0.00     0.089 C 
ATOM      2  H20 non d ame     -30.504  14.008  24.221  0.00  0.00     0.087 H 
ENDROOT
BRANCH   1   3
ATOM      3  N4  non d ame     -32.554  13.840  24.392  0.00  0.00    -0.346 N 
ATOM      4  C10 non d ame     -32.488  12.667  25.336  0.00  0.00     0.241 C 
ATOM      5  O4  non d ame     -31.474  12.399  25.891  0.00  0.00    -0.271 OA
ATOM      6  H19 non d ame     -33.407  14.083  23.908  0.00  0.00     0.163 HD
BRANCH   4   7
ATOM      7  C9  non d ame     -33.719  11.833  25.576  0.00  0.00     0.092 C 
ATOM      8  H11 non d ame     -34.364  11.885  24.699  0.00  0.00     0.088 H 
BRANCH   7   9
ATOM      9  N3  non d ame     -33.333  10.429  25.747  0.00  0.00    -0.346 N 
ATOM     10  C7  non d ame     -33.663   9.462  24.729  0.00  0.00     0.240 C 
ATOM     11  O3  non d ame     -34.239   9.796  23.766  0.00  0.00    -0.271 OA
ATOM     12  H10 non d ame     -32.838  10.126  26.573  0.00  0.00     0.163 HD
BRANCH  10  13
ATOM     13  C6  non d ame     -33.252   7.969  24.917  0.00  0.00     0.086 C 
ATOM     14  H6  non d ame     -32.204   7.851  25.192  0.00  0.00     0.086 H 
BRANCH  13  15
ATOM     15  N2  non d ame     -34.033   7.398  26.003  0.00  0.00    -0.343 N 
ATOM     16  C5  non d ame     -33.362   7.000  27.242  0.00  0.00     0.273 C 
ATOM     17  O2  non d ame     -32.194   7.140  27.355  0.00  0.00    -0.266 OA
ATOM     18  H5  non d ame     -35.030   7.280  25.896  0.00  0.00     0.163 HD
BRANCH  16  19
ATOM     19  C4  non d ame     -34.176   6.396  28.398  0.00  0.00     0.154 A 
ATOM     20  C1  non d ame     -35.305   6.978  29.056  0.00  0.00    -0.017 A 
ATOM     21  C2  non d ame     -35.681   6.031  30.035  0.00  0.00     0.077 A 
ATOM     22  H1  non d ame     -35.778   7.939  28.855  0.00  0.00     0.091 H 
ATOM     23  O1  non d ame     -34.860   5.027  29.940  0.00  0.00    -0.218 OA
ATOM     24  N1  non d ame     -33.972   5.217  28.991  0.00  0.00    -0.123 NA
BRANCH  21  25
ATOM     25  C3  non d ame     -36.836   6.162  31.018  0.00  0.00    -0.029 C 
ATOM     26  H2  non d ame     -37.091   7.214  31.143  0.00  0.00     0.036 H 
ATOM     27  H3  non d ame     -37.703   5.623  30.635  0.00  0.00     0.036 H 
ATOM     28  H4  non d ame     -36.545   5.742  31.981  0.00  0.00     0.036 H 
ENDBRANCH  21  25
ENDBRANCH  16  19
ENDBRANCH  13  15
BRANCH  13  29
ATOM     29  C8  non d ame     -33.509   7.209  23.641  0.00  0.00    -0.049 C 
ATOM     30  H7  non d ame     -34.295   7.706  23.074  0.00  0.00     0.030 H 
ATOM     31  H8  non d ame     -32.597   7.179  23.046  0.00  0.00     0.030 H 
ATOM     32  H9  non d ame     -33.821   6.192  23.880  0.00  0.00     0.030 H 
ENDBRANCH  13  29
ENDBRANCH  10  13
ENDBRANCH   7   9
BRANCH   7  33
ATOM     33  C11 non d ame     -34.439  12.330  26.864  0.00  0.00    -0.033 C 
ATOM     34  H12 non d ame     -33.682  12.448  27.639  0.00  0.00     0.042 H 
BRANCH  33  35
ATOM     35  C12 non d ame     -35.103  13.725  26.641  0.00  0.00    -0.071 C 
ATOM     36  H13 non d ame     -34.896  14.367  27.497  0.00  0.00     0.028 H 
ATOM     37  H14 non d ame     -34.698  14.180  25.738  0.00  0.00     0.028 H 
ATOM     38  H15 non d ame     -36.181  13.601  26.535  0.00  0.00     0.028 H 
ENDBRANCH  33  35
BRANCH  33  39
ATOM     39  C13 non d ame     -35.482  11.279  27.363  0.00  0.00    -0.071 C 
ATOM     40  H16 non d ame     -35.536  10.455  26.652  0.00  0.00     0.028 H 
ATOM     41  H17 non d ame     -35.176  10.899  28.339  0.00  0.00     0.028 H 
ATOM     42  H18 non d ame     -36.461  11.751  27.449  0.00  0.00     0.028 H 
ENDBRANCH  33  39
ENDBRANCH   7  33
ENDBRANCH   4   7
ENDBRANCH   1   3
BRANCH   1  43
ATOM     43  C15 non d ame     -31.340  15.799  25.212  0.00  0.00     0.240 C 
ATOM     44  O5  non d ame     -30.300  16.278  25.530  0.00  0.00    -0.271 OA
ATOM     45  N6  non d ame     -32.604  16.299  25.823  0.00  0.00    -0.355 N 
ATOM     46  H46 non d ame     -33.495  15.903  25.557  0.00  0.00     0.162 HD
BRANCH  45  47
ATOM     47  C20 non d ame     -32.554  17.383  26.827  0.00  0.00     0.013 C 
ATOM     48  H30 non d ame     -31.506  17.614  27.018  0.00  0.00     0.072 H 
BRANCH  47  49
ATOM     49  C21 non d ame     -33.222  16.917  28.101  0.00  0.00    -0.038 C 
ATOM     50  H31 non d ame     -32.920  17.629  28.869  0.00  0.00     0.036 H 
ATOM     51  H32 non d ame     -34.277  16.797  27.853  0.00  0.00     0.036 H 
BRANCH  49  52
ATOM     52  C22 non d ame     -32.722  15.532  28.567  0.00  0.00     0.018 C 
ATOM     53  H33 non d ame     -33.598  15.021  28.964  0.00  0.00     0.048 H 
ATOM     54  H34 non d ame     -32.184  15.112  27.717  0.00  0.00     0.048 H 
BRANCH  52  55
ATOM     55  C23 non d ame     -31.698  15.597  29.734  0.00  0.00     0.259 C 
ATOM     56  O7  non d ame     -31.442  16.634  30.254  0.00  0.00    -0.265 OA
BRANCH  55  57
ATOM     57  O8  non d ame     -31.057  14.402  30.165  0.00  0.00    -0.317 OA
BRANCH  57  58
ATOM     58  C29 non d ame     -31.061  13.354  29.191  0.00  0.00     0.052 C 
ATOM     59  H47 non d ame     -31.511  13.784  28.297  0.00  0.00     0.082 H 
ATOM     60  H48 non d ame     -30.041  12.974  29.161  0.00  0.00     0.082 H 
BRANCH  58  61
ATOM     61  C35 non d ame     -31.989  12.222  29.712  0.00  0.00    -0.034 A 
ATOM     62  C30 non d ame     -32.695  12.392  30.898  0.00  0.00    -0.075 A 
ATOM     63  C31 non d ame     -33.528  11.376  31.366  0.00  0.00    -0.082 A 
ATOM     64  H49 non d ame     -32.597  13.320  31.462  0.00  0.00     0.084 H 
ATOM     65  C32 non d ame     -33.651  10.186  30.643  0.00  0.00    -0.083 A 
ATOM     66  H50 non d ame     -34.082  11.513  32.296  0.00  0.00     0.083 H 
ATOM     67  C33 non d ame     -32.940  10.021  29.462  0.00  0.00    -0.082 A 
ATOM     68  H51 non d ame     -34.300   9.387  31.002  0.00  0.00     0.083 H 
ATOM     69  C34 non d ame     -32.109  11.034  28.990  0.00  0.00    -0.075 A 
ATOM     70  H52 non d ame     -33.036   9.090  28.902  0.00  0.00     0.083 H 
ATOM     71  H53 non d ame     -31.556  10.897  28.061  0.00  0.00     0.084 H 
ENDBRANCH  58  61
ENDBRANCH  57  58
ENDBRANCH  55  57
ENDBRANCH  52  55
ENDBRANCH  49  52
ENDBRANCH  47  49
BRANCH  47  72
ATOM     72  C24 non d ame     -33.279  18.617  26.292  0.00  0.00    -0.039 C 
ATOM     73  H35 non d ame     -32.694  19.469  26.639  0.00  0.00     0.036 H 
ATOM     74  H36 non d ame     -33.403  18.440  25.224  0.00  0.00     0.036 H 
BRANCH  72  75
ATOM     75  C25 non d ame     -34.745  18.762  26.921  0.00  0.00    -0.001 C 
ATOM     76  C26 non d ame     -35.880  18.446  25.774  0.00  0.00    -0.035 C 
ATOM     77  C27 non d ame     -36.774  19.463  25.753  0.00  0.00     0.085 C 
ATOM     78  H38 non d ame     -35.430  18.482  24.782  0.00  0.00     0.036 H 
ATOM     79  H39 non d ame     -36.481  17.585  26.069  0.00  0.00     0.036 H 
ATOM     80  N5  non d ame     -36.172  20.596  26.549  0.00  0.00    -0.049 N 
ATOM     81  H40 non d ame     -36.849  19.763  24.707  0.00  0.00     0.075 H 
ATOM     82  H41 non d ame     -37.653  19.089  26.276  0.00  0.00     0.075 H 
ATOM     83  C28 non d ame     -34.943  19.955  27.375  0.00  0.00     0.193 C 
ATOM     84  H42 non d ame     -35.801  21.252  25.877  0.00  0.00     0.280 HD
ATOM     85  H43 non d ame     -36.882  20.891  27.205  0.00  0.00     0.280 HD
ATOM     86  H44 non d ame     -35.041  19.747  28.441  0.00  0.00     0.129 H 
ATOM     87  H37 non d ame     -34.840  18.237  27.871  0.00  0.00     0.046 H 
BRANCH  83  88
ATOM     88  O6  non d ame     -33.782  20.778  27.250  0.00  0.00    -0.369 OA
ATOM     89  H45 non d ame     -33.947  21.629  27.665  0.00  0.00     0.212 HD
ENDBRANCH  83  88
ENDBRANCH  72  75
ENDBRANCH  47  72
ENDBRANCH  45  47
ENDBRANCH   1  43
BRANCH   1  90
ATOM     90  C16 non d ame     -31.461  15.260  22.759  0.00  0.00    -0.035 C 
ATOM     91  H21 non d ame     -32.171  14.635  22.219  0.00  0.00     0.037 H 
ATOM     92  H22 non d ame     -31.672  16.318  22.914  0.00  0.00     0.037 H 
BRANCH  90  93
ATOM     93  C17 non d ame     -30.119  15.189  21.964  0.00  0.00    -0.059 C 
ATOM     94  H23 non d ame     -29.421  15.883  22.431  0.00  0.00     0.038 H 
BRANCH  93  95
ATOM     95  C18 non d ame     -29.478  13.765  22.013  0.00  0.00    -0.073 C 
ATOM     96  H24 non d ame     -30.250  13.026  22.228  0.00  0.00     0.028 H 
ATOM     97  H25 non d ame     -29.020  13.540  21.050  0.00  0.00     0.028 H 
ATOM     98  H26 non d ame     -28.718  13.735  22.793  0.00  0.00     0.028 H 
ENDBRANCH  93  95
BRANCH  93  99
ATOM     99  C19 non d ame     -30.316  15.647  20.516  0.00  0.00    -0.073 C 
ATOM    100  H27 non d ame     -31.328  16.036  20.393  0.00  0.00     0.028 H 
ATOM    101  H28 non d ame     -29.596  16.431  20.281  0.00  0.00     0.028 H 
ATOM    102  H29 non d ame     -30.167  14.803  19.844  0.00  0.00     0.028 H 
ENDBRANCH  93  99
ENDBRANCH  90  93
ENDBRANCH   1  90
TORSDOF 26
ENDMDL
MODEL 12
REMARK VINA RESULT:      -6.8      2.784      6.572
REMARK  26 active torsions:
REMARK  status: ('A' for Active; 'I' for Inactive)
REMARK    1  A    between atoms: C2_2  and  C3_3 
REMARK    2  A    between atoms: C4_6  and  C5_7 
REMARK       I    between atoms: C5_7  and  N2_9 
REMARK    3  A    between atoms: N2_9  and  C6_10 
REMARK    4  A    between atoms: C6_10  and  C7_11 
REMARK    5  A    between atoms: C6_10  and  C8_13 
REMARK       I    between atoms: C7_11  and  N3_14 
REMARK    6  A    between atoms: N3_14  and  C9_15 
REMARK    7  A    between atoms: C9_15  and  C10_16 
REMARK    8  A    between atoms: C9_15  and  C11_18 
REMARK       I    between atoms: C10_16  and  N4_21 
REMARK    9  A    between atoms: C11_18  and  C12_19 
REMARK   10  A    between atoms: C11_18  and  C13_20 
REMARK   11  A    between atoms: N4_21  and  C14_22 
REMARK   12  A    between atoms: C14_22  and  C15_23 
REMARK   13  A    between atoms: C14_22  and  C16_25 
REMARK       I    between atoms: C15_23  and  N6_40 
REMARK   14  A    between atoms: C16_25  and  C17_26 
REMARK   15  A    between atoms: C17_26  and  C18_27 
REMARK   16  A    between atoms: C17_26  and  C19_28 
REMARK   17  A    between atoms: C20_29  and  C21_30 
REMARK   18  A    between atoms: C20_29  and  C24_33 
REMARK   19  A    between atoms: C20_29  and  N6_40 
REMARK   20  A    between atoms: C21_30  and  C22_31 
REMARK   21  A    between atoms: C22_31  and  C23_32 
REMARK   22  A    between atoms: C23_32  and  O8_43 
REMARK   23  A    between atoms: C24_33  and  C25_34 
REMARK   24  A    between atoms: C28_38  and  O6_39 
REMARK   25  A    between atoms: C29_42  and  O8_43 
REMARK   26  A    between atoms: C29_42  and  C35_49 
ROOT
ATOM      1  C14 non d ame     -32.699   7.917  25.497  0.00  0.00     0.089 C 
ATOM      2  H20 non d ame     -31.761   7.363  25.485  0.00  0.00     0.087 H 
ENDROOT
BRANCH   1   3
ATOM      3  N4  non d ame     -33.694   7.081  26.152  0.00  0.00    -0.346 N 
ATOM      4  C10 non d ame     -33.269   5.875  26.950  0.00  0.00     0.241 C 
ATOM      5  O4  non d ame     -32.120   5.595  27.050  0.00  0.00    -0.271 OA
ATOM      6  H19 non d ame     -34.666   7.334  26.053  0.00  0.00     0.163 HD
BRANCH   4   7
ATOM      7  C9  non d ame     -34.311   5.023  27.626  0.00  0.00     0.092 C 
ATOM      8  H11 non d ame     -33.894   4.036  27.825  0.00  0.00     0.088 H 
BRANCH   7   9
ATOM      9  N3  non d ame     -34.662   5.614  28.921  0.00  0.00    -0.346 N 
ATOM     10  C7  non d ame     -34.057   5.112  30.129  0.00  0.00     0.240 C 
ATOM     11  O3  non d ame     -33.286   4.233  30.079  0.00  0.00    -0.271 OA
ATOM     12  H10 non d ame     -35.327   6.372  28.979  0.00  0.00     0.163 HD
BRANCH  10  13
ATOM     13  C6  non d ame     -34.437   5.743  31.505  0.00  0.00     0.086 C 
ATOM     14  H6  non d ame     -33.654   6.387  31.904  0.00  0.00     0.086 H 
BRANCH  13  15
ATOM     15  N2  non d ame     -35.614   6.579  31.332  0.00  0.00    -0.343 N 
ATOM     16  C5  non d ame     -35.507   8.025  31.531  0.00  0.00     0.273 C 
ATOM     17  O2  non d ame     -34.471   8.508  31.834  0.00  0.00    -0.266 OA
ATOM     18  H5  non d ame     -36.496   6.158  31.077  0.00  0.00     0.163 HD
BRANCH  16  19
ATOM     19  C4  non d ame     -36.744   8.920  31.351  0.00  0.00     0.154 A 
ATOM     20  C1  non d ame     -38.116   8.526  31.434  0.00  0.00    -0.017 A 
ATOM     21  C2  non d ame     -38.849   9.709  31.194  0.00  0.00     0.077 A 
ATOM     22  H1  non d ame     -38.518   7.533  31.637  0.00  0.00     0.091 H 
ATOM     23  O1  non d ame     -37.990  10.665  30.999  0.00  0.00    -0.218 OA
ATOM     24  N1  non d ame     -36.754  10.229  31.086  0.00  0.00    -0.123 NA
BRANCH  21  25
ATOM     25  C3  non d ame     -40.366   9.841  31.169  0.00  0.00    -0.029 C 
ATOM     26  H2  non d ame     -40.647  10.859  31.437  0.00  0.00     0.036 H 
ATOM     27  H3  non d ame     -40.735   9.615  30.169  0.00  0.00     0.036 H 
ATOM     28  H4  non d ame     -40.804   9.144  31.884  0.00  0.00     0.036 H 
ENDBRANCH  21  25
ENDBRANCH  16  19
ENDBRANCH  13  15
BRANCH  13  29
ATOM     29  C8  non d ame     -34.722   4.649  32.501  0.00  0.00    -0.049 C 
ATOM     30  H7  non d ame     -35.446   3.953  32.081  0.00  0.00     0.030 H 
ATOM     31  H8  non d ame     -33.799   4.117  32.731  0.00  0.00     0.030 H 
ATOM     32  H9  non d ame     -35.126   5.086  33.415  0.00  0.00     0.030 H 
ENDBRANCH  13  29
ENDBRANCH  10  13
ENDBRANCH   7   9
BRANCH   7  33
ATOM     33  C11 non d ame     -35.583   4.952  26.729  0.00  0.00    -0.033 C 
ATOM     34  H12 non d ame     -35.679   5.910  26.220  0.00  0.00     0.042 H 
BRANCH  33  35
ATOM     35  C12 non d ame     -35.444   3.850  25.634  0.00  0.00    -0.071 C 
ATOM     36  H13 non d ame     -36.404   3.350  25.497  0.00  0.00     0.028 H 
ATOM     37  H14 non d ame     -35.136   4.307  24.694  0.00  0.00     0.028 H 
ATOM     38  H15 non d ame     -34.697   3.119  25.945  0.00  0.00     0.028 H 
ENDBRANCH  33  35
BRANCH  33  39
ATOM     39  C13 non d ame     -36.865   4.734  27.594  0.00  0.00    -0.071 C 
ATOM     40  H16 non d ame     -36.829   3.747  28.056  0.00  0.00     0.028 H 
ATOM     41  H17 non d ame     -36.915   5.498  28.371  0.00  0.00     0.028 H 
ATOM     42  H18 non d ame     -37.748   4.806  26.960  0.00  0.00     0.028 H 
ENDBRANCH  33  39
ENDBRANCH   7  33
ENDBRANCH   4   7
ENDBRANCH   1   3
BRANCH   1  43
ATOM     43  C15 non d ame     -32.580   9.254  26.284  0.00  0.00     0.240 C 
ATOM     44  O5  non d ame     -31.858  10.111  25.888  0.00  0.00    -0.271 OA
ATOM     45  N6  non d ame     -33.375   9.471  27.527  0.00  0.00    -0.355 N 
ATOM     46  H46 non d ame     -33.996   8.752  27.870  0.00  0.00     0.162 HD
BRANCH  45  47
ATOM     47  C20 non d ame     -33.251  10.748  28.263  0.00  0.00     0.013 C 
ATOM     48  H30 non d ame     -32.566  11.388  27.708  0.00  0.00     0.072 H 
BRANCH  47  49
ATOM     49  C21 non d ame     -32.702  10.477  29.645  0.00  0.00    -0.038 C 
ATOM     50  H31 non d ame     -33.424   9.816  30.125  0.00  0.00     0.036 H 
ATOM     51  H32 non d ame     -31.675  10.143  29.493  0.00  0.00     0.036 H 
BRANCH  49  52
ATOM     52  C22 non d ame     -32.624  11.748  30.519  0.00  0.00     0.018 C 
ATOM     53  H33 non d ame     -33.271  12.478  30.035  0.00  0.00     0.048 H 
ATOM     54  H34 non d ame     -32.836  11.419  31.536  0.00  0.00     0.048 H 
BRANCH  52  55
ATOM     55  C23 non d ame     -31.210  12.391  30.563  0.00  0.00     0.259 C 
ATOM     56  O7  non d ame     -30.298  11.809  31.058  0.00  0.00    -0.265 OA
BRANCH  55  57
ATOM     57  O8  non d ame     -31.018  13.691  30.018  0.00  0.00    -0.317 OA
BRANCH  57  58
ATOM     58  C29 non d ame     -32.208  14.283  29.489  0.00  0.00     0.052 C 
ATOM     59  H47 non d ame     -32.973  13.508  29.546  0.00  0.00     0.082 H 
ATOM     60  H48 non d ame     -32.338  15.219  30.031  0.00  0.00     0.082 H 
BRANCH  58  61
ATOM     61  C35 non d ame     -31.954  14.614  27.994  0.00  0.00    -0.034 A 
ATOM     62  C30 non d ame     -32.412  15.814  27.459  0.00  0.00    -0.075 A 
ATOM     63  C31 non d ame     -32.184  16.111  26.116  0.00  0.00    -0.082 A 
ATOM     64  H49 non d ame     -32.949  16.521  28.091  0.00  0.00     0.084 H 
ATOM     65  C32 non d ame     -31.497  15.202  25.307  0.00  0.00    -0.083 A 
ATOM     66  H50 non d ame     -32.542  17.054  25.700  0.00  0.00     0.083 H 
ATOM     67  C33 non d ame     -31.046  14.005  25.844  0.00  0.00    -0.082 A 
ATOM     68  H51 non d ame     -31.314  15.428  24.256  0.00  0.00     0.083 H 
ATOM     69  C34 non d ame     -31.270  13.704  27.186  0.00  0.00    -0.075 A 
ATOM     70  H52 non d ame     -30.513  13.296  25.209  0.00  0.00     0.083 H 
ATOM     71  H53 non d ame     -30.911  12.762  27.601  0.00  0.00     0.084 H 
ENDBRANCH  58  61
ENDBRANCH  57  58
ENDBRANCH  55  57
ENDBRANCH  52  55
ENDBRANCH  49  52
ENDBRANCH  47  49
BRANCH  47  72
ATOM     72  C24 non d ame     -34.621  11.411  28.379  0.00  0.00    -0.039 C 
ATOM     73  H35 non d ame     -35.244  10.698  28.920  0.00  0.00     0.036 H 
ATOM     74  H36 non d ame     -34.431  12.398  28.801  0.00  0.00     0.036 H 
BRANCH  72  75
ATOM     75  C25 non d ame     -35.296  11.634  26.943  0.00  0.00    -0.001 C 
ATOM     76  C26 non d ame     -34.719  13.014  26.262  0.00  0.00    -0.035 C 
ATOM     77  C27 non d ame     -35.766  13.777  25.865  0.00  0.00     0.085 C 
ATOM     78  H38 non d ame     -34.229  13.628  27.017  0.00  0.00     0.036 H 
ATOM     79  H39 non d ame     -34.204  12.784  25.328  0.00  0.00     0.036 H 
ATOM     80  N5  non d ame     -37.003  13.195  26.507  0.00  0.00    -0.049 N 
ATOM     81  H40 non d ame     -35.580  14.766  26.282  0.00  0.00     0.075 H 
ATOM     82  H41 non d ame     -35.830  13.644  24.786  0.00  0.00     0.075 H 
ATOM     83  C28 non d ame     -36.580  11.731  27.040  0.00  0.00     0.193 C 
ATOM     84  H42 non d ame     -37.213  13.779  27.303  0.00  0.00     0.280 HD
ATOM     85  H43 non d ame     -37.682  13.085  25.768  0.00  0.00     0.280 HD
ATOM     86  H44 non d ame     -36.888  10.836  26.500  0.00  0.00     0.129 H 
ATOM     87  H37 non d ame     -35.273  10.732  26.332  0.00  0.00     0.046 H 
BRANCH  83  88
ATOM     88  O6  non d ame     -37.035  11.545  28.382  0.00  0.00    -0.369 OA
ATOM     89  H45 non d ame     -36.483  12.055  28.981  0.00  0.00     0.212 HD
ENDBRANCH  83  88
ENDBRANCH  72  75
ENDBRANCH  47  72
ENDBRANCH  45  47
ENDBRANCH   1  43
BRANCH   1  90
ATOM     90  C16 non d ame     -33.149   8.201  24.073  0.00  0.00    -0.035 C 
ATOM     91  H21 non d ame     -34.145   7.770  23.994  0.00  0.00     0.037 H 
ATOM     92  H22 non d ame     -33.004   9.273  23.934  0.00  0.00     0.037 H 
BRANCH  90  93
ATOM     93  C17 non d ame     -32.275   7.493  22.988  0.00  0.00    -0.059 C 
ATOM     94  H23 non d ame     -32.943   6.903  22.361  0.00  0.00     0.038 H 
BRANCH  93  95
ATOM     95  C18 non d ame     -31.536   8.515  22.067  0.00  0.00    -0.073 C 
ATOM     96  H24 non d ame     -32.268   9.153  21.570  0.00  0.00     0.028 H 
ATOM     97  H25 non d ame     -30.869   9.132  22.669  0.00  0.00     0.028 H 
ATOM     98  H26 non d ame     -30.956   7.976  21.318  0.00  0.00     0.028 H 
ENDBRANCH  93  95
BRANCH  93  99
ATOM     99  C19 non d ame     -31.281   6.524  23.634  0.00  0.00    -0.073 C 
ATOM    100  H27 non d ame     -30.263   6.871  23.448  0.00  0.00     0.028 H 
ATOM    101  H28 non d ame     -31.459   6.482  24.708  0.00  0.00     0.028 H 
ATOM    102  H29 non d ame     -31.410   5.531  23.204  0.00  0.00     0.028 H 
ENDBRANCH  93  99
ENDBRANCH  90  93
ENDBRANCH   1  90
TORSDOF 26
ENDMDL
MODEL 13
REMARK VINA RESULT:      -6.8      2.494      6.304
REMARK  26 active torsions:
REMARK  status: ('A' for Active; 'I' for Inactive)
REMARK    1  A    between atoms: C2_2  and  C3_3 
REMARK    2  A    between atoms: C4_6  and  C5_7 
REMARK       I    between atoms: C5_7  and  N2_9 
REMARK    3  A    between atoms: N2_9  and  C6_10 
REMARK    4  A    between atoms: C6_10  and  C7_11 
REMARK    5  A    between atoms: C6_10  and  C8_13 
REMARK       I    between atoms: C7_11  and  N3_14 
REMARK    6  A    between atoms: N3_14  and  C9_15 
REMARK    7  A    between atoms: C9_15  and  C10_16 
REMARK    8  A    between atoms: C9_15  and  C11_18 
REMARK       I    between atoms: C10_16  and  N4_21 
REMARK    9  A    between atoms: C11_18  and  C12_19 
REMARK   10  A    between atoms: C11_18  and  C13_20 
REMARK   11  A    between atoms: N4_21  and  C14_22 
REMARK   12  A    between atoms: C14_22  and  C15_23 
REMARK   13  A    between atoms: C14_22  and  C16_25 
REMARK       I    between atoms: C15_23  and  N6_40 
REMARK   14  A    between atoms: C16_25  and  C17_26 
REMARK   15  A    between atoms: C17_26  and  C18_27 
REMARK   16  A    between atoms: C17_26  and  C19_28 
REMARK   17  A    between atoms: C20_29  and  C21_30 
REMARK   18  A    between atoms: C20_29  and  C24_33 
REMARK   19  A    between atoms: C20_29  and  N6_40 
REMARK   20  A    between atoms: C21_30  and  C22_31 
REMARK   21  A    between atoms: C22_31  and  C23_32 
REMARK   22  A    between atoms: C23_32  and  O8_43 
REMARK   23  A    between atoms: C24_33  and  C25_34 
REMARK   24  A    between atoms: C28_38  and  O6_39 
REMARK   25  A    between atoms: C29_42  and  O8_43 
REMARK   26  A    between atoms: C29_42  and  C35_49 
ROOT
ATOM      1  C14 non d ame     -32.036   9.478  24.484  0.00  0.00     0.089 C 
ATOM      2  H20 non d ame     -31.533   8.630  24.950  0.00  0.00     0.087 H 
ENDROOT
BRANCH   1   3
ATOM      3  N4  non d ame     -33.397   9.517  24.998  0.00  0.00    -0.346 N 
ATOM      4  C10 non d ame     -34.097   8.243  25.395  0.00  0.00     0.241 C 
ATOM      5  O4  non d ame     -33.547   7.196  25.290  0.00  0.00    -0.271 OA
ATOM      6  H19 non d ame     -33.848  10.416  25.077  0.00  0.00     0.163 HD
BRANCH   4   7
ATOM      7  C9  non d ame     -35.505   8.301  25.930  0.00  0.00     0.092 C 
ATOM      8  H11 non d ame     -35.795   7.313  26.285  0.00  0.00     0.088 H 
BRANCH   7   9
ATOM      9  N3  non d ame     -35.553   9.207  27.082  0.00  0.00    -0.346 N 
ATOM     10  C7  non d ame     -36.018   8.725  28.358  0.00  0.00     0.240 C 
ATOM     11  O3  non d ame     -36.358   7.612  28.477  0.00  0.00    -0.271 OA
ATOM     12  H10 non d ame     -35.264  10.171  26.994  0.00  0.00     0.163 HD
BRANCH  10  13
ATOM     13  C6  non d ame     -36.070   9.695  29.580  0.00  0.00     0.086 C 
ATOM     14  H6  non d ame     -35.933   9.182  30.531  0.00  0.00     0.086 H 
BRANCH  13  15
ATOM     15  N2  non d ame     -34.986  10.656  29.466  0.00  0.00    -0.343 N 
ATOM     16  C5  non d ame     -33.775  10.476  30.270  0.00  0.00     0.273 C 
ATOM     17  O2  non d ame     -33.684   9.557  31.008  0.00  0.00    -0.266 OA
ATOM     18  H5  non d ame     -35.073  11.440  28.835  0.00  0.00     0.163 HD
BRANCH  16  19
ATOM     19  C4  non d ame     -32.621  11.485  30.159  0.00  0.00     0.154 A 
ATOM     20  C1  non d ame     -32.211  12.204  28.992  0.00  0.00    -0.017 A 
ATOM     21  C2  non d ame     -31.116  12.990  29.417  0.00  0.00     0.077 A 
ATOM     22  H1  non d ame     -32.641  12.163  27.992  0.00  0.00     0.091 H 
ATOM     23  O1  non d ame     -30.929  12.745  30.680  0.00  0.00    -0.218 OA
ATOM     24  N1  non d ame     -31.795  11.869  31.136  0.00  0.00    -0.123 NA
BRANCH  21  25
ATOM     25  C3  non d ame     -30.307  13.949  28.554  0.00  0.00    -0.029 C 
ATOM     26  H2  non d ame     -30.406  14.961  28.944  0.00  0.00     0.036 H 
ATOM     27  H3  non d ame     -29.256  13.656  28.572  0.00  0.00     0.036 H 
ATOM     28  H4  non d ame     -30.675  13.916  27.529  0.00  0.00     0.036 H 
ENDBRANCH  21  25
ENDBRANCH  16  19
ENDBRANCH  13  15
BRANCH  13  29
ATOM     29  C8  non d ame     -37.396  10.411  29.600  0.00  0.00    -0.049 C 
ATOM     30  H7  non d ame     -37.592  10.841  28.618  0.00  0.00     0.030 H 
ATOM     31  H8  non d ame     -38.187   9.705  29.851  0.00  0.00     0.030 H 
ATOM     32  H9  non d ame     -37.368  11.207  30.346  0.00  0.00     0.030 H 
ENDBRANCH  13  29
ENDBRANCH  10  13
ENDBRANCH   7   9
BRANCH   7  33
ATOM     33  C11 non d ame     -36.459   8.829  24.818  0.00  0.00    -0.033 C 
ATOM     34  H12 non d ame     -37.449   8.416  25.012  0.00  0.00     0.042 H 
BRANCH  33  35
ATOM     35  C12 non d ame     -36.582  10.384  24.867  0.00  0.00    -0.071 C 
ATOM     36  H13 non d ame     -36.177  10.751  25.811  0.00  0.00     0.028 H 
ATOM     37  H14 non d ame     -36.025  10.819  24.039  0.00  0.00     0.028 H 
ATOM     38  H15 non d ame     -37.632  10.668  24.789  0.00  0.00     0.028 H 
ENDBRANCH  33  35
BRANCH  33  39
ATOM     39  C13 non d ame     -35.999   8.341  23.408  0.00  0.00    -0.071 C 
ATOM     40  H16 non d ame     -35.179   8.967  23.056  0.00  0.00     0.028 H 
ATOM     41  H17 non d ame     -35.665   7.305  23.472  0.00  0.00     0.028 H 
ATOM     42  H18 non d ame     -36.833   8.409  22.709  0.00  0.00     0.028 H 
ENDBRANCH  33  39
ENDBRANCH   7  33
ENDBRANCH   4   7
ENDBRANCH   1   3
BRANCH   1  43
ATOM     43  C15 non d ame     -31.341  10.829  24.820  0.00  0.00     0.240 C 
ATOM     44  O5  non d ame     -30.696  10.931  25.814  0.00  0.00    -0.271 OA
ATOM     45  N6  non d ame     -31.470  11.993  23.898  0.00  0.00    -0.355 N 
ATOM     46  H46 non d ame     -32.011  11.917  23.049  0.00  0.00     0.162 HD
BRANCH  45  47
ATOM     47  C20 non d ame     -30.803  13.270  24.232  0.00  0.00     0.013 C 
ATOM     48  H30 non d ame     -30.208  13.111  25.132  0.00  0.00     0.072 H 
BRANCH  47  49
ATOM     49  C21 non d ame     -31.850  14.331  24.483  0.00  0.00    -0.038 C 
ATOM     50  H31 non d ame     -31.297  15.251  24.676  0.00  0.00     0.036 H 
ATOM     51  H32 non d ame     -32.535  14.274  23.637  0.00  0.00     0.036 H 
BRANCH  49  52
ATOM     52  C22 non d ame     -32.693  14.054  25.748  0.00  0.00     0.018 C 
ATOM     53  H33 non d ame     -33.543  13.463  25.411  0.00  0.00     0.048 H 
ATOM     54  H34 non d ame     -31.998  13.643  26.480  0.00  0.00     0.048 H 
BRANCH  52  55
ATOM     55  C23 non d ame     -33.289  15.334  26.395  0.00  0.00     0.259 C 
ATOM     56  O7  non d ame     -33.404  15.416  27.576  0.00  0.00    -0.265 OA
BRANCH  55  57
ATOM     57  O8  non d ame     -33.711  16.406  25.560  0.00  0.00    -0.317 OA
BRANCH  57  58
ATOM     58  C29 non d ame     -33.079  17.655  25.851  0.00  0.00     0.052 C 
ATOM     59  H47 non d ame     -32.411  17.460  26.690  0.00  0.00     0.082 H 
ATOM     60  H48 non d ame     -32.675  18.010  24.903  0.00  0.00     0.082 H 
BRANCH  58  61
ATOM     61  C35 non d ame     -34.175  18.650  26.318  0.00  0.00    -0.034 A 
ATOM     62  C30 non d ame     -35.092  19.155  25.401  0.00  0.00    -0.075 A 
ATOM     63  C31 non d ame     -36.077  20.049  25.820  0.00  0.00    -0.082 A 
ATOM     64  H49 non d ame     -35.039  18.853  24.355  0.00  0.00     0.084 H 
ATOM     65  C32 non d ame     -36.143  20.438  27.160  0.00  0.00    -0.083 A 
ATOM     66  H50 non d ame     -36.796  20.443  25.099  0.00  0.00     0.083 H 
ATOM     67  C33 non d ame     -35.223  19.933  28.070  0.00  0.00    -0.082 A 
ATOM     68  H51 non d ame     -36.910  21.135  27.496  0.00  0.00     0.083 H 
ATOM     69  C34 non d ame     -34.238  19.039  27.656  0.00  0.00    -0.075 A 
ATOM     70  H52 non d ame     -35.276  20.240  29.115  0.00  0.00     0.083 H 
ATOM     71  H53 non d ame     -33.521  18.646  28.377  0.00  0.00     0.084 H 
ENDBRANCH  58  61
ENDBRANCH  57  58
ENDBRANCH  55  57
ENDBRANCH  52  55
ENDBRANCH  49  52
ENDBRANCH  47  49
BRANCH  47  72
ATOM     72  C24 non d ame     -29.906  13.701  23.073  0.00  0.00    -0.039 C 
ATOM     73  H35 non d ame     -28.913  13.826  23.507  0.00  0.00     0.036 H 
ATOM     74  H36 non d ame     -30.069  12.962  22.289  0.00  0.00     0.036 H 
BRANCH  72  75
ATOM     75  C25 non d ame     -30.346  15.123  22.481  0.00  0.00    -0.001 C 
ATOM     76  C26 non d ame     -31.062  14.922  21.015  0.00  0.00    -0.035 C 
ATOM     77  C27 non d ame     -30.469  15.750  20.122  0.00  0.00     0.085 C 
ATOM     78  H38 non d ame     -30.843  13.928  20.625  0.00  0.00     0.036 H 
ATOM     79  H39 non d ame     -32.091  15.279  21.049  0.00  0.00     0.036 H 
ATOM     80  N5  non d ame     -29.200  16.257  20.766  0.00  0.00    -0.049 N 
ATOM     81  H40 non d ame     -30.209  15.121  19.270  0.00  0.00     0.075 H 
ATOM     82  H41 non d ame     -31.159  16.582  19.993  0.00  0.00     0.075 H 
ATOM     83  C28 non d ame     -29.327  15.903  22.335  0.00  0.00     0.193 C 
ATOM     84  H42 non d ame     -28.444  15.715  20.374  0.00  0.00     0.280 HD
ATOM     85  H43 non d ame     -29.210  17.262  20.660  0.00  0.00     0.280 HD
ATOM     86  H44 non d ame     -29.569  16.682  23.060  0.00  0.00     0.129 H 
ATOM     87  H37 non d ame     -30.878  15.729  23.214  0.00  0.00     0.046 H 
BRANCH  83  88
ATOM     88  O6  non d ame     -28.118  15.305  22.805  0.00  0.00    -0.369 OA
ATOM     89  H45 non d ame     -27.456  15.331  22.109  0.00  0.00     0.212 HD
ENDBRANCH  83  88
ENDBRANCH  72  75
ENDBRANCH  47  72
ENDBRANCH  45  47
ENDBRANCH   1  43
BRANCH   1  90
ATOM     90  C16 non d ame     -32.079   9.287  22.977  0.00  0.00    -0.035 C 
ATOM     91  H21 non d ame     -32.989   8.722  22.784  0.00  0.00     0.037 H 
ATOM     92  H22 non d ame     -31.956  10.285  22.556  0.00  0.00     0.037 H 
BRANCH  90  93
ATOM     93  C17 non d ame     -30.900   8.425  22.421  0.00  0.00    -0.059 C 
ATOM     94  H23 non d ame     -31.127   8.186  21.382  0.00  0.00     0.038 H 
BRANCH  93  95
ATOM     95  C18 non d ame     -29.542   9.197  22.446  0.00  0.00    -0.073 C 
ATOM     96  H24 non d ame     -28.863   8.763  21.712  0.00  0.00     0.028 H 
ATOM     97  H25 non d ame     -29.716  10.245  22.204  0.00  0.00     0.028 H 
ATOM     98  H26 non d ame     -29.100   9.122  23.439  0.00  0.00     0.028 H 
ENDBRANCH  93  95
BRANCH  93  99
ATOM     99  C19 non d ame     -30.787   7.100  23.180  0.00  0.00    -0.073 C 
ATOM    100  H27 non d ame     -31.646   6.986  23.843  0.00  0.00     0.028 H 
ATOM    101  H28 non d ame     -30.766   6.274  22.469  0.00  0.00     0.028 H 
ATOM    102  H29 non d ame     -29.870   7.095  23.769  0.00  0.00     0.028 H 
ENDBRANCH  93  99
ENDBRANCH  90  93
ENDBRANCH   1  90
TORSDOF 26
ENDMDL
MODEL 14
REMARK VINA RESULT:      -6.8      2.871      7.564
REMARK  26 active torsions:
REMARK  status: ('A' for Active; 'I' for Inactive)
REMARK    1  A    between atoms: C2_2  and  C3_3 
REMARK    2  A    between atoms: C4_6  and  C5_7 
REMARK       I    between atoms: C5_7  and  N2_9 
REMARK    3  A    between atoms: N2_9  and  C6_10 
REMARK    4  A    between atoms: C6_10  and  C7_11 
REMARK    5  A    between atoms: C6_10  and  C8_13 
REMARK       I    between atoms: C7_11  and  N3_14 
REMARK    6  A    between atoms: N3_14  and  C9_15 
REMARK    7  A    between atoms: C9_15  and  C10_16 
REMARK    8  A    between atoms: C9_15  and  C11_18 
REMARK       I    between atoms: C10_16  and  N4_21 
REMARK    9  A    between atoms: C11_18  and  C12_19 
REMARK   10  A    between atoms: C11_18  and  C13_20 
REMARK   11  A    between atoms: N4_21  and  C14_22 
REMARK   12  A    between atoms: C14_22  and  C15_23 
REMARK   13  A    between atoms: C14_22  and  C16_25 
REMARK       I    between atoms: C15_23  and  N6_40 
REMARK   14  A    between atoms: C16_25  and  C17_26 
REMARK   15  A    between atoms: C17_26  and  C18_27 
REMARK   16  A    between atoms: C17_26  and  C19_28 
REMARK   17  A    between atoms: C20_29  and  C21_30 
REMARK   18  A    between atoms: C20_29  and  C24_33 
REMARK   19  A    between atoms: C20_29  and  N6_40 
REMARK   20  A    between atoms: C21_30  and  C22_31 
REMARK   21  A    between atoms: C22_31  and  C23_32 
REMARK   22  A    between atoms: C23_32  and  O8_43 
REMARK   23  A    between atoms: C24_33  and  C25_34 
REMARK   24  A    between atoms: C28_38  and  O6_39 
REMARK   25  A    between atoms: C29_42  and  O8_43 
REMARK   26  A    between atoms: C29_42  and  C35_49 
ROOT
ATOM      1  C14 non d ame     -32.703   8.336  24.530  0.00  0.00     0.089 C 
ATOM      2  H20 non d ame     -31.651   8.156  24.751  0.00  0.00     0.087 H 
ENDROOT
BRANCH   1   3
ATOM      3  N4  non d ame     -33.336   7.042  24.325  0.00  0.00    -0.346 N 
ATOM      4  C10 non d ame     -32.920   5.852  25.151  0.00  0.00     0.241 C 
ATOM      5  O4  non d ame     -32.071   5.958  25.974  0.00  0.00    -0.271 OA
ATOM      6  H19 non d ame     -34.054   6.971  23.618  0.00  0.00     0.163 HD
BRANCH   4   7
ATOM      7  C9  non d ame     -33.588   4.520  24.929  0.00  0.00     0.092 C 
ATOM      8  H11 non d ame     -33.072   3.758  25.512  0.00  0.00     0.088 H 
BRANCH   7   9
ATOM      9  N3  non d ame     -34.969   4.579  25.417  0.00  0.00    -0.346 N 
ATOM     10  C7  non d ame     -35.323   3.934  26.658  0.00  0.00     0.240 C 
ATOM     11  O3  non d ame     -34.509   3.363  27.275  0.00  0.00    -0.271 OA
ATOM     12  H10 non d ame     -35.682   5.066  24.894  0.00  0.00     0.163 HD
BRANCH  10  13
ATOM     13  C6  non d ame     -36.795   3.997  27.171  0.00  0.00     0.086 C 
ATOM     14  H6  non d ame     -37.067   3.133  27.778  0.00  0.00     0.086 H 
BRANCH  13  15
ATOM     15  N2  non d ame     -36.949   5.166  28.019  0.00  0.00    -0.343 N 
ATOM     16  C5  non d ame     -37.946   5.153  29.092  0.00  0.00     0.273 C 
ATOM     17  O2  non d ame     -38.621   4.199  29.263  0.00  0.00    -0.266 OA
ATOM     18  H5  non d ame     -36.370   5.979  27.865  0.00  0.00     0.163 HD
BRANCH  16  19
ATOM     19  C4  non d ame     -38.119   6.384  29.997  0.00  0.00     0.154 A 
ATOM     20  C1  non d ame     -38.236   7.749  29.587  0.00  0.00    -0.017 A 
ATOM     21  C2  non d ame     -38.373   8.479  30.789  0.00  0.00     0.077 A 
ATOM     22  H1  non d ame     -38.224   8.149  28.573  0.00  0.00     0.091 H 
ATOM     23  O1  non d ame     -38.339   7.623  31.768  0.00  0.00    -0.218 OA
ATOM     24  N1  non d ame     -38.191   6.394  31.331  0.00  0.00    -0.123 NA
BRANCH  21  25
ATOM     25  C3  non d ame     -38.534   9.988  30.914  0.00  0.00    -0.029 C 
ATOM     26  H2  non d ame     -38.751  10.413  29.935  0.00  0.00     0.036 H 
ATOM     27  H3  non d ame     -39.356  10.211  31.595  0.00  0.00     0.036 H 
ATOM     28  H4  non d ame     -37.613  10.421  31.303  0.00  0.00     0.036 H 
ENDBRANCH  21  25
ENDBRANCH  16  19
ENDBRANCH  13  15
BRANCH  13  29
ATOM     29  C8  non d ame     -37.736   4.082  25.997  0.00  0.00    -0.049 C 
ATOM     30  H7  non d ame     -38.476   4.861  26.179  0.00  0.00     0.030 H 
ATOM     31  H8  non d ame     -37.172   4.322  25.095  0.00  0.00     0.030 H 
ATOM     32  H9  non d ame     -38.242   3.124  25.866  0.00  0.00     0.030 H 
ENDBRANCH  13  29
ENDBRANCH  10  13
ENDBRANCH   7   9
BRANCH   7  33
ATOM     33  C11 non d ame     -33.593   4.190  23.407  0.00  0.00    -0.033 C 
ATOM     34  H12 non d ame     -32.783   4.755  22.946  0.00  0.00     0.042 H 
BRANCH  33  35
ATOM     35  C12 non d ame     -33.313   2.676  23.154  0.00  0.00    -0.071 C 
ATOM     36  H13 non d ame     -32.845   2.551  22.177  0.00  0.00     0.028 H 
ATOM     37  H14 non d ame     -32.646   2.295  23.927  0.00  0.00     0.028 H 
ATOM     38  H15 non d ame     -34.252   2.123  23.178  0.00  0.00     0.028 H 
ENDBRANCH  33  35
BRANCH  33  39
ATOM     39  C13 non d ame     -34.934   4.637  22.742  0.00  0.00    -0.071 C 
ATOM     40  H16 non d ame     -35.764   4.419  23.415  0.00  0.00     0.028 H 
ATOM     41  H17 non d ame     -34.901   5.708  22.541  0.00  0.00     0.028 H 
ATOM     42  H18 non d ame     -35.074   4.097  21.806  0.00  0.00     0.028 H 
ENDBRANCH  33  39
ENDBRANCH   7  33
ENDBRANCH   4   7
ENDBRANCH   1   3
BRANCH   1  43
ATOM     43  C15 non d ame     -33.432   9.065  25.696  0.00  0.00     0.240 C 
ATOM     44  O5  non d ame     -34.596   8.895  25.863  0.00  0.00    -0.271 OA
ATOM     45  N6  non d ame     -32.676   9.966  26.611  0.00  0.00    -0.355 N 
ATOM     46  H46 non d ame     -31.685  10.114  26.482  0.00  0.00     0.162 HD
BRANCH  45  47
ATOM     47  C20 non d ame     -33.383  10.650  27.716  0.00  0.00     0.013 C 
ATOM     48  H30 non d ame     -34.444  10.677  27.468  0.00  0.00     0.072 H 
BRANCH  47  49
ATOM     49  C21 non d ame     -32.848  12.057  27.857  0.00  0.00    -0.038 C 
ATOM     50  H31 non d ame     -33.638  12.710  27.485  0.00  0.00     0.036 H 
ATOM     51  H32 non d ame     -32.512  12.142  28.890  0.00  0.00     0.036 H 
BRANCH  49  52
ATOM     52  C22 non d ame     -31.610  12.319  26.971  0.00  0.00     0.018 C 
ATOM     53  H33 non d ame     -30.847  11.626  27.320  0.00  0.00     0.048 H 
ATOM     54  H34 non d ame     -31.967  12.266  25.943  0.00  0.00     0.048 H 
BRANCH  52  55
ATOM     55  C23 non d ame     -31.008  13.741  27.143  0.00  0.00     0.259 C 
ATOM     56  O7  non d ame     -30.515  14.067  28.174  0.00  0.00    -0.265 OA
BRANCH  55  57
ATOM     57  O8  non d ame     -31.065  14.658  26.056  0.00  0.00    -0.317 OA
BRANCH  57  58
ATOM     58  C29 non d ame     -31.922  14.244  24.989  0.00  0.00     0.052 C 
ATOM     59  H47 non d ame     -32.065  13.172  25.124  0.00  0.00     0.082 H 
ATOM     60  H48 non d ame     -32.778  14.917  25.019  0.00  0.00     0.082 H 
BRANCH  58  61
ATOM     61  C35 non d ame     -31.167  14.474  23.652  0.00  0.00    -0.034 A 
ATOM     62  C30 non d ame     -31.344  15.662  22.948  0.00  0.00    -0.075 A 
ATOM     63  C31 non d ame     -30.666  15.869  21.747  0.00  0.00    -0.082 A 
ATOM     64  H49 non d ame     -32.013  16.430  23.336  0.00  0.00     0.084 H 
ATOM     65  C32 non d ame     -29.810  14.882  21.250  0.00  0.00    -0.083 A 
ATOM     66  H50 non d ame     -30.805  16.802  21.199  0.00  0.00     0.083 H 
ATOM     67  C33 non d ame     -29.641  13.698  21.954  0.00  0.00    -0.082 A 
ATOM     68  H51 non d ame     -29.276  15.037  20.312  0.00  0.00     0.083 H 
ATOM     69  C34 non d ame     -30.315  13.487  23.155  0.00  0.00    -0.075 A 
ATOM     70  H52 non d ame     -28.974  12.929  21.561  0.00  0.00     0.083 H 
ATOM     71  H53 non d ame     -30.175  12.555  23.703  0.00  0.00     0.084 H 
ENDBRANCH  58  61
ENDBRANCH  57  58
ENDBRANCH  55  57
ENDBRANCH  52  55
ENDBRANCH  49  52
ENDBRANCH  47  49
BRANCH  47  72
ATOM     72  C24 non d ame     -33.163   9.887  29.020  0.00  0.00    -0.039 C 
ATOM     73  H35 non d ame     -32.417   9.126  28.788  0.00  0.00     0.036 H 
ATOM     74  H36 non d ame     -32.948  10.649  29.770  0.00  0.00     0.036 H 
BRANCH  72  75
ATOM     75  C25 non d ame     -34.489   9.121  29.491  0.00  0.00    -0.001 C 
ATOM     76  C26 non d ame     -34.635   9.208  31.126  0.00  0.00    -0.035 C 
ATOM     77  C27 non d ame     -34.831   7.960  31.614  0.00  0.00     0.085 C 
ATOM     78  H38 non d ame     -33.687   9.510  31.571  0.00  0.00     0.036 H 
ATOM     79  H39 non d ame     -35.553   9.733  31.392  0.00  0.00     0.036 H 
ATOM     80  N5  non d ame     -34.506   6.994  30.499  0.00  0.00    -0.049 N 
ATOM     81  H40 non d ame     -34.099   7.841  32.413  0.00  0.00     0.075 H 
ATOM     82  H41 non d ame     -35.896   7.899  31.837  0.00  0.00     0.075 H 
ATOM     83  C28 non d ame     -34.456   7.877  29.148  0.00  0.00     0.193 C 
ATOM     84  H42 non d ame     -33.579   6.643  30.688  0.00  0.00     0.280 HD
ATOM     85  H43 non d ame     -35.286   6.356  30.439  0.00  0.00     0.280 HD
ATOM     86  H44 non d ame     -35.281   7.845  28.437  0.00  0.00     0.129 H 
ATOM     87  H37 non d ame     -35.360   9.403  28.899  0.00  0.00     0.046 H 
BRANCH  83  88
ATOM     88  O6  non d ame     -33.286   7.556  28.393  0.00  0.00    -0.369 OA
ATOM     89  H45 non d ame     -33.532   7.386  27.480  0.00  0.00     0.212 HD
ENDBRANCH  83  88
ENDBRANCH  72  75
ENDBRANCH  47  72
ENDBRANCH  45  47
ENDBRANCH   1  43
BRANCH   1  90
ATOM     90  C16 non d ame     -32.829   9.158  23.257  0.00  0.00    -0.035 C 
ATOM     91  H21 non d ame     -33.807   8.911  22.849  0.00  0.00     0.037 H 
ATOM     92  H22 non d ame     -32.603  10.183  23.552  0.00  0.00     0.037 H 
BRANCH  90  93
ATOM     93  C17 non d ame     -31.785   8.775  22.160  0.00  0.00    -0.059 C 
ATOM     94  H23 non d ame     -31.627   9.653  21.534  0.00  0.00     0.038 H 
BRANCH  93  95
ATOM     95  C18 non d ame     -30.406   8.373  22.772  0.00  0.00    -0.073 C 
ATOM     96  H24 non d ame     -30.552   7.586  23.513  0.00  0.00     0.028 H 
ATOM     97  H25 non d ame     -29.749   8.009  21.982  0.00  0.00     0.028 H 
ATOM     98  H26 non d ame     -29.953   9.241  23.250  0.00  0.00     0.028 H 
ENDBRANCH  93  95
BRANCH  93  99
ATOM     99  C19 non d ame     -32.324   7.663  21.256  0.00  0.00    -0.073 C 
ATOM    100  H27 non d ame     -31.858   7.736  20.273  0.00  0.00     0.028 H 
ATOM    101  H28 non d ame     -32.093   6.692  21.695  0.00  0.00     0.028 H 
ATOM    102  H29 non d ame     -33.404   7.768  21.156  0.00  0.00     0.028 H 
ENDBRANCH  93  99
ENDBRANCH  90  93
ENDBRANCH   1  90
TORSDOF 26
ENDMDL
MODEL 15
REMARK VINA RESULT:      -6.7      2.372      5.809
REMARK  26 active torsions:
REMARK  status: ('A' for Active; 'I' for Inactive)
REMARK    1  A    between atoms: C2_2  and  C3_3 
REMARK    2  A    between atoms: C4_6  and  C5_7 
REMARK       I    between atoms: C5_7  and  N2_9 
REMARK    3  A    between atoms: N2_9  and  C6_10 
REMARK    4  A    between atoms: C6_10  and  C7_11 
REMARK    5  A    between atoms: C6_10  and  C8_13 
REMARK       I    between atoms: C7_11  and  N3_14 
REMARK    6  A    between atoms: N3_14  and  C9_15 
REMARK    7  A    between atoms: C9_15  and  C10_16 
REMARK    8  A    between atoms: C9_15  and  C11_18 
REMARK       I    between atoms: C10_16  and  N4_21 
REMARK    9  A    between atoms: C11_18  and  C12_19 
REMARK   10  A    between atoms: C11_18  and  C13_20 
REMARK   11  A    between atoms: N4_21  and  C14_22 
REMARK   12  A    between atoms: C14_22  and  C15_23 
REMARK   13  A    between atoms: C14_22  and  C16_25 
REMARK       I    between atoms: C15_23  and  N6_40 
REMARK   14  A    between atoms: C16_25  and  C17_26 
REMARK   15  A    between atoms: C17_26  and  C18_27 
REMARK   16  A    between atoms: C17_26  and  C19_28 
REMARK   17  A    between atoms: C20_29  and  C21_30 
REMARK   18  A    between atoms: C20_29  and  C24_33 
REMARK   19  A    between atoms: C20_29  and  N6_40 
REMARK   20  A    between atoms: C21_30  and  C22_31 
REMARK   21  A    between atoms: C22_31  and  C23_32 
REMARK   22  A    between atoms: C23_32  and  O8_43 
REMARK   23  A    between atoms: C24_33  and  C25_34 
REMARK   24  A    between atoms: C28_38  and  O6_39 
REMARK   25  A    between atoms: C29_42  and  O8_43 
REMARK   26  A    between atoms: C29_42  and  C35_49 
ROOT
ATOM      1  C14 non d ame     -35.293   8.995  29.981  0.00  0.00     0.089 C 
ATOM      2  H20 non d ame     -35.412   9.318  31.015  0.00  0.00     0.087 H 
ENDROOT
BRANCH   1   3
ATOM      3  N4  non d ame     -34.308   9.868  29.359  0.00  0.00    -0.346 N 
ATOM      4  C10 non d ame     -33.432  10.753  30.208  0.00  0.00     0.241 C 
ATOM      5  O4  non d ame     -33.538  10.748  31.390  0.00  0.00    -0.271 OA
ATOM      6  H19 non d ame     -34.235   9.860  28.352  0.00  0.00     0.163 HD
BRANCH   4   7
ATOM      7  C9  non d ame     -32.414  11.647  29.549  0.00  0.00     0.092 C 
ATOM      8  H11 non d ame     -31.740  11.040  28.946  0.00  0.00     0.088 H 
BRANCH   7   9
ATOM      9  N3  non d ame     -33.095  12.574  28.639  0.00  0.00    -0.346 N 
ATOM     10  C7  non d ame     -32.755  12.587  27.237  0.00  0.00     0.240 C 
ATOM     11  O3  non d ame     -31.936  11.859  26.825  0.00  0.00    -0.271 OA
ATOM     12  H10 non d ame     -33.802  13.209  28.981  0.00  0.00     0.163 HD
BRANCH  10  13
ATOM     13  C6  non d ame     -33.480  13.577  26.274  0.00  0.00     0.086 C 
ATOM     14  H6  non d ame     -33.492  14.599  26.651  0.00  0.00     0.086 H 
BRANCH  13  15
ATOM     15  N2  non d ame     -32.768  13.609  25.007  0.00  0.00    -0.343 N 
ATOM     16  C5  non d ame     -31.909  14.753  24.691  0.00  0.00     0.273 C 
ATOM     17  O2  non d ame     -31.800  15.643  25.461  0.00  0.00    -0.266 OA
ATOM     18  H5  non d ame     -32.869  12.846  24.354  0.00  0.00     0.163 HD
BRANCH  16  19
ATOM     19  C4  non d ame     -31.150  14.799  23.356  0.00  0.00     0.154 A 
ATOM     20  C1  non d ame     -31.443  15.622  22.223  0.00  0.00    -0.017 A 
ATOM     21  C2  non d ame     -30.459  15.287  21.266  0.00  0.00     0.077 A 
ATOM     22  H1  non d ame     -32.247  16.351  22.112  0.00  0.00     0.091 H 
ATOM     23  O1  non d ame     -29.695  14.379  21.798  0.00  0.00    -0.218 OA
ATOM     24  N1  non d ame     -30.078  14.078  23.017  0.00  0.00    -0.123 NA
BRANCH  21  25
ATOM     25  C3  non d ame     -30.319  15.881  19.872  0.00  0.00    -0.029 C 
ATOM     26  H2  non d ame     -30.459  15.099  19.127  0.00  0.00     0.036 H 
ATOM     27  H3  non d ame     -31.073  16.656  19.728  0.00  0.00     0.036 H 
ATOM     28  H4  non d ame     -29.326  16.316  19.759  0.00  0.00     0.036 H 
ENDBRANCH  21  25
ENDBRANCH  16  19
ENDBRANCH  13  15
BRANCH  13  29
ATOM     29  C8  non d ame     -34.900  13.122  26.057  0.00  0.00    -0.049 C 
ATOM     30  H7  non d ame     -34.961  12.544  25.136  0.00  0.00     0.030 H 
ATOM     31  H8  non d ame     -35.216  12.501  26.896  0.00  0.00     0.030 H 
ATOM     32  H9  non d ame     -35.553  13.993  25.983  0.00  0.00     0.030 H 
ENDBRANCH  13  29
ENDBRANCH  10  13
ENDBRANCH   7   9
BRANCH   7  33
ATOM     33  C11 non d ame     -31.655  12.460  30.639  0.00  0.00    -0.033 C 
ATOM     34  H12 non d ame     -32.279  12.474  31.533  0.00  0.00     0.042 H 
BRANCH  33  35
ATOM     35  C12 non d ame     -30.305  11.775  31.020  0.00  0.00    -0.071 C 
ATOM     36  H13 non d ame     -29.716  12.453  31.638  0.00  0.00     0.028 H 
ATOM     37  H14 non d ame     -30.506  10.859  31.574  0.00  0.00     0.028 H 
ATOM     38  H15 non d ame     -29.750  11.538  30.113  0.00  0.00     0.028 H 
ENDBRANCH  33  35
BRANCH  33  39
ATOM     39  C13 non d ame     -31.432  13.937  30.182  0.00  0.00    -0.071 C 
ATOM     40  H16 non d ame     -31.835  14.071  29.178  0.00  0.00     0.028 H 
ATOM     41  H17 non d ame     -31.940  14.612  30.871  0.00  0.00     0.028 H 
ATOM     42  H18 non d ame     -30.365  14.159  30.178  0.00  0.00     0.028 H 
ENDBRANCH  33  39
ENDBRANCH   7  33
ENDBRANCH   4   7
ENDBRANCH   1   3
BRANCH   1  43
ATOM     43  C15 non d ame     -34.786   7.527  29.880  0.00  0.00     0.240 C 
ATOM     44  O5  non d ame     -34.823   6.822  30.837  0.00  0.00    -0.271 OA
ATOM     45  N6  non d ame     -34.264   6.996  28.589  0.00  0.00    -0.355 N 
ATOM     46  H46 non d ame     -34.232   7.584  27.768  0.00  0.00     0.162 HD
BRANCH  45  47
ATOM     47  C20 non d ame     -33.787   5.598  28.510  0.00  0.00     0.013 C 
ATOM     48  H30 non d ame     -33.655   5.232  29.528  0.00  0.00     0.072 H 
BRANCH  47  49
ATOM     49  C21 non d ame     -32.468   5.561  27.772  0.00  0.00    -0.038 C 
ATOM     50  H31 non d ame     -31.698   5.645  28.539  0.00  0.00     0.036 H 
ATOM     51  H32 non d ame     -32.511   4.674  27.138  0.00  0.00     0.036 H 
BRANCH  49  52
ATOM     52  C22 non d ame     -32.277   6.765  26.825  0.00  0.00     0.018 C 
ATOM     53  H33 non d ame     -32.929   7.548  27.208  0.00  0.00     0.048 H 
ATOM     54  H34 non d ame     -31.200   6.929  26.771  0.00  0.00     0.048 H 
BRANCH  52  55
ATOM     55  C23 non d ame     -32.743   6.496  25.367  0.00  0.00     0.259 C 
ATOM     56  O7  non d ame     -32.435   5.491  24.812  0.00  0.00    -0.265 OA
BRANCH  55  57
ATOM     57  O8  non d ame     -33.531   7.471  24.696  0.00  0.00    -0.317 OA
BRANCH  57  58
ATOM     58  C29 non d ame     -33.267   7.570  23.293  0.00  0.00     0.052 C 
ATOM     59  H47 non d ame     -32.930   6.580  22.986  0.00  0.00     0.082 H 
ATOM     60  H48 non d ame     -34.164   8.002  22.853  0.00  0.00     0.082 H 
BRANCH  58  61
ATOM     61  C35 non d ame     -32.095   8.569  23.097  0.00  0.00    -0.034 A 
ATOM     62  C30 non d ame     -31.071   8.274  22.202  0.00  0.00    -0.075 A 
ATOM     63  C31 non d ame     -30.018   9.171  22.026  0.00  0.00    -0.082 A 
ATOM     64  H49 non d ame     -31.092   7.340  21.640  0.00  0.00     0.084 H 
ATOM     65  C32 non d ame     -29.991  10.366  22.750  0.00  0.00    -0.083 A 
ATOM     66  H50 non d ame     -29.218   8.938  21.323  0.00  0.00     0.083 H 
ATOM     67  C33 non d ame     -31.013  10.654  23.644  0.00  0.00    -0.082 A 
ATOM     68  H51 non d ame     -29.172  11.074  22.617  0.00  0.00     0.083 H 
ATOM     69  C34 non d ame     -32.068   9.761  23.822  0.00  0.00    -0.075 A 
ATOM     70  H52 non d ame     -30.988  11.587  24.210  0.00  0.00     0.083 H 
ATOM     71  H53 non d ame     -32.868   9.995  24.525  0.00  0.00     0.084 H 
ENDBRANCH  58  61
ENDBRANCH  57  58
ENDBRANCH  55  57
ENDBRANCH  52  55
ENDBRANCH  49  52
ENDBRANCH  47  49
BRANCH  47  72
ATOM     72  C24 non d ame     -34.812   4.744  27.768  0.00  0.00    -0.039 C 
ATOM     73  H35 non d ame     -34.330   4.461  26.832  0.00  0.00     0.036 H 
ATOM     74  H36 non d ame     -35.117   3.975  28.478  0.00  0.00     0.036 H 
BRANCH  72  75
ATOM     75  C25 non d ame     -36.122   5.585  27.391  0.00  0.00    -0.001 C 
ATOM     76  C26 non d ame     -37.430   4.964  28.169  0.00  0.00    -0.035 C 
ATOM     77  C27 non d ame     -38.414   4.744  27.264  0.00  0.00     0.085 C 
ATOM     78  H38 non d ame     -37.203   3.967  28.546  0.00  0.00     0.036 H 
ATOM     79  H39 non d ame     -37.860   5.712  28.836  0.00  0.00     0.036 H 
ATOM     80  N5  non d ame     -37.785   4.850  25.895  0.00  0.00    -0.049 N 
ATOM     81  H40 non d ame     -38.736   3.716  27.429  0.00  0.00     0.075 H 
ATOM     82  H41 non d ame     -39.119   5.564  27.396  0.00  0.00     0.075 H 
ATOM     83  C28 non d ame     -36.349   5.551  26.120  0.00  0.00     0.193 C 
ATOM     84  H42 non d ame     -37.635   3.905  25.576  0.00  0.00     0.280 HD
ATOM     85  H43 non d ame     -38.370   5.478  25.361  0.00  0.00     0.280 HD
ATOM     86  H44 non d ame     -36.200   6.601  25.864  0.00  0.00     0.129 H 
ATOM     87  H37 non d ame     -35.961   6.660  27.472  0.00  0.00     0.046 H 
BRANCH  83  88
ATOM     88  O6  non d ame     -35.335   4.837  25.410  0.00  0.00    -0.369 OA
ATOM     89  H45 non d ame     -34.948   5.409  24.743  0.00  0.00     0.212 HD
ENDBRANCH  83  88
ENDBRANCH  72  75
ENDBRANCH  47  72
ENDBRANCH  45  47
ENDBRANCH   1  43
BRANCH   1  90
ATOM     90  C16 non d ame     -36.614   9.130  29.242  0.00  0.00    -0.035 C 
ATOM     91  H21 non d ame     -36.558  10.087  28.724  0.00  0.00     0.037 H 
ATOM     92  H22 non d ame     -36.722   8.207  28.673  0.00  0.00     0.037 H 
BRANCH  90  93
ATOM     93  C17 non d ame     -37.854   9.214  30.188  0.00  0.00    -0.059 C 
ATOM     94  H23 non d ame     -38.297  10.202  30.065  0.00  0.00     0.038 H 
BRANCH  93  95
ATOM     95  C18 non d ame     -38.944   8.155  29.827  0.00  0.00    -0.073 C 
ATOM     96  H24 non d ame     -39.877   8.662  29.578  0.00  0.00     0.028 H 
ATOM     97  H25 non d ame     -38.612   7.569  28.970  0.00  0.00     0.028 H 
ATOM     98  H26 non d ame     -39.106   7.494  30.679  0.00  0.00     0.028 H 
ENDBRANCH  93  95
BRANCH  93  99
ATOM     99  C19 non d ame     -37.433   9.083  31.655  0.00  0.00    -0.073 C 
ATOM    100  H27 non d ame     -37.949   8.234  32.106  0.00  0.00     0.028 H 
ATOM    101  H28 non d ame     -36.356   8.925  31.712  0.00  0.00     0.028 H 
ATOM    102  H29 non d ame     -37.696   9.994  32.191  0.00  0.00     0.028 H 
ENDBRANCH  93  99
ENDBRANCH  90  93
ENDBRANCH   1  90
TORSDOF 26
ENDMDL
MODEL 16
REMARK VINA RESULT:      -6.7      2.718      7.418
REMARK  26 active torsions:
REMARK  status: ('A' for Active; 'I' for Inactive)
REMARK    1  A    between atoms: C2_2  and  C3_3 
REMARK    2  A    between atoms: C4_6  and  C5_7 
REMARK       I    between atoms: C5_7  and  N2_9 
REMARK    3  A    between atoms: N2_9  and  C6_10 
REMARK    4  A    between atoms: C6_10  and  C7_11 
REMARK    5  A    between atoms: C6_10  and  C8_13 
REMARK       I    between atoms: C7_11  and  N3_14 
REMARK    6  A    between atoms: N3_14  and  C9_15 
REMARK    7  A    between atoms: C9_15  and  C10_16 
REMARK    8  A    between atoms: C9_15  and  C11_18 
REMARK       I    between atoms: C10_16  and  N4_21 
REMARK    9  A    between atoms: C11_18  and  C12_19 
REMARK   10  A    between atoms: C11_18  and  C13_20 
REMARK   11  A    between atoms: N4_21  and  C14_22 
REMARK   12  A    between atoms: C14_22  and  C15_23 
REMARK   13  A    between atoms: C14_22  and  C16_25 
REMARK       I    between atoms: C15_23  and  N6_40 
REMARK   14  A    between atoms: C16_25  and  C17_26 
REMARK   15  A    between atoms: C17_26  and  C18_27 
REMARK   16  A    between atoms: C17_26  and  C19_28 
REMARK   17  A    between atoms: C20_29  and  C21_30 
REMARK   18  A    between atoms: C20_29  and  C24_33 
REMARK   19  A    between atoms: C20_29  and  N6_40 
REMARK   20  A    between atoms: C21_30  and  C22_31 
REMARK   21  A    between atoms: C22_31  and  C23_32 
REMARK   22  A    between atoms: C23_32  and  O8_43 
REMARK   23  A    between atoms: C24_33  and  C25_34 
REMARK   24  A    between atoms: C28_38  and  O6_39 
REMARK   25  A    between atoms: C29_42  and  O8_43 
REMARK   26  A    between atoms: C29_42  and  C35_49 
ROOT
ATOM      1  C14 non d ame     -31.633  10.461  25.032  0.00  0.00     0.089 C 
ATOM      2  H20 non d ame     -30.961   9.755  25.522  0.00  0.00     0.087 H 
ENDROOT
BRANCH   1   3
ATOM      3  N4  non d ame     -32.996  10.061  25.348  0.00  0.00    -0.346 N 
ATOM      4  C10 non d ame     -33.300   9.349  26.642  0.00  0.00     0.241 C 
ATOM      5  O4  non d ame     -32.431   9.107  27.413  0.00  0.00    -0.271 OA
ATOM      6  H19 non d ame     -33.720  10.274  24.678  0.00  0.00     0.163 HD
BRANCH   4   7
ATOM      7  C9  non d ame     -34.718   8.947  26.955  0.00  0.00     0.092 C 
ATOM      8  H11 non d ame     -34.893   9.055  28.025  0.00  0.00     0.088 H 
BRANCH   7   9
ATOM      9  N3  non d ame     -35.646   9.852  26.270  0.00  0.00    -0.346 N 
ATOM     10  C7  non d ame     -36.072  11.069  26.914  0.00  0.00     0.240 C 
ATOM     11  O3  non d ame     -35.679  11.337  27.983  0.00  0.00    -0.271 OA
ATOM     12  H10 non d ame     -35.994   9.633  25.347  0.00  0.00     0.163 HD
BRANCH  10  13
ATOM     13  C6  non d ame     -37.063  12.027  26.181  0.00  0.00     0.086 C 
ATOM     14  H6  non d ame     -38.060  12.020  26.621  0.00  0.00     0.086 H 
BRANCH  13  15
ATOM     15  N2  non d ame     -36.570  13.390  26.290  0.00  0.00    -0.343 N 
ATOM     16  C5  non d ame     -37.523  14.495  26.401  0.00  0.00     0.273 C 
ATOM     17  O2  non d ame     -38.686  14.279  26.397  0.00  0.00    -0.266 OA
ATOM     18  H5  non d ame     -35.575  13.566  26.289  0.00  0.00     0.163 HD
BRANCH  16  19
ATOM     19  C4  non d ame     -37.016  15.941  26.518  0.00  0.00     0.154 A 
ATOM     20  C1  non d ame     -36.412  16.731  25.490  0.00  0.00    -0.017 A 
ATOM     21  C2  non d ame     -36.129  17.972  26.104  0.00  0.00     0.077 A 
ATOM     22  H1  non d ame     -36.210  16.448  24.457  0.00  0.00     0.091 H 
ATOM     23  O1  non d ame     -36.529  17.893  27.339  0.00  0.00    -0.218 OA
ATOM     24  N1  non d ame     -37.050  16.717  27.604  0.00  0.00    -0.123 NA
BRANCH  21  25
ATOM     25  C3  non d ame     -35.478  19.178  25.441  0.00  0.00    -0.029 C 
ATOM     26  H2  non d ame     -36.175  20.016  25.446  0.00  0.00     0.036 H 
ATOM     27  H3  non d ame     -34.579  19.454  25.992  0.00  0.00     0.036 H 
ATOM     28  H4  non d ame     -35.214  18.931  24.414  0.00  0.00     0.036 H 
ENDBRANCH  21  25
ENDBRANCH  16  19
ENDBRANCH  13  15
BRANCH  13  29
ATOM     29  C8  non d ame     -37.169  11.630  24.730  0.00  0.00    -0.049 C 
ATOM     30  H7  non d ame     -38.168  11.861  24.362  0.00  0.00     0.030 H 
ATOM     31  H8  non d ame     -36.431  12.182  24.148  0.00  0.00     0.030 H 
ATOM     32  H9  non d ame     -36.983  10.560  24.632  0.00  0.00     0.030 H 
ENDBRANCH  13  29
ENDBRANCH  10  13
ENDBRANCH   7   9
BRANCH   7  33
ATOM     33  C11 non d ame     -34.963   7.489  26.465  0.00  0.00    -0.033 C 
ATOM     34  H12 non d ame     -34.183   7.250  25.743  0.00  0.00     0.042 H 
BRANCH  33  35
ATOM     35  C12 non d ame     -34.843   6.469  27.640  0.00  0.00    -0.071 C 
ATOM     36  H13 non d ame     -34.019   6.759  28.291  0.00  0.00     0.028 H 
ATOM     37  H14 non d ame     -35.771   6.459  28.210  0.00  0.00     0.028 H 
ATOM     38  H15 non d ame     -34.653   5.473  27.238  0.00  0.00     0.028 H 
ENDBRANCH  33  35
BRANCH  33  39
ATOM     39  C13 non d ame     -36.343   7.366  25.745  0.00  0.00    -0.071 C 
ATOM     40  H16 non d ame     -36.523   8.260  25.148  0.00  0.00     0.028 H 
ATOM     41  H17 non d ame     -36.338   6.489  25.096  0.00  0.00     0.028 H 
ATOM     42  H18 non d ame     -37.133   7.260  26.489  0.00  0.00     0.028 H 
ENDBRANCH  33  39
ENDBRANCH   7  33
ENDBRANCH   4   7
ENDBRANCH   1   3
BRANCH   1  43
ATOM     43  C15 non d ame     -31.416  11.919  25.530  0.00  0.00     0.240 C 
ATOM     44  O5  non d ame     -31.034  12.752  24.773  0.00  0.00    -0.271 OA
ATOM     45  N6  non d ame     -31.694  12.280  26.949  0.00  0.00    -0.355 N 
ATOM     46  H46 non d ame     -32.023  11.582  27.601  0.00  0.00     0.162 HD
BRANCH  45  47
ATOM     47  C20 non d ame     -31.484  13.671  27.406  0.00  0.00     0.013 C 
ATOM     48  H30 non d ame     -31.264  14.281  26.530  0.00  0.00     0.072 H 
BRANCH  47  49
ATOM     49  C21 non d ame     -30.319  13.710  28.370  0.00  0.00    -0.038 C 
ATOM     50  H31 non d ame     -29.831  12.739  28.281  0.00  0.00     0.036 H 
ATOM     51  H32 non d ame     -29.770  14.621  28.130  0.00  0.00     0.036 H 
BRANCH  49  52
ATOM     52  C22 non d ame     -30.764  13.843  29.843  0.00  0.00     0.018 C 
ATOM     53  H33 non d ame     -29.947  14.351  30.353  0.00  0.00     0.048 H 
ATOM     54  H34 non d ame     -31.754  14.297  29.811  0.00  0.00     0.048 H 
BRANCH  52  55
ATOM     55  C23 non d ame     -30.940  12.480  30.568  0.00  0.00     0.259 C 
ATOM     56  O7  non d ame     -30.002  11.779  30.772  0.00  0.00    -0.265 OA
BRANCH  55  57
ATOM     57  O8  non d ame     -32.241  12.070  30.975  0.00  0.00    -0.317 OA
BRANCH  57  58
ATOM     58  C29 non d ame     -32.780  10.992  30.205  0.00  0.00     0.052 C 
ATOM     59  H47 non d ame     -33.211  11.451  29.316  0.00  0.00     0.082 H 
ATOM     60  H48 non d ame     -31.973  10.266  30.108  0.00  0.00     0.082 H 
BRANCH  58  61
ATOM     61  C35 non d ame     -33.926  10.343  31.027  0.00  0.00    -0.034 A 
ATOM     62  C30 non d ame     -34.438  10.998  32.143  0.00  0.00    -0.075 A 
ATOM     63  C31 non d ame     -35.467  10.415  32.882  0.00  0.00    -0.082 A 
ATOM     64  H49 non d ame     -34.035  11.966  32.439  0.00  0.00     0.084 H 
ATOM     65  C32 non d ame     -35.982   9.172  32.502  0.00  0.00    -0.083 A 
ATOM     66  H50 non d ame     -35.869  10.931  33.755  0.00  0.00     0.083 H 
ATOM     67  C33 non d ame     -35.464   8.522  31.391  0.00  0.00    -0.082 A 
ATOM     68  H51 non d ame     -36.788   8.710  33.074  0.00  0.00     0.083 H 
ATOM     69  C34 non d ame     -34.437   9.101  30.648  0.00  0.00    -0.075 A 
ATOM     70  H52 non d ame     -35.867   7.551  31.098  0.00  0.00     0.083 H 
ATOM     71  H53 non d ame     -34.037   8.585  29.775  0.00  0.00     0.084 H 
ENDBRANCH  58  61
ENDBRANCH  57  58
ENDBRANCH  55  57
ENDBRANCH  52  55
ENDBRANCH  49  52
ENDBRANCH  47  49
BRANCH  47  72
ATOM     72  C24 non d ame     -32.742  14.180  28.106  0.00  0.00    -0.039 C 
ATOM     73  H35 non d ame     -33.425  13.329  28.129  0.00  0.00     0.036 H 
ATOM     74  H36 non d ame     -32.396  14.626  29.038  0.00  0.00     0.036 H 
BRANCH  72  75
ATOM     75  C25 non d ame     -33.460  15.339  27.265  0.00  0.00    -0.001 C 
ATOM     76  C26 non d ame     -32.733  15.499  25.799  0.00  0.00    -0.035 C 
ATOM     77  C27 non d ame     -32.418  16.803  25.608  0.00  0.00     0.085 C 
ATOM     78  H38 non d ame     -31.764  15.001  25.805  0.00  0.00     0.036 H 
ATOM     79  H39 non d ame     -33.447  15.291  25.002  0.00  0.00     0.036 H 
ATOM     80  N5  non d ame     -32.566  17.493  26.943  0.00  0.00    -0.049 N 
ATOM     81  H40 non d ame     -31.367  16.809  25.319  0.00  0.00     0.075 H 
ATOM     82  H41 non d ame     -33.173  17.188  24.924  0.00  0.00     0.075 H 
ATOM     83  C28 non d ame     -33.394  16.472  27.881  0.00  0.00     0.193 C 
ATOM     84  H42 non d ame     -31.634  17.590  27.319  0.00  0.00     0.280 HD
ATOM     85  H43 non d ame     -33.133  18.312  26.779  0.00  0.00     0.280 HD
ATOM     86  H44 non d ame     -34.450  16.646  28.089  0.00  0.00     0.129 H 
ATOM     87  H37 non d ame     -34.545  15.243  27.272  0.00  0.00     0.046 H 
BRANCH  83  88
ATOM     88  O6  non d ame     -32.765  16.356  29.158  0.00  0.00    -0.369 OA
ATOM     89  H45 non d ame     -31.955  16.871  29.165  0.00  0.00     0.212 HD
ENDBRANCH  83  88
ENDBRANCH  72  75
ENDBRANCH  47  72
ENDBRANCH  45  47
ENDBRANCH   1  43
BRANCH   1  90
ATOM     90  C16 non d ame     -31.433  10.400  23.526  0.00  0.00    -0.035 C 
ATOM     91  H21 non d ame     -32.425  10.536  23.098  0.00  0.00     0.037 H 
ATOM     92  H22 non d ame     -30.643  11.120  23.311  0.00  0.00     0.037 H 
BRANCH  90  93
ATOM     93  C17 non d ame     -30.920   9.015  23.018  0.00  0.00    -0.059 C 
ATOM     94  H23 non d ame     -30.788   8.372  23.888  0.00  0.00     0.038 H 
BRANCH  93  95
ATOM     95  C18 non d ame     -31.944   8.321  22.065  0.00  0.00    -0.073 C 
ATOM     96  H24 non d ame     -31.698   7.262  21.975  0.00  0.00     0.028 H 
ATOM     97  H25 non d ame     -32.949   8.425  22.473  0.00  0.00     0.028 H 
ATOM     98  H26 non d ame     -31.901   8.789  21.081  0.00  0.00     0.028 H 
ENDBRANCH  93  95
BRANCH  93  99
ATOM     99  C19 non d ame     -29.553   9.152  22.342  0.00  0.00    -0.073 C 
ATOM    100  H27 non d ame     -29.410  10.185  22.019  0.00  0.00     0.028 H 
ATOM    101  H28 non d ame     -28.768   8.881  23.048  0.00  0.00     0.028 H 
ATOM    102  H29 non d ame     -29.508   8.492  21.476  0.00  0.00     0.028 H 
ENDBRANCH  93  99
ENDBRANCH  90  93
ENDBRANCH   1  90
TORSDOF 26
ENDMDL
MODEL 17
REMARK VINA RESULT:      -6.7      2.860      7.716
REMARK  26 active torsions:
REMARK  status: ('A' for Active; 'I' for Inactive)
REMARK    1  A    between atoms: C2_2  and  C3_3 
REMARK    2  A    between atoms: C4_6  and  C5_7 
REMARK       I    between atoms: C5_7  and  N2_9 
REMARK    3  A    between atoms: N2_9  and  C6_10 
REMARK    4  A    between atoms: C6_10  and  C7_11 
REMARK    5  A    between atoms: C6_10  and  C8_13 
REMARK       I    between atoms: C7_11  and  N3_14 
REMARK    6  A    between atoms: N3_14  and  C9_15 
REMARK    7  A    between atoms: C9_15  and  C10_16 
REMARK    8  A    between atoms: C9_15  and  C11_18 
REMARK       I    between atoms: C10_16  and  N4_21 
REMARK    9  A    between atoms: C11_18  and  C12_19 
REMARK   10  A    between atoms: C11_18  and  C13_20 
REMARK   11  A    between atoms: N4_21  and  C14_22 
REMARK   12  A    between atoms: C14_22  and  C15_23 
REMARK   13  A    between atoms: C14_22  and  C16_25 
REMARK       I    between atoms: C15_23  and  N6_40 
REMARK   14  A    between atoms: C16_25  and  C17_26 
REMARK   15  A    between atoms: C17_26  and  C18_27 
REMARK   16  A    between atoms: C17_26  and  C19_28 
REMARK   17  A    between atoms: C20_29  and  C21_30 
REMARK   18  A    between atoms: C20_29  and  C24_33 
REMARK   19  A    between atoms: C20_29  and  N6_40 
REMARK   20  A    between atoms: C21_30  and  C22_31 
REMARK   21  A    between atoms: C22_31  and  C23_32 
REMARK   22  A    between atoms: C23_32  and  O8_43 
REMARK   23  A    between atoms: C24_33  and  C25_34 
REMARK   24  A    between atoms: C28_38  and  O6_39 
REMARK   25  A    between atoms: C29_42  and  O8_43 
REMARK   26  A    between atoms: C29_42  and  C35_49 
ROOT
ATOM      1  C14 non d ame     -32.997   9.942  25.773  0.00  0.00     0.089 C 
ATOM      2  H20 non d ame     -32.544   8.971  25.974  0.00  0.00     0.087 H 
ENDROOT
BRANCH   1   3
ATOM      3  N4  non d ame     -33.933  10.221  26.852  0.00  0.00    -0.346 N 
ATOM      4  C10 non d ame     -33.780   9.538  28.188  0.00  0.00     0.241 C 
ATOM      5  O4  non d ame     -32.898   8.766  28.370  0.00  0.00    -0.271 OA
ATOM      6  H19 non d ame     -34.678  10.879  26.676  0.00  0.00     0.163 HD
BRANCH   4   7
ATOM      7  C9  non d ame     -34.755   9.842  29.295  0.00  0.00     0.092 C 
ATOM      8  H11 non d ame     -35.413  10.652  28.982  0.00  0.00     0.088 H 
BRANCH   7   9
ATOM      9  N3  non d ame     -35.598   8.668  29.541  0.00  0.00    -0.346 N 
ATOM     10  C7  non d ame     -37.029   8.767  29.404  0.00  0.00     0.240 C 
ATOM     11  O3  non d ame     -37.521   9.784  29.096  0.00  0.00    -0.271 OA
ATOM     12  H10 non d ame     -35.188   7.784  29.809  0.00  0.00     0.163 HD
BRANCH  10  13
ATOM     13  C6  non d ame     -37.922   7.515  29.670  0.00  0.00     0.086 C 
ATOM     14  H6  non d ame     -38.911   7.600  29.222  0.00  0.00     0.086 H 
BRANCH  13  15
ATOM     15  N2  non d ame     -37.292   6.351  29.069  0.00  0.00    -0.343 N 
ATOM     16  C5  non d ame     -37.948   5.673  27.950  0.00  0.00     0.273 C 
ATOM     17  O2  non d ame     -38.984   6.069  27.541  0.00  0.00    -0.266 OA
ATOM     18  H5  non d ame     -36.408   6.017  29.427  0.00  0.00     0.163 HD
BRANCH  16  19
ATOM     19  C4  non d ame     -37.293   4.441  27.305  0.00  0.00     0.154 A 
ATOM     20  C1  non d ame     -35.911   4.073  27.352  0.00  0.00    -0.017 A 
ATOM     21  C2  non d ame     -35.830   2.873  26.611  0.00  0.00     0.077 A 
ATOM     22  H1  non d ame     -35.093   4.596  27.848  0.00  0.00     0.091 H 
ATOM     23  O1  non d ame     -37.030   2.593  26.194  0.00  0.00    -0.218 OA
ATOM     24  N1  non d ame     -37.901   3.494  26.586  0.00  0.00    -0.123 NA
BRANCH  21  25
ATOM     25  C3  non d ame     -34.571   2.057  26.351  0.00  0.00    -0.029 C 
ATOM     26  H2  non d ame     -34.848   1.046  26.054  0.00  0.00     0.036 H 
ATOM     27  H3  non d ame     -33.994   2.524  25.553  0.00  0.00     0.036 H 
ATOM     28  H4  non d ame     -33.969   2.017  27.259  0.00  0.00     0.036 H 
ENDBRANCH  21  25
ENDBRANCH  16  19
ENDBRANCH  13  15
BRANCH  13  29
ATOM     29  C8  non d ame     -38.076   7.311  31.155  0.00  0.00    -0.049 C 
ATOM     30  H7  non d ame     -39.004   7.771  31.492  0.00  0.00     0.030 H 
ATOM     31  H8  non d ame     -38.100   6.244  31.375  0.00  0.00     0.030 H 
ATOM     32  H9  non d ame     -37.233   7.771  31.674  0.00  0.00     0.030 H 
ENDBRANCH  13  29
ENDBRANCH  10  13
ENDBRANCH   7   9
BRANCH   7  33
ATOM     33  C11 non d ame     -33.970  10.195  30.594  0.00  0.00    -0.033 C 
ATOM     34  H12 non d ame     -33.359   9.330  30.853  0.00  0.00     0.042 H 
BRANCH  33  35
ATOM     35  C12 non d ame     -33.005  11.399  30.364  0.00  0.00    -0.071 C 
ATOM     36  H13 non d ame     -33.119  12.116  31.177  0.00  0.00     0.028 H 
ATOM     37  H14 non d ame     -31.976  11.041  30.337  0.00  0.00     0.028 H 
ATOM     38  H15 non d ame     -33.246  11.883  29.417  0.00  0.00     0.028 H 
ENDBRANCH  33  35
BRANCH  33  39
ATOM     39  C13 non d ame     -34.947  10.470  31.780  0.00  0.00    -0.071 C 
ATOM     40  H16 non d ame     -35.504   9.562  32.011  0.00  0.00     0.028 H 
ATOM     41  H17 non d ame     -34.377  10.781  32.657  0.00  0.00     0.028 H 
ATOM     42  H18 non d ame     -35.643  11.261  31.503  0.00  0.00     0.028 H 
ENDBRANCH  33  39
ENDBRANCH   7  33
ENDBRANCH   4   7
ENDBRANCH   1   3
BRANCH   1  43
ATOM     43  C15 non d ame     -31.941  11.084  25.725  0.00  0.00     0.240 C 
ATOM     44  O5  non d ame     -31.030  11.078  26.487  0.00  0.00    -0.271 OA
ATOM     45  N6  non d ame     -32.061  12.180  24.722  0.00  0.00    -0.355 N 
ATOM     46  H46 non d ame     -32.829  12.193  24.066  0.00  0.00     0.162 HD
BRANCH  45  47
ATOM     47  C20 non d ame     -31.049  13.257  24.689  0.00  0.00     0.013 C 
ATOM     48  H30 non d ame     -30.200  12.937  25.293  0.00  0.00     0.072 H 
BRANCH  47  49
ATOM     49  C21 non d ame     -31.645  14.522  25.265  0.00  0.00    -0.038 C 
ATOM     50  H31 non d ame     -31.036  15.338  24.875  0.00  0.00     0.036 H 
ATOM     51  H32 non d ame     -32.709  14.477  25.033  0.00  0.00     0.036 H 
BRANCH  49  52
ATOM     52  C22 non d ame     -31.536  14.589  26.804  0.00  0.00     0.018 C 
ATOM     53  H33 non d ame     -30.905  13.750  27.092  0.00  0.00     0.048 H 
ATOM     54  H34 non d ame     -31.225  15.609  27.032  0.00  0.00     0.048 H 
BRANCH  52  55
ATOM     55  C23 non d ame     -32.890  14.380  27.537  0.00  0.00     0.259 C 
ATOM     56  O7  non d ame     -33.502  13.371  27.396  0.00  0.00    -0.265 OA
BRANCH  55  57
ATOM     57  O8  non d ame     -33.399  15.415  28.369  0.00  0.00    -0.317 OA
BRANCH  57  58
ATOM     58  C29 non d ame     -34.490  16.141  27.794  0.00  0.00     0.052 C 
ATOM     59  H47 non d ame     -34.824  15.547  26.944  0.00  0.00     0.082 H 
ATOM     60  H48 non d ame     -35.173  16.349  28.617  0.00  0.00     0.082 H 
BRANCH  58  61
ATOM     61  C35 non d ame     -33.939  17.492  27.263  0.00  0.00    -0.034 A 
ATOM     62  C30 non d ame     -34.472  18.056  26.108  0.00  0.00    -0.075 A 
ATOM     63  C31 non d ame     -33.976  19.268  25.631  0.00  0.00    -0.082 A 
ATOM     64  H49 non d ame     -35.276  17.548  25.576  0.00  0.00     0.084 H 
ATOM     65  C32 non d ame     -32.943  19.917  26.312  0.00  0.00    -0.083 A 
ATOM     66  H50 non d ame     -34.398  19.709  24.726  0.00  0.00     0.083 H 
ATOM     67  C33 non d ame     -32.412  19.348  27.462  0.00  0.00    -0.082 A 
ATOM     68  H51 non d ame     -32.551  20.866  25.946  0.00  0.00     0.083 H 
ATOM     69  C34 non d ame     -32.905  18.138  27.944  0.00  0.00    -0.075 A 
ATOM     70  H52 non d ame     -31.604  19.856  27.990  0.00  0.00     0.083 H 
ATOM     71  H53 non d ame     -32.484  17.699  28.848  0.00  0.00     0.084 H 
ENDBRANCH  58  61
ENDBRANCH  57  58
ENDBRANCH  55  57
ENDBRANCH  52  55
ENDBRANCH  49  52
ENDBRANCH  47  49
BRANCH  47  72
ATOM     72  C24 non d ame     -30.610  13.509  23.248  0.00  0.00    -0.039 C 
ATOM     73  H35 non d ame     -29.672  12.965  23.132  0.00  0.00     0.036 H 
ATOM     74  H36 non d ame     -31.471  13.249  22.633  0.00  0.00     0.036 H 
BRANCH  72  75
ATOM     75  C25 non d ame     -30.293  15.057  22.987  0.00  0.00    -0.001 C 
ATOM     76  C26 non d ame     -31.375  15.677  21.916  0.00  0.00    -0.035 C 
ATOM     77  C27 non d ame     -30.699  16.305  20.924  0.00  0.00     0.085 C 
ATOM     78  H38 non d ame     -31.894  14.870  21.399  0.00  0.00     0.036 H 
ATOM     79  H39 non d ame     -31.946  16.481  22.383  0.00  0.00     0.036 H 
ATOM     80  N5  non d ame     -29.252  15.890  21.047  0.00  0.00    -0.049 N 
ATOM     81  H40 non d ame     -31.107  15.906  19.996  0.00  0.00     0.075 H 
ATOM     82  H41 non d ame     -30.782  17.369  21.143  0.00  0.00     0.075 H 
ATOM     83  C28 non d ame     -29.105  15.216  22.506  0.00  0.00     0.193 C 
ATOM     84  H42 non d ame     -29.099  15.178  20.348  0.00  0.00     0.280 HD
ATOM     85  H43 non d ame     -28.709  16.741  21.028  0.00  0.00     0.280 HD
ATOM     86  H44 non d ame     -28.633  15.764  23.323  0.00  0.00     0.129 H 
ATOM     87  H37 non d ame     -30.141  15.610  23.914  0.00  0.00     0.046 H 
BRANCH  83  88
ATOM     88  O6  non d ame     -28.392  13.982  22.411  0.00  0.00    -0.369 OA
ATOM     89  H45 non d ame     -28.871  13.379  21.836  0.00  0.00     0.212 HD
ENDBRANCH  83  88
ENDBRANCH  72  75
ENDBRANCH  47  72
ENDBRANCH  45  47
ENDBRANCH   1  43
BRANCH   1  90
ATOM     90  C16 non d ame     -33.757   9.893  24.457  0.00  0.00    -0.035 C 
ATOM     91  H21 non d ame     -34.719   9.443  24.696  0.00  0.00     0.037 H 
ATOM     92  H22 non d ame     -33.712  10.907  24.060  0.00  0.00     0.037 H 
BRANCH  90  93
ATOM     93  C17 non d ame     -33.093   8.970  23.386  0.00  0.00    -0.059 C 
ATOM     94  H23 non d ame     -32.408   9.583  22.800  0.00  0.00     0.038 H 
BRANCH  93  95
ATOM     95  C18 non d ame     -32.265   7.815  24.034  0.00  0.00    -0.073 C 
ATOM     96  H24 non d ame     -31.858   8.150  24.988  0.00  0.00     0.028 H 
ATOM     97  H25 non d ame     -32.910   6.953  24.198  0.00  0.00     0.028 H 
ATOM     98  H26 non d ame     -31.448   7.536  23.369  0.00  0.00     0.028 H 
ENDBRANCH  93  95
BRANCH  93  99
ATOM     99  C19 non d ame     -34.142   8.411  22.420  0.00  0.00    -0.073 C 
ATOM    100  H27 non d ame     -35.136   8.727  22.741  0.00  0.00     0.028 H 
ATOM    101  H28 non d ame     -33.949   8.787  21.415  0.00  0.00     0.028 H 
ATOM    102  H29 non d ame     -34.090   7.322  22.417  0.00  0.00     0.028 H 
ENDBRANCH  93  99
ENDBRANCH  90  93
ENDBRANCH   1  90
TORSDOF 26
ENDMDL
MODEL 18
REMARK VINA RESULT:      -6.7      3.418      8.985
REMARK  26 active torsions:
REMARK  status: ('A' for Active; 'I' for Inactive)
REMARK    1  A    between atoms: C2_2  and  C3_3 
REMARK    2  A    between atoms: C4_6  and  C5_7 
REMARK       I    between atoms: C5_7  and  N2_9 
REMARK    3  A    between atoms: N2_9  and  C6_10 
REMARK    4  A    between atoms: C6_10  and  C7_11 
REMARK    5  A    between atoms: C6_10  and  C8_13 
REMARK       I    between atoms: C7_11  and  N3_14 
REMARK    6  A    between atoms: N3_14  and  C9_15 
REMARK    7  A    between atoms: C9_15  and  C10_16 
REMARK    8  A    between atoms: C9_15  and  C11_18 
REMARK       I    between atoms: C10_16  and  N4_21 
REMARK    9  A    between atoms: C11_18  and  C12_19 
REMARK   10  A    between atoms: C11_18  and  C13_20 
REMARK   11  A    between atoms: N4_21  and  C14_22 
REMARK   12  A    between atoms: C14_22  and  C15_23 
REMARK   13  A    between atoms: C14_22  and  C16_25 
REMARK       I    between atoms: C15_23  and  N6_40 
REMARK   14  A    between atoms: C16_25  and  C17_26 
REMARK   15  A    between atoms: C17_26  and  C18_27 
REMARK   16  A    between atoms: C17_26  and  C19_28 
REMARK   17  A    between atoms: C20_29  and  C21_30 
REMARK   18  A    between atoms: C20_29  and  C24_33 
REMARK   19  A    between atoms: C20_29  and  N6_40 
REMARK   20  A    between atoms: C21_30  and  C22_31 
REMARK   21  A    between atoms: C22_31  and  C23_32 
REMARK   22  A    between atoms: C23_32  and  O8_43 
REMARK   23  A    between atoms: C24_33  and  C25_34 
REMARK   24  A    between atoms: C28_38  and  O6_39 
REMARK   25  A    between atoms: C29_42  and  O8_43 
REMARK   26  A    between atoms: C29_42  and  C35_49 
ROOT
ATOM      1  C14 non d ame     -30.894  13.937  25.029  0.00  0.00     0.089 C 
ATOM      2  H20 non d ame     -30.103  13.641  25.718  0.00  0.00     0.087 H 
ENDROOT
BRANCH   1   3
ATOM      3  N4  non d ame     -31.437  12.723  24.437  0.00  0.00    -0.346 N 
ATOM      4  C10 non d ame     -31.465  11.438  25.225  0.00  0.00     0.241 C 
ATOM      5  O4  non d ame     -31.044  11.404  26.334  0.00  0.00    -0.271 OA
ATOM      6  H19 non d ame     -31.788  12.772  23.492  0.00  0.00     0.163 HD
BRANCH   4   7
ATOM      7  C9  non d ame     -32.035  10.192  24.599  0.00  0.00     0.092 C 
ATOM      8  H11 non d ame     -31.777   9.331  25.215  0.00  0.00     0.088 H 
BRANCH   7   9
ATOM      9  N3  non d ame     -33.498  10.283  24.572  0.00  0.00    -0.346 N 
ATOM     10  C7  non d ame     -34.295   9.260  25.202  0.00  0.00     0.240 C 
ATOM     11  O3  non d ame     -33.776   8.356  25.734  0.00  0.00    -0.271 OA
ATOM     12  H10 non d ame     -33.959  11.056  24.115  0.00  0.00     0.163 HD
BRANCH  10  13
ATOM     13  C6  non d ame     -35.851   9.360  25.167  0.00  0.00     0.086 C 
ATOM     14  H6  non d ame     -36.251   9.984  25.966  0.00  0.00     0.086 H 
BRANCH  13  15
ATOM     15  N2  non d ame     -36.257   9.976  23.915  0.00  0.00    -0.343 N 
ATOM     16  C5  non d ame     -37.513  10.725  23.853  0.00  0.00     0.273 C 
ATOM     17  O2  non d ame     -38.193  10.824  24.815  0.00  0.00    -0.266 OA
ATOM     18  H5  non d ame     -35.672   9.884  23.097  0.00  0.00     0.163 HD
BRANCH  16  19
ATOM     19  C4  non d ame     -37.954  11.382  22.535  0.00  0.00     0.154 A 
ATOM     20  C1  non d ame     -38.611  10.752  21.432  0.00  0.00    -0.017 A 
ATOM     21  C2  non d ame     -38.793  11.781  20.482  0.00  0.00     0.077 A 
ATOM     22  H1  non d ame     -38.910   9.708  21.336  0.00  0.00     0.091 H 
ATOM     23  O1  non d ame     -38.297  12.870  20.990  0.00  0.00    -0.218 OA
ATOM     24  N1  non d ame     -37.801  12.663  22.188  0.00  0.00    -0.123 NA
BRANCH  21  25
ATOM     25  C3  non d ame     -39.450  11.640  19.115  0.00  0.00    -0.029 C 
ATOM     26  H2  non d ame     -40.349  11.031  19.205  0.00  0.00     0.036 H 
ATOM     27  H3  non d ame     -39.718  12.627  18.737  0.00  0.00     0.036 H 
ATOM     28  H4  non d ame     -38.756  11.164  18.424  0.00  0.00     0.036 H 
ENDBRANCH  21  25
ENDBRANCH  16  19
ENDBRANCH  13  15
BRANCH  13  29
ATOM     29  C8  non d ame     -36.449   7.981  25.282  0.00  0.00    -0.049 C 
ATOM     30  H7  non d ame     -35.928   7.301  24.609  0.00  0.00     0.030 H 
ATOM     31  H8  non d ame     -36.347   7.625  26.307  0.00  0.00     0.030 H 
ATOM     32  H9  non d ame     -37.506   8.019  25.014  0.00  0.00     0.030 H 
ENDBRANCH  13  29
ENDBRANCH  10  13
ENDBRANCH   7   9
BRANCH   7  33
ATOM     33  C11 non d ame     -31.500  10.053  23.143  0.00  0.00    -0.033 C 
ATOM     34  H12 non d ame     -31.779  10.957  22.603  0.00  0.00     0.042 H 
BRANCH  33  35
ATOM     35  C12 non d ame     -29.943   9.954  23.118  0.00  0.00    -0.071 C 
ATOM     36  H13 non d ame     -29.536  10.771  22.521  0.00  0.00     0.028 H 
ATOM     37  H14 non d ame     -29.557  10.021  24.135  0.00  0.00     0.028 H 
ATOM     38  H15 non d ame     -29.646   9.002  22.678  0.00  0.00     0.028 H 
ENDBRANCH  33  35
BRANCH  33  39
ATOM     39  C13 non d ame     -32.157   8.835  22.420  0.00  0.00    -0.071 C 
ATOM     40  H16 non d ame     -31.456   8.000  22.403  0.00  0.00     0.028 H 
ATOM     41  H17 non d ame     -33.062   8.540  22.952  0.00  0.00     0.028 H 
ATOM     42  H18 non d ame     -32.414   9.114  21.398  0.00  0.00     0.028 H 
ENDBRANCH  33  39
ENDBRANCH   7  33
ENDBRANCH   4   7
ENDBRANCH   1   3
BRANCH   1  43
ATOM     43  C15 non d ame     -32.047  14.694  25.750  0.00  0.00     0.240 C 
ATOM     44  O5  non d ame     -31.870  15.143  26.836  0.00  0.00    -0.271 OA
ATOM     45  N6  non d ame     -33.368  14.869  25.082  0.00  0.00    -0.355 N 
ATOM     46  H46 non d ame     -33.528  14.497  24.156  0.00  0.00     0.162 HD
BRANCH  45  47
ATOM     47  C20 non d ame     -34.452  15.592  25.780  0.00  0.00     0.013 C 
ATOM     48  H30 non d ame     -34.323  15.436  26.851  0.00  0.00     0.072 H 
BRANCH  47  49
ATOM     49  C21 non d ame     -35.788  15.043  25.335  0.00  0.00    -0.038 C 
ATOM     50  H31 non d ame     -36.486  15.275  26.140  0.00  0.00     0.036 H 
ATOM     51  H32 non d ame     -35.954  15.447  24.336  0.00  0.00     0.036 H 
BRANCH  49  52
ATOM     52  C22 non d ame     -35.785  13.505  25.189  0.00  0.00     0.018 C 
ATOM     53  H33 non d ame     -36.764  13.245  24.791  0.00  0.00     0.048 H 
ATOM     54  H34 non d ame     -34.884  13.265  24.624  0.00  0.00     0.048 H 
BRANCH  52  55
ATOM     55  C23 non d ame     -35.657  12.749  26.540  0.00  0.00     0.259 C 
ATOM     56  O7  non d ame     -36.595  12.641  27.262  0.00  0.00    -0.265 OA
BRANCH  55  57
ATOM     57  O8  non d ame     -34.400  12.197  26.914  0.00  0.00    -0.317 OA
BRANCH  57  58
ATOM     58  C29 non d ame     -34.437  11.427  28.119  0.00  0.00     0.052 C 
ATOM     59  H47 non d ame     -35.377  11.685  28.605  0.00  0.00     0.082 H 
ATOM     60  H48 non d ame     -34.242  10.398  27.818  0.00  0.00     0.082 H 
BRANCH  58  61
ATOM     61  C35 non d ame     -33.269  11.900  29.025  0.00  0.00    -0.034 A 
ATOM     62  C30 non d ame     -32.935  13.250  29.081  0.00  0.00    -0.075 A 
ATOM     63  C31 non d ame     -31.885  13.676  29.894  0.00  0.00    -0.082 A 
ATOM     64  H49 non d ame     -33.493  13.974  28.488  0.00  0.00     0.084 H 
ATOM     65  C32 non d ame     -31.168  12.747  30.652  0.00  0.00    -0.083 A 
ATOM     66  H50 non d ame     -31.627  14.735  29.938  0.00  0.00     0.083 H 
ATOM     67  C33 non d ame     -31.503  11.401  30.590  0.00  0.00    -0.082 A 
ATOM     68  H51 non d ame     -30.347  13.071  31.292  0.00  0.00     0.083 H 
ATOM     69  C34 non d ame     -32.552  10.971  29.780  0.00  0.00    -0.075 A 
ATOM     70  H52 non d ame     -30.940  10.677  31.181  0.00  0.00     0.083 H 
ATOM     71  H53 non d ame     -32.810   9.913  29.738  0.00  0.00     0.084 H 
ENDBRANCH  58  61
ENDBRANCH  57  58
ENDBRANCH  55  57
ENDBRANCH  52  55
ENDBRANCH  49  52
ENDBRANCH  47  49
BRANCH  47  72
ATOM     72  C24 non d ame     -34.376  17.081  25.449  0.00  0.00    -0.039 C 
ATOM     73  H35 non d ame     -33.419  17.217  24.945  0.00  0.00     0.036 H 
ATOM     74  H36 non d ame     -35.305  17.309  24.924  0.00  0.00     0.036 H 
BRANCH  72  75
ATOM     75  C25 non d ame     -34.347  17.983  26.772  0.00  0.00    -0.001 C 
ATOM     76  C26 non d ame     -35.380  19.251  26.608  0.00  0.00    -0.035 C 
ATOM     77  C27 non d ame     -34.719  20.395  26.907  0.00  0.00     0.085 C 
ATOM     78  H38 non d ame     -35.652  19.380  25.561  0.00  0.00     0.036 H 
ATOM     79  H39 non d ame     -36.158  19.201  27.371  0.00  0.00     0.036 H 
ATOM     80  N5  non d ame     -33.247  20.057  26.941  0.00  0.00    -0.049 N 
ATOM     81  H40 non d ame     -34.910  21.069  26.071  0.00  0.00     0.075 H 
ATOM     82  H41 non d ame     -35.044  20.666  27.910  0.00  0.00     0.075 H 
ATOM     83  C28 non d ame     -33.163  18.446  26.996  0.00  0.00     0.193 C 
ATOM     84  H42 non d ame     -32.862  20.369  26.061  0.00  0.00     0.280 HD
ATOM     85  H43 non d ame     -32.889  20.429  27.809  0.00  0.00     0.280 HD
ATOM     86  H44 non d ame     -32.924  17.936  27.930  0.00  0.00     0.129 H 
ATOM     87  H37 non d ame     -34.434  17.386  27.680  0.00  0.00     0.046 H 
BRANCH  83  88
ATOM     88  O6  non d ame     -32.209  17.969  26.045  0.00  0.00    -0.369 OA
ATOM     89  H45 non d ame     -31.885  17.108  26.320  0.00  0.00     0.212 HD
ENDBRANCH  83  88
ENDBRANCH  72  75
ENDBRANCH  47  72
ENDBRANCH  45  47
ENDBRANCH   1  43
BRANCH   1  90
ATOM     90  C16 non d ame     -30.318  14.812  23.928  0.00  0.00    -0.035 C 
ATOM     91  H21 non d ame     -30.852  15.758  24.003  0.00  0.00     0.037 H 
ATOM     92  H22 non d ame     -29.238  14.782  24.071  0.00  0.00     0.037 H 
BRANCH  90  93
ATOM     93  C17 non d ame     -30.589  14.267  22.489  0.00  0.00    -0.059 C 
ATOM     94  H23 non d ame     -31.378  13.519  22.563  0.00  0.00     0.038 H 
BRANCH  93  95
ATOM     95  C18 non d ame     -31.083  15.386  21.518  0.00  0.00    -0.073 C 
ATOM     96  H24 non d ame     -32.142  15.240  21.303  0.00  0.00     0.028 H 
ATOM     97  H25 non d ame     -30.940  16.361  21.985  0.00  0.00     0.028 H 
ATOM     98  H26 non d ame     -30.513  15.340  20.590  0.00  0.00     0.028 H 
ENDBRANCH  93  95
BRANCH  93  99
ATOM     99  C19 non d ame     -29.348  13.568  21.927  0.00  0.00    -0.073 C 
ATOM    100  H27 non d ame     -28.765  14.279  21.340  0.00  0.00     0.028 H 
ATOM    101  H28 non d ame     -28.739  13.191  22.748  0.00  0.00     0.028 H 
ATOM    102  H29 non d ame     -29.656  12.738  21.292  0.00  0.00     0.028 H 
ENDBRANCH  93  99
ENDBRANCH  90  93
ENDBRANCH   1  90
TORSDOF 26
ENDMDL
MODEL 19
REMARK VINA RESULT:      -6.6      2.081      6.213
REMARK  26 active torsions:
REMARK  status: ('A' for Active; 'I' for Inactive)
REMARK    1  A    between atoms: C2_2  and  C3_3 
REMARK    2  A    between atoms: C4_6  and  C5_7 
REMARK       I    between atoms: C5_7  and  N2_9 
REMARK    3  A    between atoms: N2_9  and  C6_10 
REMARK    4  A    between atoms: C6_10  and  C7_11 
REMARK    5  A    between atoms: C6_10  and  C8_13 
REMARK       I    between atoms: C7_11  and  N3_14 
REMARK    6  A    between atoms: N3_14  and  C9_15 
REMARK    7  A    between atoms: C9_15  and  C10_16 
REMARK    8  A    between atoms: C9_15  and  C11_18 
REMARK       I    between atoms: C10_16  and  N4_21 
REMARK    9  A    between atoms: C11_18  and  C12_19 
REMARK   10  A    between atoms: C11_18  and  C13_20 
REMARK   11  A    between atoms: N4_21  and  C14_22 
REMARK   12  A    between atoms: C14_22  and  C15_23 
REMARK   13  A    between atoms: C14_22  and  C16_25 
REMARK       I    between atoms: C15_23  and  N6_40 
REMARK   14  A    between atoms: C16_25  and  C17_26 
REMARK   15  A    between atoms: C17_26  and  C18_27 
REMARK   16  A    between atoms: C17_26  and  C19_28 
REMARK   17  A    between atoms: C20_29  and  C21_30 
REMARK   18  A    between atoms: C20_29  and  C24_33 
REMARK   19  A    between atoms: C20_29  and  N6_40 
REMARK   20  A    between atoms: C21_30  and  C22_31 
REMARK   21  A    between atoms: C22_31  and  C23_32 
REMARK   22  A    between atoms: C23_32  and  O8_43 
REMARK   23  A    between atoms: C24_33  and  C25_34 
REMARK   24  A    between atoms: C28_38  and  O6_39 
REMARK   25  A    between atoms: C29_42  and  O8_43 
REMARK   26  A    between atoms: C29_42  and  C35_49 
ROOT
ATOM      1  C14 non d ame     -32.171   8.563  24.235  0.00  0.00     0.089 C 
ATOM      2  H20 non d ame     -31.237   8.030  24.414  0.00  0.00     0.087 H 
ENDROOT
BRANCH   1   3
ATOM      3  N4  non d ame     -33.233   7.823  24.901  0.00  0.00    -0.346 N 
ATOM      4  C10 non d ame     -32.918   6.564  25.668  0.00  0.00     0.241 C 
ATOM      5  O4  non d ame     -31.803   6.164  25.735  0.00  0.00    -0.271 OA
ATOM      6  H19 non d ame     -34.175   8.178  24.830  0.00  0.00     0.163 HD
BRANCH   4   7
ATOM      7  C9  non d ame     -34.029   5.813  26.355  0.00  0.00     0.092 C 
ATOM      8  H11 non d ame     -33.637   4.877  26.752  0.00  0.00     0.088 H 
BRANCH   7   9
ATOM      9  N3  non d ame     -34.516   6.596  27.495  0.00  0.00    -0.346 N 
ATOM     10  C7  non d ame     -34.560   6.005  28.809  0.00  0.00     0.240 C 
ATOM     11  O3  non d ame     -34.208   4.900  28.968  0.00  0.00    -0.271 OA
ATOM     12  H10 non d ame     -34.825   7.550  27.372  0.00  0.00     0.163 HD
BRANCH  10  13
ATOM     13  C6  non d ame     -35.083   6.842  30.018  0.00  0.00     0.086 C 
ATOM     14  H6  non d ame     -34.287   7.371  30.540  0.00  0.00     0.086 H 
BRANCH  13  15
ATOM     15  N2  non d ame     -36.004   7.854  29.528  0.00  0.00    -0.343 N 
ATOM     16  C5  non d ame     -35.479   9.132  29.041  0.00  0.00     0.273 C 
ATOM     17  O2  non d ame     -34.315   9.337  29.050  0.00  0.00    -0.266 OA
ATOM     18  H5  non d ame     -36.997   7.672  29.526  0.00  0.00     0.163 HD
BRANCH  16  19
ATOM     19  C4  non d ame     -36.441  10.211  28.519  0.00  0.00     0.154 A 
ATOM     20  C1  non d ame     -36.361  10.912  27.275  0.00  0.00    -0.017 A 
ATOM     21  C2  non d ame     -37.471  11.785  27.278  0.00  0.00     0.077 A 
ATOM     22  H1  non d ame     -35.612  10.804  26.490  0.00  0.00     0.091 H 
ATOM     23  O1  non d ame     -38.108  11.598  28.396  0.00  0.00    -0.218 OA
ATOM     24  N1  non d ame     -37.526  10.684  29.137  0.00  0.00    -0.123 NA
BRANCH  21  25
ATOM     25  C3  non d ame     -37.852  12.763  26.175  0.00  0.00    -0.029 C 
ATOM     26  H2  non d ame     -37.363  13.721  26.353  0.00  0.00     0.036 H 
ATOM     27  H3  non d ame     -37.531  12.368  25.211  0.00  0.00     0.036 H 
ATOM     28  H4  non d ame     -38.932  12.903  26.169  0.00  0.00     0.036 H 
ENDBRANCH  21  25
ENDBRANCH  16  19
ENDBRANCH  13  15
BRANCH  13  29
ATOM     29  C8  non d ame     -35.786   5.934  30.995  0.00  0.00    -0.049 C 
ATOM     30  H7  non d ame     -36.221   5.091  30.460  0.00  0.00     0.030 H 
ATOM     31  H8  non d ame     -35.069   5.566  31.729  0.00  0.00     0.030 H 
ATOM     32  H9  non d ame     -36.575   6.489  31.503  0.00  0.00     0.030 H 
ENDBRANCH  13  29
ENDBRANCH  10  13
ENDBRANCH   7   9
BRANCH   7  33
ATOM     33  C11 non d ame     -35.196   5.582  25.351  0.00  0.00    -0.033 C 
ATOM     34  H12 non d ame     -34.846   5.883  24.365  0.00  0.00     0.042 H 
BRANCH  33  35
ATOM     35  C12 non d ame     -35.584   4.072  25.270  0.00  0.00    -0.071 C 
ATOM     36  H13 non d ame     -35.040   3.601  24.451  0.00  0.00     0.028 H 
ATOM     37  H14 non d ame     -35.328   3.580  26.208  0.00  0.00     0.028 H 
ATOM     38  H15 non d ame     -36.655   3.981  25.092  0.00  0.00     0.028 H 
ENDBRANCH  33  35
BRANCH  33  39
ATOM     39  C13 non d ame     -36.431   6.465  25.717  0.00  0.00    -0.071 C 
ATOM     40  H16 non d ame     -36.108   7.307  26.330  0.00  0.00     0.028 H 
ATOM     41  H17 non d ame     -36.896   6.838  24.803  0.00  0.00     0.028 H 
ATOM     42  H18 non d ame     -37.154   5.868  26.272  0.00  0.00     0.028 H 
ENDBRANCH  33  39
ENDBRANCH   7  33
ENDBRANCH   4   7
ENDBRANCH   1   3
BRANCH   1  43
ATOM     43  C15 non d ame     -32.141  10.009  24.808  0.00  0.00     0.240 C 
ATOM     44  O5  non d ame     -31.548  10.861  24.229  0.00  0.00    -0.271 OA
ATOM     45  N6  non d ame     -32.859  10.334  26.072  0.00  0.00    -0.355 N 
ATOM     46  H46 non d ame     -33.371   9.619  26.570  0.00  0.00     0.162 HD
BRANCH  45  47
ATOM     47  C20 non d ame     -32.821  11.714  26.603  0.00  0.00     0.013 C 
ATOM     48  H30 non d ame     -33.341  11.718  27.561  0.00  0.00     0.072 H 
BRANCH  47  49
ATOM     49  C21 non d ame     -33.517  12.642  25.633  0.00  0.00    -0.038 C 
ATOM     50  H31 non d ame     -32.728  13.051  25.000  0.00  0.00     0.036 H 
ATOM     51  H32 non d ame     -34.322  12.055  25.190  0.00  0.00     0.036 H 
BRANCH  49  52
ATOM     52  C22 non d ame     -34.187  13.846  26.331  0.00  0.00     0.018 C 
ATOM     53  H33 non d ame     -35.177  13.930  25.886  0.00  0.00     0.048 H 
ATOM     54  H34 non d ame     -34.082  13.662  27.400  0.00  0.00     0.048 H 
BRANCH  52  55
ATOM     55  C23 non d ame     -33.478  15.201  26.058  0.00  0.00     0.259 C 
ATOM     56  O7  non d ame     -33.160  15.908  26.959  0.00  0.00    -0.265 OA
BRANCH  55  57
ATOM     57  O8  non d ame     -33.223  15.597  24.715  0.00  0.00    -0.317 OA
BRANCH  57  58
ATOM     58  C29 non d ame     -31.981  16.283  24.535  0.00  0.00     0.052 C 
ATOM     59  H47 non d ame     -32.245  17.295  24.229  0.00  0.00     0.082 H 
ATOM     60  H48 non d ame     -31.418  16.120  25.453  0.00  0.00     0.082 H 
BRANCH  58  61
ATOM     61  C35 non d ame     -31.221  15.599  23.367  0.00  0.00    -0.034 A 
ATOM     62  C30 non d ame     -31.069  16.262  22.153  0.00  0.00    -0.075 A 
ATOM     63  C31 non d ame     -30.387  15.647  21.103  0.00  0.00    -0.082 A 
ATOM     64  H49 non d ame     -31.485  17.261  22.022  0.00  0.00     0.084 H 
ATOM     65  C32 non d ame     -29.858  14.365  21.270  0.00  0.00    -0.083 A 
ATOM     66  H50 non d ame     -30.268  16.170  20.153  0.00  0.00     0.083 H 
ATOM     67  C33 non d ame     -30.015  13.707  22.483  0.00  0.00    -0.082 A 
ATOM     68  H51 non d ame     -29.322  13.878  20.455  0.00  0.00     0.083 H 
ATOM     69  C34 non d ame     -30.694  14.318  23.535  0.00  0.00    -0.075 A 
ATOM     70  H52 non d ame     -29.603  12.705  22.609  0.00  0.00     0.083 H 
ATOM     71  H53 non d ame     -30.812  13.795  24.484  0.00  0.00     0.084 H 
ENDBRANCH  58  61
ENDBRANCH  57  58
ENDBRANCH  55  57
ENDBRANCH  52  55
ENDBRANCH  49  52
ENDBRANCH  47  49
BRANCH  47  72
ATOM     72  C24 non d ame     -31.371  12.158  26.784  0.00  0.00    -0.039 C 
ATOM     73  H35 non d ame     -30.769  11.278  26.556  0.00  0.00     0.036 H 
ATOM     74  H36 non d ame     -31.267  13.060  26.182  0.00  0.00     0.036 H 
BRANCH  72  75
ATOM     75  C25 non d ame     -31.060  12.563  28.302  0.00  0.00    -0.001 C 
ATOM     76  C26 non d ame     -32.419  12.401  29.214  0.00  0.00    -0.035 C 
ATOM     77  C27 non d ame     -32.623  13.551  29.901  0.00  0.00     0.085 C 
ATOM     78  H38 non d ame     -33.295  12.331  28.571  0.00  0.00     0.036 H 
ATOM     79  H39 non d ame     -32.258  11.661  29.998  0.00  0.00     0.036 H 
ATOM     80  N5  non d ame     -31.715  14.594  29.294  0.00  0.00    -0.049 N 
ATOM     81  H40 non d ame     -33.660  13.825  29.708  0.00  0.00     0.075 H 
ATOM     82  H41 non d ame     -32.294  13.344  30.919  0.00  0.00     0.075 H 
ATOM     83  C28 non d ame     -30.654  13.785  28.385  0.00  0.00     0.193 C 
ATOM     84  H42 non d ame     -32.293  15.158  28.688  0.00  0.00     0.280 HD
ATOM     85  H43 non d ame     -31.220  15.023  30.063  0.00  0.00     0.280 HD
ATOM     86  H44 non d ame     -29.632  13.631  28.734  0.00  0.00     0.129 H 
ATOM     87  H37 non d ame     -30.152  12.091  28.677  0.00  0.00     0.046 H 
BRANCH  83  88
ATOM     88  O6  non d ame     -30.533  14.402  27.103  0.00  0.00    -0.369 OA
ATOM     89  H45 non d ame     -30.217  15.303  27.209  0.00  0.00     0.212 HD
ENDBRANCH  83  88
ENDBRANCH  72  75
ENDBRANCH  47  72
ENDBRANCH  45  47
ENDBRANCH   1  43
BRANCH   1  90
ATOM     90  C16 non d ame     -32.458   8.610  22.743  0.00  0.00    -0.035 C 
ATOM     91  H21 non d ame     -33.336   7.982  22.598  0.00  0.00     0.037 H 
ATOM     92  H22 non d ame     -32.497   9.670  22.490  0.00  0.00     0.037 H 
BRANCH  90  93
ATOM     93  C17 non d ame     -31.324   7.989  21.867  0.00  0.00    -0.059 C 
ATOM     94  H23 non d ame     -31.649   8.029  20.827  0.00  0.00     0.038 H 
BRANCH  93  95
ATOM     95  C18 non d ame     -29.987   8.789  21.979  0.00  0.00    -0.073 C 
ATOM     96  H24 non d ame     -29.771   9.272  21.025  0.00  0.00     0.028 H 
ATOM     97  H25 non d ame     -30.082   9.548  22.755  0.00  0.00     0.028 H 
ATOM     98  H26 non d ame     -29.175   8.108  22.233  0.00  0.00     0.028 H 
ENDBRANCH  93  95
BRANCH  93  99
ATOM     99  C19 non d ame     -31.106   6.515  22.219  0.00  0.00    -0.073 C 
ATOM    100  H27 non d ame     -30.751   6.436  23.247  0.00  0.00     0.028 H 
ATOM    101  H28 non d ame     -32.047   5.973  22.118  0.00  0.00     0.028 H 
ATOM    102  H29 non d ame     -30.366   6.085  21.544  0.00  0.00     0.028 H 
ENDBRANCH  93  99
ENDBRANCH  90  93
ENDBRANCH   1  90
TORSDOF 26
ENDMDL
MODEL 20
REMARK VINA RESULT:      -6.6      2.640      9.164
REMARK  26 active torsions:
REMARK  status: ('A' for Active; 'I' for Inactive)
REMARK    1  A    between atoms: C2_2  and  C3_3 
REMARK    2  A    between atoms: C4_6  and  C5_7 
REMARK       I    between atoms: C5_7  and  N2_9 
REMARK    3  A    between atoms: N2_9  and  C6_10 
REMARK    4  A    between atoms: C6_10  and  C7_11 
REMARK    5  A    between atoms: C6_10  and  C8_13 
REMARK       I    between atoms: C7_11  and  N3_14 
REMARK    6  A    between atoms: N3_14  and  C9_15 
REMARK    7  A    between atoms: C9_15  and  C10_16 
REMARK    8  A    between atoms: C9_15  and  C11_18 
REMARK       I    between atoms: C10_16  and  N4_21 
REMARK    9  A    between atoms: C11_18  and  C12_19 
REMARK   10  A    between atoms: C11_18  and  C13_20 
REMARK   11  A    between atoms: N4_21  and  C14_22 
REMARK   12  A    between atoms: C14_22  and  C15_23 
REMARK   13  A    between atoms: C14_22  and  C16_25 
REMARK       I    between atoms: C15_23  and  N6_40 
REMARK   14  A    between atoms: C16_25  and  C17_26 
REMARK   15  A    between atoms: C17_26  and  C18_27 
REMARK   16  A    between atoms: C17_26  and  C19_28 
REMARK   17  A    between atoms: C20_29  and  C21_30 
REMARK   18  A    between atoms: C20_29  and  C24_33 
REMARK   19  A    between atoms: C20_29  and  N6_40 
REMARK   20  A    between atoms: C21_30  and  C22_31 
REMARK   21  A    between atoms: C22_31  and  C23_32 
REMARK   22  A    between atoms: C23_32  and  O8_43 
REMARK   23  A    between atoms: C24_33  and  C25_34 
REMARK   24  A    between atoms: C28_38  and  O6_39 
REMARK   25  A    between atoms: C29_42  and  O8_43 
REMARK   26  A    between atoms: C29_42  and  C35_49 
ROOT
ATOM      1  C14 non d ame     -31.942  13.396  29.450  0.00  0.00     0.089 C 
ATOM      2  H20 non d ame     -31.470  13.310  30.429  0.00  0.00     0.087 H 
ENDROOT
BRANCH   1   3
ATOM      3  N4  non d ame     -33.110  12.528  29.450  0.00  0.00    -0.346 N 
ATOM      4  C10 non d ame     -33.147  11.299  30.321  0.00  0.00     0.241 C 
ATOM      5  O4  non d ame     -32.223  11.026  31.014  0.00  0.00    -0.271 OA
ATOM      6  H19 non d ame     -33.885  12.776  28.850  0.00  0.00     0.163 HD
BRANCH   4   7
ATOM      7  C9  non d ame     -34.366  10.415  30.311  0.00  0.00     0.092 C 
ATOM      8  H11 non d ame     -35.198  10.956  29.862  0.00  0.00     0.088 H 
BRANCH   7   9
ATOM      9  N3  non d ame     -34.110   9.239  29.473  0.00  0.00    -0.346 N 
ATOM     10  C7  non d ame     -34.762   9.111  28.194  0.00  0.00     0.240 C 
ATOM     11  O3  non d ame     -35.496   9.944  27.822  0.00  0.00    -0.271 OA
ATOM     12  H10 non d ame     -33.481   8.512  29.782  0.00  0.00     0.163 HD
BRANCH  10  13
ATOM     13  C6  non d ame     -34.489   7.856  27.308  0.00  0.00     0.086 C 
ATOM     14  H6  non d ame     -35.313   7.629  26.632  0.00  0.00     0.086 H 
BRANCH  13  15
ATOM     15  N2  non d ame     -33.326   8.110  26.475  0.00  0.00    -0.343 N 
ATOM     16  C5  non d ame     -33.346   7.714  25.066  0.00  0.00     0.273 C 
ATOM     17  O2  non d ame     -34.303   7.187  24.612  0.00  0.00    -0.266 OA
ATOM     18  H5  non d ame     -32.512   8.558  26.872  0.00  0.00     0.163 HD
BRANCH  16  19
ATOM     19  C4  non d ame     -32.123   7.978  24.173  0.00  0.00     0.154 A 
ATOM     20  C1  non d ame     -31.066   7.065  23.863  0.00  0.00    -0.017 A 
ATOM     21  C2  non d ame     -30.199   7.789  23.015  0.00  0.00     0.077 A 
ATOM     22  H1  non d ame     -30.946   6.036  24.202  0.00  0.00     0.091 H 
ATOM     23  O1  non d ame     -30.708   8.975  22.860  0.00  0.00    -0.218 OA
ATOM     24  N1  non d ame     -31.832   9.110  23.527  0.00  0.00    -0.123 NA
BRANCH  21  25
ATOM     25  C3  non d ame     -28.908   7.274  22.393  0.00  0.00    -0.029 C 
ATOM     26  H2  non d ame     -28.380   8.098  21.914  0.00  0.00     0.036 H 
ATOM     27  H3  non d ame     -28.276   6.844  23.171  0.00  0.00     0.036 H 
ATOM     28  H4  non d ame     -29.140   6.510  21.651  0.00  0.00     0.036 H 
ENDBRANCH  21  25
ENDBRANCH  16  19
ENDBRANCH  13  15
BRANCH  13  29
ATOM     29  C8  non d ame     -34.241   6.659  28.190  0.00  0.00    -0.049 C 
ATOM     30  H7  non d ame     -35.041   6.577  28.925  0.00  0.00     0.030 H 
ATOM     31  H8  non d ame     -34.216   5.756  27.580  0.00  0.00     0.030 H 
ATOM     32  H9  non d ame     -33.286   6.778  28.704  0.00  0.00     0.030 H 
ENDBRANCH  13  29
ENDBRANCH  10  13
ENDBRANCH   7   9
BRANCH   7  33
ATOM     33  C11 non d ame     -34.683   9.953  31.764  0.00  0.00    -0.033 C 
ATOM     34  H12 non d ame     -33.734   9.836  32.287  0.00  0.00     0.042 H 
BRANCH  33  35
ATOM     35  C12 non d ame     -35.512  11.029  32.533  0.00  0.00    -0.071 C 
ATOM     36  H13 non d ame     -34.952  11.363  33.407  0.00  0.00     0.028 H 
ATOM     37  H14 non d ame     -35.704  11.878  31.877  0.00  0.00     0.028 H 
ATOM     38  H15 non d ame     -36.460  10.596  32.854  0.00  0.00     0.028 H 
ENDBRANCH  33  35
BRANCH  33  39
ATOM     39  C13 non d ame     -35.409   8.570  31.766  0.00  0.00    -0.071 C 
ATOM     40  H16 non d ame     -35.013   7.952  32.572  0.00  0.00     0.028 H 
ATOM     41  H17 non d ame     -36.479   8.721  31.915  0.00  0.00     0.028 H 
ATOM     42  H18 non d ame     -35.243   8.071  30.811  0.00  0.00     0.028 H 
ENDBRANCH  33  39
ENDBRANCH   7  33
ENDBRANCH   4   7
ENDBRANCH   1   3
BRANCH   1  43
ATOM     43  C15 non d ame     -32.405  14.851  29.148  0.00  0.00     0.240 C 
ATOM     44  O5  non d ame     -31.807  15.769  29.607  0.00  0.00    -0.271 OA
ATOM     45  N6  non d ame     -33.589  15.099  28.277  0.00  0.00    -0.355 N 
ATOM     46  H46 non d ame     -34.103  14.327  27.877  0.00  0.00     0.162 HD
BRANCH  45  47
ATOM     47  C20 non d ame     -34.016  16.487  27.999  0.00  0.00     0.013 C 
ATOM     48  H30 non d ame     -33.602  17.127  28.778  0.00  0.00     0.072 H 
BRANCH  47  49
ATOM     49  C21 non d ame     -35.526  16.560  28.018  0.00  0.00    -0.038 C 
ATOM     50  H31 non d ame     -35.836  16.003  28.902  0.00  0.00     0.036 H 
ATOM     51  H32 non d ame     -35.771  17.619  27.927  0.00  0.00     0.036 H 
BRANCH  49  52
ATOM     52  C22 non d ame     -36.175  15.856  26.807  0.00  0.00     0.018 C 
ATOM     53  H33 non d ame     -35.367  15.686  26.096  0.00  0.00     0.048 H 
ATOM     54  H34 non d ame     -36.727  15.010  27.218  0.00  0.00     0.048 H 
BRANCH  52  55
ATOM     55  C23 non d ame     -37.223  16.729  26.063  0.00  0.00     0.259 C 
ATOM     56  O7  non d ame     -38.180  16.229  25.565  0.00  0.00    -0.265 OA
BRANCH  55  57
ATOM     57  O8  non d ame     -37.021  18.134  25.971  0.00  0.00    -0.317 OA
BRANCH  57  58
ATOM     58  C29 non d ame     -38.120  18.914  26.451  0.00  0.00     0.052 C 
ATOM     59  H47 non d ame     -38.074  19.856  25.904  0.00  0.00     0.082 H 
ATOM     60  H48 non d ame     -38.997  18.274  26.363  0.00  0.00     0.082 H 
BRANCH  58  61
ATOM     61  C35 non d ame     -37.876  19.209  27.956  0.00  0.00    -0.034 A 
ATOM     62  C30 non d ame     -36.909  20.134  28.336  0.00  0.00    -0.075 A 
ATOM     63  C31 non d ame     -36.690  20.398  29.688  0.00  0.00    -0.082 A 
ATOM     64  H49 non d ame     -36.323  20.651  27.577  0.00  0.00     0.084 H 
ATOM     65  C32 non d ame     -37.441  19.732  30.660  0.00  0.00    -0.083 A 
ATOM     66  H50 non d ame     -35.933  21.126  29.983  0.00  0.00     0.083 H 
ATOM     67  C33 non d ame     -38.402  18.807  30.275  0.00  0.00    -0.082 A 
ATOM     68  H51 non d ame     -37.277  19.934  31.719  0.00  0.00     0.083 H 
ATOM     69  C34 non d ame     -38.625  18.541  28.926  0.00  0.00    -0.075 A 
ATOM     70  H52 non d ame     -38.985  18.287  31.036  0.00  0.00     0.083 H 
ATOM     71  H53 non d ame     -39.383  17.815  28.631  0.00  0.00     0.084 H 
ENDBRANCH  58  61
ENDBRANCH  57  58
ENDBRANCH  55  57
ENDBRANCH  52  55
ENDBRANCH  49  52
ENDBRANCH  47  49
BRANCH  47  72
ATOM     72  C24 non d ame     -33.501  16.920  26.628  0.00  0.00    -0.039 C 
ATOM     73  H35 non d ame     -32.824  16.127  26.309  0.00  0.00     0.036 H 
ATOM     74  H36 non d ame     -34.392  17.145  26.041  0.00  0.00     0.036 H 
BRANCH  72  75
ATOM     75  C25 non d ame     -32.641  18.269  26.716  0.00  0.00    -0.001 C 
ATOM     76  C26 non d ame     -32.487  18.733  28.286  0.00  0.00    -0.035 C 
ATOM     77  C27 non d ame     -32.854  20.032  28.396  0.00  0.00     0.085 C 
ATOM     78  H38 non d ame     -33.216  18.209  28.904  0.00  0.00     0.036 H 
ATOM     79  H39 non d ame     -31.435  18.741  28.573  0.00  0.00     0.036 H 
ATOM     80  N5  non d ame     -33.555  20.402  27.109  0.00  0.00    -0.049 N 
ATOM     81  H40 non d ame     -33.574  20.063  29.214  0.00  0.00     0.075 H 
ATOM     82  H41 non d ame     -31.923  20.593  28.467  0.00  0.00     0.075 H 
ATOM     83  C28 non d ame     -33.205  19.227  26.060  0.00  0.00     0.193 C 
ATOM     84  H42 non d ame     -34.545  20.375  27.305  0.00  0.00     0.280 HD
ATOM     85  H43 non d ame     -33.126  21.259  26.789  0.00  0.00     0.280 HD
ATOM     86  H44 non d ame     -32.468  19.389  25.273  0.00  0.00     0.129 H 
ATOM     87  H37 non d ame     -31.728  18.216  26.123  0.00  0.00     0.046 H 
BRANCH  83  88
ATOM     88  O6  non d ame     -34.391  18.796  25.390  0.00  0.00    -0.369 OA
ATOM     89  H45 non d ame     -34.185  18.589  24.475  0.00  0.00     0.212 HD
ENDBRANCH  83  88
ENDBRANCH  72  75
ENDBRANCH  47  72
ENDBRANCH  45  47
ENDBRANCH   1  43
BRANCH   1  90
ATOM     90  C16 non d ame     -30.977  12.933  28.371  0.00  0.00    -0.035 C 
ATOM     91  H21 non d ame     -30.285  13.761  28.228  0.00  0.00     0.037 H 
ATOM     92  H22 non d ame     -30.608  11.965  28.711  0.00  0.00     0.037 H 
BRANCH  90  93
ATOM     93  C17 non d ame     -31.658  12.685  26.987  0.00  0.00    -0.059 C 
ATOM     94  H23 non d ame     -32.729  12.847  27.113  0.00  0.00     0.038 H 
BRANCH  93  95
ATOM     95  C18 non d ame     -31.151  13.678  25.894  0.00  0.00    -0.073 C 
ATOM     96  H24 non d ame     -31.920  13.803  25.131  0.00  0.00     0.028 H 
ATOM     97  H25 non d ame     -30.936  14.644  26.352  0.00  0.00     0.028 H 
ATOM     98  H26 non d ame     -30.245  13.283  25.436  0.00  0.00     0.028 H 
ENDBRANCH  93  95
BRANCH  93  99
ATOM     99  C19 non d ame     -31.467  11.234  26.535  0.00  0.00    -0.073 C 
ATOM    100  H27 non d ame     -30.424  10.947  26.670  0.00  0.00     0.028 H 
ATOM    101  H28 non d ame     -32.104  10.580  27.132  0.00  0.00     0.028 H 
ATOM    102  H29 non d ame     -31.737  11.143  25.483  0.00  0.00     0.028 H 
ENDBRANCH  93  99
ENDBRANCH  90  93
ENDBRANCH   1  90
TORSDOF 26
ENDMDL
