MODEL 1
REMARK VINA RESULT:      -6.9      0.000      0.000
REMARK  26 active torsions:
REMARK  status: ('A' for Active; 'I' for Inactive)
REMARK    1  A    between atoms: C2_2  and  C3_3 
REMARK    2  A    between atoms: C4_6  and  C5_7 
REMARK       I    between atoms: C5_7  and  N2_9 
REMARK    3  A    between atoms: N2_9  and  C6_10 
REMARK    4  A    between atoms: C6_10  and  C7_11 
REMARK    5  A    between atoms: C6_10  and  C8_13 
REMARK       I    between atoms: C7_11  and  N3_14 
REMARK    6  A    between atoms: N3_14  and  C9_15 
REMARK    7  A    between atoms: C9_15  and  C10_16 
REMARK    8  A    between atoms: C9_15  and  C11_18 
REMARK       I    between atoms: C10_16  and  N4_21 
REMARK    9  A    between atoms: C11_18  and  C12_19 
REMARK   10  A    between atoms: C11_18  and  C13_20 
REMARK   11  A    between atoms: N4_21  and  C14_22 
REMARK   12  A    between atoms: C14_22  and  C15_23 
REMARK   13  A    between atoms: C14_22  and  C16_25 
REMARK       I    between atoms: C15_23  and  N6_40 
REMARK   14  A    between atoms: C16_25  and  C17_26 
REMARK   15  A    between atoms: C17_26  and  C18_27 
REMARK   16  A    between atoms: C17_26  and  C19_28 
REMARK   17  A    between atoms: C20_29  and  C21_30 
REMARK   18  A    between atoms: C20_29  and  C24_33 
REMARK   19  A    between atoms: C20_29  and  N6_40 
REMARK   20  A    between atoms: C21_30  and  C22_31 
REMARK   21  A    between atoms: C22_31  and  C23_32 
REMARK   22  A    between atoms: C23_32  and  O8_43 
REMARK   23  A    between atoms: C24_33  and  C25_34 
REMARK   24  A    between atoms: C28_38  and  O6_39 
REMARK   25  A    between atoms: C29_42  and  O8_43 
REMARK   26  A    between atoms: C29_42  and  C35_49 
ROOT
ATOM      1  C14 non d ame     -32.943  10.521  25.731  0.00  0.00     0.089 C 
ATOM      2  H20 non d ame     -33.681  10.587  24.931  0.00  0.00     0.087 H 
ENDROOT
BRANCH   1   3
ATOM      3  N4  non d ame     -32.319   9.209  25.645  0.00  0.00    -0.346 N 
ATOM      4  C10 non d ame     -32.843   8.178  24.678  0.00  0.00     0.241 C 
ATOM      5  O4  non d ame     -33.769   8.426  23.979  0.00  0.00    -0.271 OA
ATOM      6  H19 non d ame     -31.534   9.017  26.251  0.00  0.00     0.163 HD
BRANCH   4   7
ATOM      7  C9  non d ame     -32.182   6.827  24.600  0.00  0.00     0.092 C 
ATOM      8  H11 non d ame     -31.160   6.905  24.970  0.00  0.00     0.088 H 
BRANCH   7   9
ATOM      9  N3  non d ame     -32.888   5.886  25.474  0.00  0.00    -0.346 N 
ATOM     10  C7  non d ame     -32.572   5.832  26.879  0.00  0.00     0.240 C 
ATOM     11  O3  non d ame     -31.752   6.538  27.324  0.00  0.00    -0.271 OA
ATOM     12  H10 non d ame     -33.597   5.269  25.103  0.00  0.00     0.163 HD
BRANCH  10  13
ATOM     13  C6  non d ame     -33.325   4.826  27.804  0.00  0.00     0.086 C 
ATOM     14  H6  non d ame     -32.780   4.609  28.723  0.00  0.00     0.086 H 
BRANCH  13  15
ATOM     15  N2  non d ame     -34.595   5.410  28.202  0.00  0.00    -0.343 N 
ATOM     16  C5  non d ame     -34.942   5.483  29.623  0.00  0.00     0.273 C 
ATOM     17  O2  non d ame     -34.194   5.067  30.438  0.00  0.00    -0.266 OA
ATOM     18  H5  non d ame     -35.229   5.760  27.498  0.00  0.00     0.163 HD
BRANCH  16  19
ATOM     19  C4  non d ame     -36.281   6.099  30.057  0.00  0.00     0.154 A 
ATOM     20  C1  non d ame     -36.486   7.367  30.688  0.00  0.00    -0.017 A 
ATOM     21  C2  non d ame     -37.883   7.458  30.876  0.00  0.00     0.077 A 
ATOM     22  H1  non d ame     -35.736   8.108  30.966  0.00  0.00     0.091 H 
ATOM     23  O1  non d ame     -38.410   6.367  30.404  0.00  0.00    -0.218 OA
ATOM     24  N1  non d ame     -37.495   5.558  29.921  0.00  0.00    -0.123 NA
BRANCH  21  25
ATOM     25  C3  non d ame     -38.633   8.620  31.512  0.00  0.00    -0.029 C 
ATOM     26  H2  non d ame     -38.968   9.306  30.734  0.00  0.00     0.036 H 
ATOM     27  H3  non d ame     -39.499   8.241  32.055  0.00  0.00     0.036 H 
ATOM     28  H4  non d ame     -37.974   9.146  32.201  0.00  0.00     0.036 H 
ENDBRANCH  21  25
ENDBRANCH  16  19
ENDBRANCH  13  15
BRANCH  13  29
ATOM     29  C8  non d ame     -33.560   3.535  27.062  0.00  0.00    -0.049 C 
ATOM     30  H7  non d ame     -34.309   3.692  26.287  0.00  0.00     0.030 H 
ATOM     31  H8  non d ame     -32.628   3.205  26.603  0.00  0.00     0.030 H 
ATOM     32  H9  non d ame     -33.912   2.773  27.759  0.00  0.00     0.030 H 
ENDBRANCH  13  29
ENDBRANCH  10  13
ENDBRANCH   7   9
BRANCH   7  33
ATOM     33  C11 non d ame     -32.236   6.308  23.132  0.00  0.00    -0.033 C 
ATOM     34  H12 non d ame     -32.923   6.950  22.582  0.00  0.00     0.042 H 
BRANCH  33  35
ATOM     35  C12 non d ame     -30.841   6.414  22.441  0.00  0.00    -0.071 C 
ATOM     36  H13 non d ame     -30.916   6.056  21.414  0.00  0.00     0.028 H 
ATOM     37  H14 non d ame     -30.512   7.452  22.441  0.00  0.00     0.028 H 
ATOM     38  H15 non d ame     -30.119   5.804  22.985  0.00  0.00     0.028 H 
ENDBRANCH  33  35
BRANCH  33  39
ATOM     39  C13 non d ame     -32.788   4.848  23.075  0.00  0.00    -0.071 C 
ATOM     40  H16 non d ame     -33.875   4.867  23.157  0.00  0.00     0.028 H 
ATOM     41  H17 non d ame     -32.502   4.388  22.129  0.00  0.00     0.028 H 
ATOM     42  H18 non d ame     -32.371   4.270  23.900  0.00  0.00     0.028 H 
ENDBRANCH  33  39
ENDBRANCH   7  33
ENDBRANCH   4   7
ENDBRANCH   1   3
BRANCH   1  43
ATOM     43  C15 non d ame     -31.836  11.606  25.597  0.00  0.00     0.240 C 
ATOM     44  O5  non d ame     -30.777  11.436  26.110  0.00  0.00    -0.271 OA
ATOM     45  N6  non d ame     -32.091  12.853  24.821  0.00  0.00    -0.355 N 
ATOM     46  H46 non d ame     -32.986  13.006  24.376  0.00  0.00     0.162 HD
BRANCH  45  47
ATOM     47  C20 non d ame     -31.028  13.873  24.703  0.00  0.00     0.013 C 
ATOM     48  H30 non d ame     -30.235  13.613  25.404  0.00  0.00     0.072 H 
BRANCH  47  49
ATOM     49  C21 non d ame     -31.597  15.231  25.047  0.00  0.00    -0.038 C 
ATOM     50  H31 non d ame     -31.391  15.376  26.108  0.00  0.00     0.036 H 
ATOM     51  H32 non d ame     -31.180  15.920  24.312  0.00  0.00     0.036 H 
BRANCH  49  52
ATOM     52  C22 non d ame     -33.131  15.296  24.886  0.00  0.00     0.018 C 
ATOM     53  H33 non d ame     -33.317  16.063  24.135  0.00  0.00     0.048 H 
ATOM     54  H34 non d ame     -33.453  14.270  24.709  0.00  0.00     0.048 H 
BRANCH  52  55
ATOM     55  C23 non d ame     -33.876  15.762  26.168  0.00  0.00     0.259 C 
ATOM     56  O7  non d ame     -35.062  15.838  26.182  0.00  0.00    -0.265 OA
BRANCH  55  57
ATOM     57  O8  non d ame     -33.123  16.112  27.323  0.00  0.00    -0.317 OA
BRANCH  57  58
ATOM     58  C29 non d ame     -33.569  15.475  28.524  0.00  0.00     0.052 C 
ATOM     59  H47 non d ame     -33.552  16.248  29.292  0.00  0.00     0.082 H 
ATOM     60  H48 non d ame     -34.505  14.981  28.267  0.00  0.00     0.082 H 
BRANCH  58  61
ATOM     61  C35 non d ame     -32.529  14.385  28.901  0.00  0.00    -0.034 A 
ATOM     62  C30 non d ame     -32.909  13.304  29.691  0.00  0.00    -0.075 A 
ATOM     63  C31 non d ame     -31.975  12.326  30.030  0.00  0.00    -0.082 A 
ATOM     64  H49 non d ame     -33.937  13.224  30.045  0.00  0.00     0.084 H 
ATOM     65  C32 non d ame     -30.657  12.432  29.578  0.00  0.00    -0.083 A 
ATOM     66  H50 non d ame     -32.277  11.478  30.648  0.00  0.00     0.083 H 
ATOM     67  C33 non d ame     -30.283  13.514  28.794  0.00  0.00    -0.082 A 
ATOM     68  H51 non d ame     -29.921  11.670  29.838  0.00  0.00     0.083 H 
ATOM     69  C34 non d ame     -31.212  14.493  28.451  0.00  0.00    -0.075 A 
ATOM     70  H52 non d ame     -29.252  13.595  28.444  0.00  0.00     0.083 H 
ATOM     71  H53 non d ame     -30.911  15.339  27.833  0.00  0.00     0.084 H 
ENDBRANCH  58  61
ENDBRANCH  57  58
ENDBRANCH  55  57
ENDBRANCH  52  55
ENDBRANCH  49  52
ENDBRANCH  47  49
BRANCH  47  72
ATOM     72  C24 non d ame     -30.488  13.893  23.274  0.00  0.00    -0.039 C 
ATOM     73  H35 non d ame     -29.529  13.376  23.320  0.00  0.00     0.036 H 
ATOM     74  H36 non d ame     -31.292  13.496  22.655  0.00  0.00     0.036 H 
BRANCH  72  75
ATOM     75  C25 non d ame     -30.197  15.386  22.771  0.00  0.00    -0.001 C 
ATOM     76  C26 non d ame     -31.261  15.794  21.587  0.00  0.00    -0.035 C 
ATOM     77  C27 non d ame     -30.570  16.270  20.523  0.00  0.00     0.085 C 
ATOM     78  H38 non d ame     -31.748  14.901  21.196  0.00  0.00     0.036 H 
ATOM     79  H39 non d ame     -31.862  16.648  21.902  0.00  0.00     0.036 H 
ATOM     80  N5  non d ame     -29.119  15.917  20.747  0.00  0.00    -0.049 N 
ATOM     81  H40 non d ame     -30.943  15.714  19.662  0.00  0.00     0.075 H 
ATOM     82  H41 non d ame     -30.683  17.352  20.563  0.00  0.00     0.075 H 
ATOM     83  C28 non d ame     -28.999  15.495  22.300  0.00  0.00     0.193 C 
ATOM     84  H42 non d ame     -28.931  15.104  20.178  0.00  0.00     0.280 HD
ATOM     85  H43 non d ame     -28.594  16.767  20.603  0.00  0.00     0.280 HD
ATOM     86  H44 non d ame     -28.563  16.180  23.028  0.00  0.00     0.129 H 
ATOM     87  H37 non d ame     -30.083  16.085  23.599  0.00  0.00     0.046 H 
BRANCH  83  88
ATOM     88  O6  non d ame     -28.258  14.280  22.426  0.00  0.00    -0.369 OA
ATOM     89  H45 non d ame     -27.508  14.299  21.825  0.00  0.00     0.212 HD
ENDBRANCH  83  88
ENDBRANCH  72  75
ENDBRANCH  47  72
ENDBRANCH  45  47
ENDBRANCH   1  43
BRANCH   1  90
ATOM     90  C16 non d ame     -33.632  10.658  27.079  0.00  0.00    -0.035 C 
ATOM     91  H21 non d ame     -32.897  11.126  27.732  0.00  0.00     0.037 H 
ATOM     92  H22 non d ame     -34.577  11.160  26.871  0.00  0.00     0.037 H 
BRANCH  90  93
ATOM     93  C17 non d ame     -33.996   9.289  27.737  0.00  0.00    -0.059 C 
ATOM     94  H23 non d ame     -33.349   8.529  27.298  0.00  0.00     0.038 H 
BRANCH  93  95
ATOM     95  C18 non d ame     -33.748   9.291  29.279  0.00  0.00    -0.073 C 
ATOM     96  H24 non d ame     -33.389  10.273  29.589  0.00  0.00     0.028 H 
ATOM     97  H25 non d ame     -34.681   9.068  29.798  0.00  0.00     0.028 H 
ATOM     98  H26 non d ame     -33.003   8.536  29.529  0.00  0.00     0.028 H 
ENDBRANCH  93  95
BRANCH  93  99
ATOM     99  C19 non d ame     -35.441   8.896  27.419  0.00  0.00    -0.073 C 
ATOM    100  H27 non d ame     -36.053   9.795  27.337  0.00  0.00     0.028 H 
ATOM    101  H28 non d ame     -35.471   8.350  26.476  0.00  0.00     0.028 H 
ATOM    102  H29 non d ame     -35.830   8.263  28.217  0.00  0.00     0.028 H 
ENDBRANCH  93  99
ENDBRANCH  90  93
ENDBRANCH   1  90
TORSDOF 26
ENDMDL
MODEL 2
REMARK VINA RESULT:      -6.8      2.521      5.149
REMARK  26 active torsions:
REMARK  status: ('A' for Active; 'I' for Inactive)
REMARK    1  A    between atoms: C2_2  and  C3_3 
REMARK    2  A    between atoms: C4_6  and  C5_7 
REMARK       I    between atoms: C5_7  and  N2_9 
REMARK    3  A    between atoms: N2_9  and  C6_10 
REMARK    4  A    between atoms: C6_10  and  C7_11 
REMARK    5  A    between atoms: C6_10  and  C8_13 
REMARK       I    between atoms: C7_11  and  N3_14 
REMARK    6  A    between atoms: N3_14  and  C9_15 
REMARK    7  A    between atoms: C9_15  and  C10_16 
REMARK    8  A    between atoms: C9_15  and  C11_18 
REMARK       I    between atoms: C10_16  and  N4_21 
REMARK    9  A    between atoms: C11_18  and  C12_19 
REMARK   10  A    between atoms: C11_18  and  C13_20 
REMARK   11  A    between atoms: N4_21  and  C14_22 
REMARK   12  A    between atoms: C14_22  and  C15_23 
REMARK   13  A    between atoms: C14_22  and  C16_25 
REMARK       I    between atoms: C15_23  and  N6_40 
REMARK   14  A    between atoms: C16_25  and  C17_26 
REMARK   15  A    between atoms: C17_26  and  C18_27 
REMARK   16  A    between atoms: C17_26  and  C19_28 
REMARK   17  A    between atoms: C20_29  and  C21_30 
REMARK   18  A    between atoms: C20_29  and  C24_33 
REMARK   19  A    between atoms: C20_29  and  N6_40 
REMARK   20  A    between atoms: C21_30  and  C22_31 
REMARK   21  A    between atoms: C22_31  and  C23_32 
REMARK   22  A    between atoms: C23_32  and  O8_43 
REMARK   23  A    between atoms: C24_33  and  C25_34 
REMARK   24  A    between atoms: C28_38  and  O6_39 
REMARK   25  A    between atoms: C29_42  and  O8_43 
REMARK   26  A    between atoms: C29_42  and  C35_49 
ROOT
ATOM      1  C14 non d ame     -32.215   9.161  24.317  0.00  0.00     0.089 C 
ATOM      2  H20 non d ame     -31.718   8.306  24.776  0.00  0.00     0.087 H 
ENDROOT
BRANCH   1   3
ATOM      3  N4  non d ame     -33.578   9.202  24.826  0.00  0.00    -0.346 N 
ATOM      4  C10 non d ame     -34.138   8.035  25.597  0.00  0.00     0.241 C 
ATOM      5  O4  non d ame     -33.475   7.071  25.795  0.00  0.00    -0.271 OA
ATOM      6  H19 non d ame     -34.127  10.030  24.644  0.00  0.00     0.163 HD
BRANCH   4   7
ATOM      7  C9  non d ame     -35.550   8.096  26.120  0.00  0.00     0.092 C 
ATOM      8  H11 non d ame     -35.817   7.129  26.544  0.00  0.00     0.088 H 
BRANCH   7   9
ATOM      9  N3  non d ame     -35.628   9.081  27.203  0.00  0.00    -0.346 N 
ATOM     10  C7  non d ame     -36.066   8.675  28.516  0.00  0.00     0.240 C 
ATOM     11  O3  non d ame     -36.361   7.561  28.718  0.00  0.00    -0.271 OA
ATOM     12  H10 non d ame     -35.378  10.047  27.043  0.00  0.00     0.163 HD
BRANCH  10  13
ATOM     13  C6  non d ame     -36.150   9.729  29.664  0.00  0.00     0.086 C 
ATOM     14  H6  non d ame     -36.124   9.275  30.654  0.00  0.00     0.086 H 
BRANCH  13  15
ATOM     15  N2  non d ame     -34.998  10.611  29.580  0.00  0.00    -0.343 N 
ATOM     16  C5  non d ame     -33.837  10.365  30.438  0.00  0.00     0.273 C 
ATOM     17  O2  non d ame     -33.840   9.456  31.194  0.00  0.00    -0.266 OA
ATOM     18  H5  non d ame     -35.005  11.386  28.933  0.00  0.00     0.163 HD
BRANCH  16  19
ATOM     19  C4  non d ame     -32.612  11.289  30.359  0.00  0.00     0.154 A 
ATOM     20  C1  non d ame     -32.327  12.263  29.350  0.00  0.00    -0.017 A 
ATOM     21  C2  non d ame     -31.095  12.836  29.736  0.00  0.00     0.077 A 
ATOM     22  H1  non d ame     -32.923  12.516  28.473  0.00  0.00     0.091 H 
ATOM     23  O1  non d ame     -30.725  12.254  30.839  0.00  0.00    -0.218 OA
ATOM     24  N1  non d ame     -31.594  11.347  31.222  0.00  0.00    -0.123 NA
BRANCH  21  25
ATOM     25  C3  non d ame     -30.341  13.934  28.999  0.00  0.00    -0.029 C 
ATOM     26  H2  non d ame     -31.029  14.476  28.351  0.00  0.00     0.036 H 
ATOM     27  H3  non d ame     -29.905  14.625  29.721  0.00  0.00     0.036 H 
ATOM     28  H4  non d ame     -29.548  13.491  28.397  0.00  0.00     0.036 H 
ENDBRANCH  21  25
ENDBRANCH  16  19
ENDBRANCH  13  15
BRANCH  13  29
ATOM     29  C8  non d ame     -37.422  10.525  29.526  0.00  0.00    -0.049 C 
ATOM     30  H7  non d ame     -38.228   9.871  29.197  0.00  0.00     0.030 H 
ATOM     31  H8  non d ame     -37.683  10.964  30.489  0.00  0.00     0.030 H 
ATOM     32  H9  non d ame     -37.276  11.319  28.793  0.00  0.00     0.030 H 
ENDBRANCH  13  29
ENDBRANCH  10  13
ENDBRANCH   7   9
BRANCH   7  33
ATOM     33  C11 non d ame     -36.511   8.518  24.970  0.00  0.00    -0.033 C 
ATOM     34  H12 non d ame     -35.936   8.516  24.044  0.00  0.00     0.042 H 
BRANCH  33  35
ATOM     35  C12 non d ame     -37.676   7.494  24.800  0.00  0.00    -0.071 C 
ATOM     36  H13 non d ame     -38.323   7.531  25.677  0.00  0.00     0.028 H 
ATOM     37  H14 non d ame     -38.254   7.745  23.911  0.00  0.00     0.028 H 
ATOM     38  H15 non d ame     -37.266   6.490  24.696  0.00  0.00     0.028 H 
ENDBRANCH  33  35
BRANCH  33  39
ATOM     39  C13 non d ame     -37.055   9.964  25.198  0.00  0.00    -0.071 C 
ATOM     40  H16 non d ame     -37.193  10.137  26.265  0.00  0.00     0.028 H 
ATOM     41  H17 non d ame     -36.343  10.688  24.800  0.00  0.00     0.028 H 
ATOM     42  H18 non d ame     -38.010  10.078  24.685  0.00  0.00     0.028 H 
ENDBRANCH  33  39
ENDBRANCH   7  33
ENDBRANCH   4   7
ENDBRANCH   1   3
BRANCH   1  43
ATOM     43  C15 non d ame     -31.514  10.505  24.670  0.00  0.00     0.240 C 
ATOM     44  O5  non d ame     -31.054  10.665  25.754  0.00  0.00    -0.271 OA
ATOM     45  N6  non d ame     -31.407  11.589  23.653  0.00  0.00    -0.355 N 
ATOM     46  H46 non d ame     -31.790  11.463  22.726  0.00  0.00     0.162 HD
BRANCH  45  47
ATOM     47  C20 non d ame     -30.737  12.860  24.004  0.00  0.00     0.013 C 
ATOM     48  H30 non d ame     -30.075  12.667  24.848  0.00  0.00     0.072 H 
BRANCH  47  49
ATOM     49  C21 non d ame     -31.780  13.886  24.388  0.00  0.00    -0.038 C 
ATOM     50  H31 non d ame     -31.369  14.850  24.086  0.00  0.00     0.036 H 
ATOM     51  H32 non d ame     -32.715  13.532  23.953  0.00  0.00     0.036 H 
BRANCH  49  52
ATOM     52  C22 non d ame     -32.009  13.965  25.913  0.00  0.00     0.018 C 
ATOM     53  H33 non d ame     -31.747  12.983  26.302  0.00  0.00     0.048 H 
ATOM     54  H34 non d ame     -31.465  14.848  26.247  0.00  0.00     0.048 H 
BRANCH  52  55
ATOM     55  C23 non d ame     -33.493  14.202  26.311  0.00  0.00     0.259 C 
ATOM     56  O7  non d ame     -34.311  13.362  26.113  0.00  0.00    -0.265 OA
BRANCH  55  57
ATOM     57  O8  non d ame     -33.867  15.440  26.902  0.00  0.00    -0.317 OA
BRANCH  57  58
ATOM     58  C29 non d ame     -32.794  16.118  27.562  0.00  0.00     0.052 C 
ATOM     59  H47 non d ame     -32.980  15.997  28.629  0.00  0.00     0.082 H 
ATOM     60  H48 non d ame     -31.879  15.725  27.120  0.00  0.00     0.082 H 
BRANCH  58  61
ATOM     61  C35 non d ame     -32.896  17.628  27.214  0.00  0.00    -0.034 A 
ATOM     62  C30 non d ame     -32.689  18.586  28.202  0.00  0.00    -0.075 A 
ATOM     63  C31 non d ame     -32.782  19.941  27.890  0.00  0.00    -0.082 A 
ATOM     64  H49 non d ame     -32.456  18.275  29.221  0.00  0.00     0.084 H 
ATOM     65  C32 non d ame     -33.084  20.338  26.585  0.00  0.00    -0.083 A 
ATOM     66  H50 non d ame     -32.617  20.690  28.666  0.00  0.00     0.083 H 
ATOM     67  C33 non d ame     -33.293  19.379  25.604  0.00  0.00    -0.082 A 
ATOM     68  H51 non d ame     -33.157  21.396  26.332  0.00  0.00     0.083 H 
ATOM     69  C34 non d ame     -33.200  18.023  25.911  0.00  0.00    -0.075 A 
ATOM     70  H52 non d ame     -33.532  19.691  24.586  0.00  0.00     0.083 H 
ATOM     71  H53 non d ame     -33.364  17.275  25.134  0.00  0.00     0.084 H 
ENDBRANCH  58  61
ENDBRANCH  57  58
ENDBRANCH  55  57
ENDBRANCH  52  55
ENDBRANCH  49  52
ENDBRANCH  47  49
BRANCH  47  72
ATOM     72  C24 non d ame     -29.936  13.369  22.808  0.00  0.00    -0.039 C 
ATOM     73  H35 non d ame     -28.892  13.328  23.120  0.00  0.00     0.036 H 
ATOM     74  H36 non d ame     -30.274  12.775  21.958  0.00  0.00     0.036 H 
BRANCH  72  75
ATOM     75  C25 non d ame     -30.271  14.900  22.477  0.00  0.00    -0.001 C 
ATOM     76  C26 non d ame     -30.981  15.011  20.998  0.00  0.00    -0.035 C 
ATOM     77  C27 non d ame     -30.323  15.941  20.266  0.00  0.00     0.085 C 
ATOM     78  H38 non d ame     -30.825  14.089  20.438  0.00  0.00     0.036 H 
ATOM     79  H39 non d ame     -31.985  15.426  21.095  0.00  0.00     0.036 H 
ATOM     80  N5  non d ame     -29.031  16.239  20.990  0.00  0.00    -0.049 N 
ATOM     81  H40 non d ame     -30.095  15.456  19.317  0.00  0.00     0.075 H 
ATOM     82  H41 non d ame     -30.954  16.828  20.287  0.00  0.00     0.075 H 
ATOM     83  C28 non d ame     -29.201  15.622  22.472  0.00  0.00     0.193 C 
ATOM     84  H42 non d ame     -28.309  15.724  20.509  0.00  0.00     0.280 HD
ATOM     85  H43 non d ame     -28.972  17.244  21.064  0.00  0.00     0.280 HD
ATOM     86  H44 non d ame     -29.399  16.274  23.323  0.00  0.00     0.129 H 
ATOM     87  H37 non d ame     -30.771  15.401  23.306  0.00  0.00     0.046 H 
BRANCH  83  88
ATOM     88  O6  non d ame     -28.041  14.869  22.829  0.00  0.00    -0.369 OA
ATOM     89  H45 non d ame     -27.254  15.328  22.523  0.00  0.00     0.212 HD
ENDBRANCH  83  88
ENDBRANCH  72  75
ENDBRANCH  47  72
ENDBRANCH  45  47
ENDBRANCH   1  43
BRANCH   1  90
ATOM     90  C16 non d ame     -32.252   8.986  22.808  0.00  0.00    -0.035 C 
ATOM     91  H21 non d ame     -33.198   8.489  22.598  0.00  0.00     0.037 H 
ATOM     92  H22 non d ame     -32.053   9.976  22.397  0.00  0.00     0.037 H 
BRANCH  90  93
ATOM     93  C17 non d ame     -31.131   8.046  22.259  0.00  0.00    -0.059 C 
ATOM     94  H23 non d ame     -31.487   7.621  21.321  0.00  0.00     0.038 H 
BRANCH  93  95
ATOM     95  C18 non d ame     -29.808   8.820  21.959  0.00  0.00    -0.073 C 
ATOM     96  H24 non d ame     -30.034   9.870  21.773  0.00  0.00     0.028 H 
ATOM     97  H25 non d ame     -29.138   8.740  22.816  0.00  0.00     0.028 H 
ATOM     98  H26 non d ame     -29.327   8.391  21.080  0.00  0.00     0.028 H 
ENDBRANCH  93  95
BRANCH  93  99
ATOM     99  C19 non d ame     -30.875   6.881  23.219  0.00  0.00    -0.073 C 
ATOM    100  H27 non d ame     -30.616   7.273  24.204  0.00  0.00     0.028 H 
ATOM    101  H28 non d ame     -31.774   6.270  23.298  0.00  0.00     0.028 H 
ATOM    102  H29 non d ame     -30.053   6.273  22.842  0.00  0.00     0.028 H 
ENDBRANCH  93  99
ENDBRANCH  90  93
ENDBRANCH   1  90
TORSDOF 26
ENDMDL
MODEL 3
REMARK VINA RESULT:      -6.8      3.741      7.591
REMARK  26 active torsions:
REMARK  status: ('A' for Active; 'I' for Inactive)
REMARK    1  A    between atoms: C2_2  and  C3_3 
REMARK    2  A    between atoms: C4_6  and  C5_7 
REMARK       I    between atoms: C5_7  and  N2_9 
REMARK    3  A    between atoms: N2_9  and  C6_10 
REMARK    4  A    between atoms: C6_10  and  C7_11 
REMARK    5  A    between atoms: C6_10  and  C8_13 
REMARK       I    between atoms: C7_11  and  N3_14 
REMARK    6  A    between atoms: N3_14  and  C9_15 
REMARK    7  A    between atoms: C9_15  and  C10_16 
REMARK    8  A    between atoms: C9_15  and  C11_18 
REMARK       I    between atoms: C10_16  and  N4_21 
REMARK    9  A    between atoms: C11_18  and  C12_19 
REMARK   10  A    between atoms: C11_18  and  C13_20 
REMARK   11  A    between atoms: N4_21  and  C14_22 
REMARK   12  A    between atoms: C14_22  and  C15_23 
REMARK   13  A    between atoms: C14_22  and  C16_25 
REMARK       I    between atoms: C15_23  and  N6_40 
REMARK   14  A    between atoms: C16_25  and  C17_26 
REMARK   15  A    between atoms: C17_26  and  C18_27 
REMARK   16  A    between atoms: C17_26  and  C19_28 
REMARK   17  A    between atoms: C20_29  and  C21_30 
REMARK   18  A    between atoms: C20_29  and  C24_33 
REMARK   19  A    between atoms: C20_29  and  N6_40 
REMARK   20  A    between atoms: C21_30  and  C22_31 
REMARK   21  A    between atoms: C22_31  and  C23_32 
REMARK   22  A    between atoms: C23_32  and  O8_43 
REMARK   23  A    between atoms: C24_33  and  C25_34 
REMARK   24  A    between atoms: C28_38  and  O6_39 
REMARK   25  A    between atoms: C29_42  and  O8_43 
REMARK   26  A    between atoms: C29_42  and  C35_49 
ROOT
ATOM      1  C14 non d ame     -31.265  14.734  24.176  0.00  0.00     0.089 C 
ATOM      2  H20 non d ame     -30.266  14.725  24.613  0.00  0.00     0.087 H 
ENDROOT
BRANCH   1   3
ATOM      3  N4  non d ame     -31.667  13.350  23.972  0.00  0.00    -0.346 N 
ATOM      4  C10 non d ame     -31.495  12.337  25.075  0.00  0.00     0.241 C 
ATOM      5  O4  non d ame     -31.028  12.657  26.118  0.00  0.00    -0.271 OA
ATOM      6  H19 non d ame     -32.059  13.097  23.077  0.00  0.00     0.163 HD
BRANCH   4   7
ATOM      7  C9  non d ame     -31.920  10.910  24.849  0.00  0.00     0.092 C 
ATOM      8  H11 non d ame     -31.525  10.286  25.650  0.00  0.00     0.088 H 
BRANCH   7   9
ATOM      9  N3  non d ame     -33.382  10.820  24.910  0.00  0.00    -0.346 N 
ATOM     10  C7  non d ame     -34.030  10.443  26.142  0.00  0.00     0.240 C 
ATOM     11  O3  non d ame     -33.390  10.208  27.094  0.00  0.00    -0.271 OA
ATOM     12  H10 non d ame     -33.947  11.018  24.096  0.00  0.00     0.163 HD
BRANCH  10  13
ATOM     13  C6  non d ame     -35.586  10.346  26.201  0.00  0.00     0.086 C 
ATOM     14  H6  non d ame     -35.971  10.350  27.220  0.00  0.00     0.086 H 
BRANCH  13  15
ATOM     15  N2  non d ame     -36.157  11.506  25.536  0.00  0.00    -0.343 N 
ATOM     16  C5  non d ame     -36.910  12.487  26.319  0.00  0.00     0.273 C 
ATOM     17  O2  non d ame     -37.055  12.334  27.482  0.00  0.00    -0.266 OA
ATOM     18  H5  non d ame     -36.031  11.628  24.541  0.00  0.00     0.163 HD
BRANCH  16  19
ATOM     19  C4  non d ame     -37.518  13.719  25.629  0.00  0.00     0.154 A 
ATOM     20  C1  non d ame     -37.797  14.991  26.220  0.00  0.00    -0.017 A 
ATOM     21  C2  non d ame     -38.344  15.766  25.173  0.00  0.00     0.077 A 
ATOM     22  H1  non d ame     -37.628  15.305  27.250  0.00  0.00     0.091 H 
ATOM     23  O1  non d ame     -38.370  15.018  24.109  0.00  0.00    -0.218 OA
ATOM     24  N1  non d ame     -37.893  13.818  24.351  0.00  0.00    -0.123 NA
BRANCH  21  25
ATOM     25  C3  non d ame     -38.814  17.211  25.271  0.00  0.00    -0.029 C 
ATOM     26  H2  non d ame     -37.950  17.870  25.347  0.00  0.00     0.036 H 
ATOM     27  H3  non d ame     -39.387  17.469  24.380  0.00  0.00     0.036 H 
ATOM     28  H4  non d ame     -39.441  17.331  26.154  0.00  0.00     0.036 H 
ENDBRANCH  21  25
ENDBRANCH  16  19
ENDBRANCH  13  15
BRANCH  13  29
ATOM     29  C8  non d ame     -36.039   9.082  25.515  0.00  0.00    -0.049 C 
ATOM     30  H7  non d ame     -35.244   8.712  24.870  0.00  0.00     0.030 H 
ATOM     31  H8  non d ame     -36.279   8.328  26.264  0.00  0.00     0.030 H 
ATOM     32  H9  non d ame     -36.926   9.293  24.915  0.00  0.00     0.030 H 
ENDBRANCH  13  29
ENDBRANCH  10  13
ENDBRANCH   7   9
BRANCH   7  33
ATOM     33  C11 non d ame     -31.433  10.440  23.446  0.00  0.00    -0.033 C 
ATOM     34  H12 non d ame     -31.642  11.243  22.740  0.00  0.00     0.042 H 
BRANCH  33  35
ATOM     35  C12 non d ame     -29.892  10.193  23.434  0.00  0.00    -0.071 C 
ATOM     36  H13 non d ame     -29.626   9.514  24.245  0.00  0.00     0.028 H 
ATOM     37  H14 non d ame     -29.602   9.752  22.481  0.00  0.00     0.028 H 
ATOM     38  H15 non d ame     -29.371  11.141  23.571  0.00  0.00     0.028 H 
ENDBRANCH  33  35
BRANCH  33  39
ATOM     39  C13 non d ame     -32.214   9.170  22.979  0.00  0.00    -0.071 C 
ATOM     40  H16 non d ame     -32.074   8.370  23.706  0.00  0.00     0.028 H 
ATOM     41  H17 non d ame     -33.276   9.406  22.896  0.00  0.00     0.028 H 
ATOM     42  H18 non d ame     -31.838   8.848  22.008  0.00  0.00     0.028 H 
ENDBRANCH  33  39
ENDBRANCH   7  33
ENDBRANCH   4   7
ENDBRANCH   1   3
BRANCH   1  43
ATOM     43  C15 non d ame     -32.306  15.420  25.106  0.00  0.00     0.240 C 
ATOM     44  O5  non d ame     -33.406  15.630  24.708  0.00  0.00    -0.271 OA
ATOM     45  N6  non d ame     -31.936  15.807  26.497  0.00  0.00    -0.355 N 
ATOM     46  H46 non d ame     -31.005  15.629  26.848  0.00  0.00     0.162 HD
BRANCH  45  47
ATOM     47  C20 non d ame     -32.938  16.458  27.368  0.00  0.00     0.013 C 
ATOM     48  H30 non d ame     -33.922  16.287  26.932  0.00  0.00     0.072 H 
BRANCH  47  49
ATOM     49  C21 non d ame     -32.652  17.941  27.438  0.00  0.00    -0.038 C 
ATOM     50  H31 non d ame     -33.117  18.287  28.361  0.00  0.00     0.036 H 
ATOM     51  H32 non d ame     -31.575  18.040  27.299  0.00  0.00     0.036 H 
BRANCH  49  52
ATOM     52  C22 non d ame     -33.315  18.733  26.290  0.00  0.00     0.018 C 
ATOM     53  H33 non d ame     -33.069  19.778  26.473  0.00  0.00     0.048 H 
ATOM     54  H34 non d ame     -32.987  18.248  25.370  0.00  0.00     0.048 H 
BRANCH  52  55
ATOM     55  C23 non d ame     -34.866  18.651  26.287  0.00  0.00     0.259 C 
ATOM     56  O7  non d ame     -35.433  17.976  25.490  0.00  0.00    -0.265 OA
BRANCH  55  57
ATOM     57  O8  non d ame     -35.606  19.405  27.240  0.00  0.00    -0.317 OA
BRANCH  57  58
ATOM     58  C29 non d ame     -35.891  20.745  26.830  0.00  0.00     0.052 C 
ATOM     59  H47 non d ame     -35.895  21.339  27.743  0.00  0.00     0.082 H 
ATOM     60  H48 non d ame     -35.179  20.969  26.036  0.00  0.00     0.082 H 
BRANCH  58  61
ATOM     61  C35 non d ame     -37.320  20.766  26.224  0.00  0.00    -0.034 A 
ATOM     62  C30 non d ame     -38.431  20.693  27.059  0.00  0.00    -0.075 A 
ATOM     63  C31 non d ame     -39.715  20.711  26.515  0.00  0.00    -0.082 A 
ATOM     64  H49 non d ame     -38.296  20.620  28.138  0.00  0.00     0.084 H 
ATOM     65  C32 non d ame     -39.886  20.802  25.131  0.00  0.00    -0.083 A 
ATOM     66  H50 non d ame     -40.584  20.655  27.173  0.00  0.00     0.083 H 
ATOM     67  C33 non d ame     -38.774  20.871  24.303  0.00  0.00    -0.082 A 
ATOM     68  H51 non d ame     -40.886  20.817  24.698  0.00  0.00     0.083 H 
ATOM     69  C34 non d ame     -37.489  20.854  24.841  0.00  0.00    -0.075 A 
ATOM     70  H52 non d ame     -38.911  20.938  23.222  0.00  0.00     0.083 H 
ATOM     71  H53 non d ame     -36.621  20.911  24.184  0.00  0.00     0.084 H 
ENDBRANCH  58  61
ENDBRANCH  57  58
ENDBRANCH  55  57
ENDBRANCH  52  55
ENDBRANCH  49  52
ENDBRANCH  47  49
BRANCH  47  72
ATOM     72  C24 non d ame     -32.869  15.858  28.771  0.00  0.00    -0.039 C 
ATOM     73  H35 non d ame     -32.542  16.673  29.419  0.00  0.00     0.036 H 
ATOM     74  H36 non d ame     -33.839  15.389  28.934  0.00  0.00     0.036 H 
BRANCH  72  75
ATOM     75  C25 non d ame     -31.762  14.704  28.869  0.00  0.00    -0.001 C 
ATOM     76  C26 non d ame     -32.486  13.260  29.174  0.00  0.00    -0.035 C 
ATOM     77  C27 non d ame     -31.877  12.681  30.237  0.00  0.00     0.085 C 
ATOM     78  H38 non d ame     -33.507  13.418  29.521  0.00  0.00     0.036 H 
ATOM     79  H39 non d ame     -32.290  12.563  28.358  0.00  0.00     0.036 H 
ATOM     80  N5  non d ame     -31.022  13.743  30.886  0.00  0.00    -0.049 N 
ATOM     81  H40 non d ame     -32.681  12.405  30.918  0.00  0.00     0.075 H 
ATOM     82  H41 non d ame     -31.229  11.912  29.818  0.00  0.00     0.075 H 
ATOM     83  C28 non d ame     -30.917  14.946  29.815  0.00  0.00     0.193 C 
ATOM     84  H42 non d ame     -31.537  14.072  31.690  0.00  0.00     0.280 HD
ATOM     85  H43 non d ame     -30.105  13.337  31.006  0.00  0.00     0.280 HD
ATOM     86  H44 non d ame     -30.006  15.091  29.234  0.00  0.00     0.129 H 
ATOM     87  H37 non d ame     -31.055  14.739  28.041  0.00  0.00     0.046 H 
BRANCH  83  88
ATOM     88  O6  non d ame     -31.167  16.199  30.454  0.00  0.00    -0.369 OA
ATOM     89  H45 non d ame     -31.053  16.103  31.403  0.00  0.00     0.212 HD
ENDBRANCH  83  88
ENDBRANCH  72  75
ENDBRANCH  47  72
ENDBRANCH  45  47
ENDBRANCH   1  43
BRANCH   1  90
ATOM     90  C16 non d ame     -31.232  15.445  22.833  0.00  0.00    -0.035 C 
ATOM     91  H21 non d ame     -32.219  15.289  22.400  0.00  0.00     0.037 H 
ATOM     92  H22 non d ame     -30.885  16.455  23.050  0.00  0.00     0.037 H 
BRANCH  90  93
ATOM     93  C17 non d ame     -30.208  14.832  21.825  0.00  0.00    -0.059 C 
ATOM     94  H23 non d ame     -30.374  13.755  21.799  0.00  0.00     0.038 H 
BRANCH  93  95
ATOM     95  C18 non d ame     -30.407  15.380  20.375  0.00  0.00    -0.073 C 
ATOM     96  H24 non d ame     -29.675  16.163  20.178  0.00  0.00     0.028 H 
ATOM     97  H25 non d ame     -30.272  14.569  19.659  0.00  0.00     0.028 H 
ATOM     98  H26 non d ame     -31.412  15.788  20.276  0.00  0.00     0.028 H 
ENDBRANCH  93  95
BRANCH  93  99
ATOM     99  C19 non d ame     -28.770  15.060  22.300  0.00  0.00    -0.073 C 
ATOM    100  H27 non d ame     -28.154  14.205  22.017  0.00  0.00     0.028 H 
ATOM    101  H28 non d ame     -28.372  15.963  21.836  0.00  0.00     0.028 H 
ATOM    102  H29 non d ame     -28.759  15.174  23.383  0.00  0.00     0.028 H 
ENDBRANCH  93  99
ENDBRANCH  90  93
ENDBRANCH   1  90
TORSDOF 26
ENDMDL
MODEL 4
REMARK VINA RESULT:      -6.7      2.511      5.180
REMARK  26 active torsions:
REMARK  status: ('A' for Active; 'I' for Inactive)
REMARK    1  A    between atoms: C2_2  and  C3_3 
REMARK    2  A    between atoms: C4_6  and  C5_7 
REMARK       I    between atoms: C5_7  and  N2_9 
REMARK    3  A    between atoms: N2_9  and  C6_10 
REMARK    4  A    between atoms: C6_10  and  C7_11 
REMARK    5  A    between atoms: C6_10  and  C8_13 
REMARK       I    between atoms: C7_11  and  N3_14 
REMARK    6  A    between atoms: N3_14  and  C9_15 
REMARK    7  A    between atoms: C9_15  and  C10_16 
REMARK    8  A    between atoms: C9_15  and  C11_18 
REMARK       I    between atoms: C10_16  and  N4_21 
REMARK    9  A    between atoms: C11_18  and  C12_19 
REMARK   10  A    between atoms: C11_18  and  C13_20 
REMARK   11  A    between atoms: N4_21  and  C14_22 
REMARK   12  A    between atoms: C14_22  and  C15_23 
REMARK   13  A    between atoms: C14_22  and  C16_25 
REMARK       I    between atoms: C15_23  and  N6_40 
REMARK   14  A    between atoms: C16_25  and  C17_26 
REMARK   15  A    between atoms: C17_26  and  C18_27 
REMARK   16  A    between atoms: C17_26  and  C19_28 
REMARK   17  A    between atoms: C20_29  and  C21_30 
REMARK   18  A    between atoms: C20_29  and  C24_33 
REMARK   19  A    between atoms: C20_29  and  N6_40 
REMARK   20  A    between atoms: C21_30  and  C22_31 
REMARK   21  A    between atoms: C22_31  and  C23_32 
REMARK   22  A    between atoms: C23_32  and  O8_43 
REMARK   23  A    between atoms: C24_33  and  C25_34 
REMARK   24  A    between atoms: C28_38  and  O6_39 
REMARK   25  A    between atoms: C29_42  and  O8_43 
REMARK   26  A    between atoms: C29_42  and  C35_49 
ROOT
ATOM      1  C14 non d ame     -31.613   8.192  23.716  0.00  0.00     0.089 C 
ATOM      2  H20 non d ame     -30.673   7.875  24.170  0.00  0.00     0.087 H 
ENDROOT
BRANCH   1   3
ATOM      3  N4  non d ame     -32.538   7.071  23.794  0.00  0.00    -0.346 N 
ATOM      4  C10 non d ame     -32.463   6.101  24.946  0.00  0.00     0.241 C 
ATOM      5  O4  non d ame     -31.649   6.241  25.798  0.00  0.00    -0.271 OA
ATOM      6  H19 non d ame     -33.221   6.967  23.058  0.00  0.00     0.163 HD
BRANCH   4   7
ATOM      7  C9  non d ame     -33.431   4.949  25.013  0.00  0.00     0.092 C 
ATOM      8  H11 non d ame     -32.920   4.074  25.414  0.00  0.00     0.088 H 
BRANCH   7   9
ATOM      9  N3  non d ame     -34.519   5.278  25.940  0.00  0.00    -0.346 N 
ATOM     10  C7  non d ame     -34.579   4.646  27.234  0.00  0.00     0.240 C 
ATOM     11  O3  non d ame     -33.760   3.870  27.547  0.00  0.00    -0.271 OA
ATOM     12  H10 non d ame     -35.233   5.944  25.683  0.00  0.00     0.163 HD
BRANCH  10  13
ATOM     13  C6  non d ame     -35.741   4.997  28.215  0.00  0.00     0.086 C 
ATOM     14  H6  non d ame     -35.748   4.366  29.103  0.00  0.00     0.086 H 
BRANCH  13  15
ATOM     15  N2  non d ame     -35.570   6.364  28.677  0.00  0.00    -0.343 N 
ATOM     16  C5  non d ame     -35.079   6.611  30.035  0.00  0.00     0.273 C 
ATOM     17  O2  non d ame     -34.828   5.703  30.748  0.00  0.00    -0.266 OA
ATOM     18  H5  non d ame     -35.791   7.134  28.062  0.00  0.00     0.163 HD
BRANCH  16  19
ATOM     19  C4  non d ame     -34.894   8.052  30.536  0.00  0.00     0.154 A 
ATOM     20  C1  non d ame     -35.426   8.625  31.734  0.00  0.00    -0.017 A 
ATOM     21  C2  non d ame     -34.969   9.962  31.730  0.00  0.00     0.077 A 
ATOM     22  H1  non d ame     -36.047   8.145  32.490  0.00  0.00     0.091 H 
ATOM     23  O1  non d ame     -34.258  10.126  30.654  0.00  0.00    -0.218 OA
ATOM     24  N1  non d ame     -34.200   9.025  29.941  0.00  0.00    -0.123 NA
BRANCH  21  25
ATOM     25  C3  non d ame     -35.255  11.015  32.792  0.00  0.00    -0.029 C 
ATOM     26  H2  non d ame     -34.650  11.901  32.598  0.00  0.00     0.036 H 
ATOM     27  H3  non d ame     -36.311  11.286  32.762  0.00  0.00     0.036 H 
ATOM     28  H4  non d ame     -35.011  10.617  33.776  0.00  0.00     0.036 H 
ENDBRANCH  21  25
ENDBRANCH  16  19
ENDBRANCH  13  15
BRANCH  13  29
ATOM     29  C8  non d ame     -37.062   4.853  27.504  0.00  0.00    -0.049 C 
ATOM     30  H7  non d ame     -37.741   4.259  28.115  0.00  0.00     0.030 H 
ATOM     31  H8  non d ame     -37.495   5.839  27.337  0.00  0.00     0.030 H 
ATOM     32  H9  non d ame     -36.907   4.356  26.545  0.00  0.00     0.030 H 
ENDBRANCH  13  29
ENDBRANCH  10  13
ENDBRANCH   7   9
BRANCH   7  33
ATOM     33  C11 non d ame     -34.022   4.685  23.597  0.00  0.00    -0.033 C 
ATOM     34  H12 non d ame     -33.781   5.546  22.974  0.00  0.00     0.042 H 
BRANCH  33  35
ATOM     35  C12 non d ame     -33.372   3.430  22.935  0.00  0.00    -0.071 C 
ATOM     36  H13 non d ame     -33.036   3.683  21.929  0.00  0.00     0.028 H 
ATOM     37  H14 non d ame     -32.520   3.105  23.532  0.00  0.00     0.028 H 
ATOM     38  H15 non d ame     -34.106   2.626  22.880  0.00  0.00     0.028 H 
ENDBRANCH  33  35
BRANCH  33  39
ATOM     39  C13 non d ame     -35.578   4.553  23.656  0.00  0.00    -0.071 C 
ATOM     40  H16 non d ame     -35.995   4.725  22.663  0.00  0.00     0.028 H 
ATOM     41  H17 non d ame     -35.845   3.551  23.995  0.00  0.00     0.028 H 
ATOM     42  H18 non d ame     -35.979   5.290  24.351  0.00  0.00     0.028 H 
ENDBRANCH  33  39
ENDBRANCH   7  33
ENDBRANCH   4   7
ENDBRANCH   1   3
BRANCH   1  43
ATOM     43  C15 non d ame     -32.242   9.406  24.458  0.00  0.00     0.240 C 
ATOM     44  O5  non d ame     -33.409   9.615  24.365  0.00  0.00    -0.271 OA
ATOM     45  N6  non d ame     -31.393  10.303  25.292  0.00  0.00    -0.355 N 
ATOM     46  H46 non d ame     -30.402  10.132  25.383  0.00  0.00     0.162 HD
BRANCH  45  47
ATOM     47  C20 non d ame     -32.008  11.452  25.991  0.00  0.00     0.013 C 
ATOM     48  H30 non d ame     -32.998  11.613  25.565  0.00  0.00     0.072 H 
BRANCH  47  49
ATOM     49  C21 non d ame     -31.150  12.680  25.785  0.00  0.00    -0.038 C 
ATOM     50  H31 non d ame     -31.565  13.443  26.444  0.00  0.00     0.036 H 
ATOM     51  H32 non d ame     -30.120  12.345  25.919  0.00  0.00     0.036 H 
BRANCH  49  52
ATOM     52  C22 non d ame     -31.243  13.242  24.350  0.00  0.00     0.018 C 
ATOM     53  H33 non d ame     -30.483  12.713  23.776  0.00  0.00     0.048 H 
ATOM     54  H34 non d ame     -32.293  13.161  24.070  0.00  0.00     0.048 H 
BRANCH  52  55
ATOM     55  C23 non d ame     -30.886  14.751  24.244  0.00  0.00     0.259 C 
ATOM     56  O7  non d ame     -30.289  15.165  23.304  0.00  0.00    -0.265 OA
BRANCH  55  57
ATOM     57  O8  non d ame     -31.271  15.633  25.293  0.00  0.00    -0.317 OA
BRANCH  57  58
ATOM     58  C29 non d ame     -32.630  16.072  25.215  0.00  0.00     0.052 C 
ATOM     59  H47 non d ame     -32.798  16.327  24.169  0.00  0.00     0.082 H 
ATOM     60  H48 non d ame     -33.221  15.289  25.689  0.00  0.00     0.082 H 
BRANCH  58  61
ATOM     61  C35 non d ame     -32.763  17.366  26.063  0.00  0.00    -0.034 A 
ATOM     62  C30 non d ame     -33.094  18.570  25.448  0.00  0.00    -0.075 A 
ATOM     63  C31 non d ame     -33.213  19.732  26.210  0.00  0.00    -0.082 A 
ATOM     64  H49 non d ame     -33.259  18.604  24.372  0.00  0.00     0.084 H 
ATOM     65  C32 non d ame     -32.998  19.688  27.590  0.00  0.00    -0.083 A 
ATOM     66  H50 non d ame     -33.474  20.674  25.726  0.00  0.00     0.083 H 
ATOM     67  C33 non d ame     -32.664  18.485  28.197  0.00  0.00    -0.082 A 
ATOM     68  H51 non d ame     -33.090  20.592  28.192  0.00  0.00     0.083 H 
ATOM     69  C34 non d ame     -32.546  17.321  27.441  0.00  0.00    -0.075 A 
ATOM     70  H52 non d ame     -32.494  18.454  29.274  0.00  0.00     0.083 H 
ATOM     71  H53 non d ame     -32.285  16.380  27.926  0.00  0.00     0.084 H 
ENDBRANCH  58  61
ENDBRANCH  57  58
ENDBRANCH  55  57
ENDBRANCH  52  55
ENDBRANCH  49  52
ENDBRANCH  47  49
BRANCH  47  72
ATOM     72  C24 non d ame     -32.116  11.150  27.485  0.00  0.00    -0.039 C 
ATOM     73  H35 non d ame     -33.133  10.783  27.633  0.00  0.00     0.036 H 
ATOM     74  H36 non d ame     -31.267  10.506  27.713  0.00  0.00     0.036 H 
BRANCH  72  75
ATOM     75  C25 non d ame     -31.957  12.474  28.371  0.00  0.00    -0.001 C 
ATOM     76  C26 non d ame     -30.834  12.230  29.546  0.00  0.00    -0.035 C 
ATOM     77  C27 non d ame     -31.365  12.586  30.740  0.00  0.00     0.085 C 
ATOM     78  H38 non d ame     -30.639  11.164  29.662  0.00  0.00     0.036 H 
ATOM     79  H39 non d ame     -30.002  12.924  29.420  0.00  0.00     0.036 H 
ATOM     80  N5  non d ame     -32.853  12.741  30.531  0.00  0.00    -0.049 N 
ATOM     81  H40 non d ame     -31.185  11.740  31.403  0.00  0.00     0.075 H 
ATOM     82  H41 non d ame     -30.936  13.560  30.971  0.00  0.00     0.075 H 
ATOM     83  C28 non d ame     -33.074  12.797  28.933  0.00  0.00     0.193 C 
ATOM     84  H42 non d ame     -33.280  11.897  30.885  0.00  0.00     0.280 HD
ATOM     85  H43 non d ame     -33.103  13.637  30.923  0.00  0.00     0.280 HD
ATOM     86  H44 non d ame     -33.278  13.746  28.436  0.00  0.00     0.129 H 
ATOM     87  H37 non d ame     -31.848  13.370  27.759  0.00  0.00     0.046 H 
BRANCH  83  88
ATOM     88  O6  non d ame     -34.141  11.927  28.552  0.00  0.00    -0.369 OA
ATOM     89  H45 non d ame     -34.751  12.400  27.980  0.00  0.00     0.212 HD
ENDBRANCH  83  88
ENDBRANCH  72  75
ENDBRANCH  47  72
ENDBRANCH  45  47
ENDBRANCH   1  43
BRANCH   1  90
ATOM     90  C16 non d ame     -31.384   8.547  22.256  0.00  0.00    -0.035 C 
ATOM     91  H21 non d ame     -31.564   7.626  21.703  0.00  0.00     0.037 H 
ATOM     92  H22 non d ame     -32.005   9.424  22.072  0.00  0.00     0.037 H 
BRANCH  90  93
ATOM     93  C17 non d ame     -29.915   8.972  21.938  0.00  0.00    -0.059 C 
ATOM     94  H23 non d ame     -29.759   8.845  20.866  0.00  0.00     0.038 H 
BRANCH  93  95
ATOM     95  C18 non d ame     -29.646  10.471  22.284  0.00  0.00    -0.073 C 
ATOM     96  H24 non d ame     -28.594  10.701  22.113  0.00  0.00     0.028 H 
ATOM     97  H25 non d ame     -30.263  11.107  21.649  0.00  0.00     0.028 H 
ATOM     98  H26 non d ame     -29.893  10.652  23.330  0.00  0.00     0.028 H 
ENDBRANCH  93  95
BRANCH  93  99
ATOM     99  C19 non d ame     -28.915   8.060  22.654  0.00  0.00    -0.073 C 
ATOM    100  H27 non d ame     -28.250   7.603  21.919  0.00  0.00     0.028 H 
ATOM    101  H28 non d ame     -28.326   8.647  23.359  0.00  0.00     0.028 H 
ATOM    102  H29 non d ame     -29.454   7.280  23.191  0.00  0.00     0.028 H 
ENDBRANCH  93  99
ENDBRANCH  90  93
ENDBRANCH   1  90
TORSDOF 26
ENDMDL
MODEL 5
REMARK VINA RESULT:      -6.6      3.253      9.864
REMARK  26 active torsions:
REMARK  status: ('A' for Active; 'I' for Inactive)
REMARK    1  A    between atoms: C2_2  and  C3_3 
REMARK    2  A    between atoms: C4_6  and  C5_7 
REMARK       I    between atoms: C5_7  and  N2_9 
REMARK    3  A    between atoms: N2_9  and  C6_10 
REMARK    4  A    between atoms: C6_10  and  C7_11 
REMARK    5  A    between atoms: C6_10  and  C8_13 
REMARK       I    between atoms: C7_11  and  N3_14 
REMARK    6  A    between atoms: N3_14  and  C9_15 
REMARK    7  A    between atoms: C9_15  and  C10_16 
REMARK    8  A    between atoms: C9_15  and  C11_18 
REMARK       I    between atoms: C10_16  and  N4_21 
REMARK    9  A    between atoms: C11_18  and  C12_19 
REMARK   10  A    between atoms: C11_18  and  C13_20 
REMARK   11  A    between atoms: N4_21  and  C14_22 
REMARK   12  A    between atoms: C14_22  and  C15_23 
REMARK   13  A    between atoms: C14_22  and  C16_25 
REMARK       I    between atoms: C15_23  and  N6_40 
REMARK   14  A    between atoms: C16_25  and  C17_26 
REMARK   15  A    between atoms: C17_26  and  C18_27 
REMARK   16  A    between atoms: C17_26  and  C19_28 
REMARK   17  A    between atoms: C20_29  and  C21_30 
REMARK   18  A    between atoms: C20_29  and  C24_33 
REMARK   19  A    between atoms: C20_29  and  N6_40 
REMARK   20  A    between atoms: C21_30  and  C22_31 
REMARK   21  A    between atoms: C22_31  and  C23_32 
REMARK   22  A    between atoms: C23_32  and  O8_43 
REMARK   23  A    between atoms: C24_33  and  C25_34 
REMARK   24  A    between atoms: C28_38  and  O6_39 
REMARK   25  A    between atoms: C29_42  and  O8_43 
REMARK   26  A    between atoms: C29_42  and  C35_49 
ROOT
ATOM      1  C14 non d ame     -36.134  13.278  26.075  0.00  0.00     0.089 C 
ATOM      2  H20 non d ame     -36.917  13.129  26.819  0.00  0.00     0.087 H 
ENDROOT
BRANCH   1   3
ATOM      3  N4  non d ame     -35.845  14.704  26.024  0.00  0.00    -0.346 N 
ATOM      4  C10 non d ame     -36.852  15.704  26.530  0.00  0.00     0.241 C 
ATOM      5  O4  non d ame     -37.891  15.339  26.973  0.00  0.00    -0.271 OA
ATOM      6  H19 non d ame     -34.957  14.994  25.641  0.00  0.00     0.163 HD
BRANCH   4   7
ATOM      7  C9  non d ame     -36.535  17.176  26.474  0.00  0.00     0.092 C 
ATOM      8  H11 non d ame     -36.775  17.632  27.433  0.00  0.00     0.088 H 
BRANCH   7   9
ATOM      9  N3  non d ame     -35.096  17.357  26.256  0.00  0.00    -0.346 N 
ATOM     10  C7  non d ame     -34.237  17.695  27.364  0.00  0.00     0.240 C 
ATOM     11  O3  non d ame     -34.686  17.825  28.437  0.00  0.00    -0.271 OA
ATOM     12  H10 non d ame     -34.695  17.250  25.335  0.00  0.00     0.163 HD
BRANCH  10  13
ATOM     13  C6  non d ame     -32.707  17.891  27.126  0.00  0.00     0.086 C 
ATOM     14  H6  non d ame     -32.096  17.367  27.860  0.00  0.00     0.086 H 
BRANCH  13  15
ATOM     15  N2  non d ame     -32.358  17.341  25.827  0.00  0.00    -0.343 N 
ATOM     16  C5  non d ame     -31.761  16.006  25.745  0.00  0.00     0.273 C 
ATOM     17  O2  non d ame     -31.562  15.384  26.730  0.00  0.00    -0.266 OA
ATOM     18  H5  non d ame     -32.529  17.880  24.990  0.00  0.00     0.163 HD
BRANCH  16  19
ATOM     19  C4  non d ame     -31.387  15.413  24.377  0.00  0.00     0.154 A 
ATOM     20  C1  non d ame     -31.396  16.082  23.113  0.00  0.00    -0.017 A 
ATOM     21  C2  non d ame     -30.976  15.105  22.182  0.00  0.00     0.077 A 
ATOM     22  H1  non d ame     -31.667  17.116  22.902  0.00  0.00     0.091 H 
ATOM     23  O1  non d ame     -30.752  14.009  22.845  0.00  0.00    -0.218 OA
ATOM     24  N1  non d ame     -30.985  14.164  24.128  0.00  0.00    -0.123 NA
BRANCH  21  25
ATOM     25  C3  non d ame     -30.812  15.301  20.681  0.00  0.00    -0.029 C 
ATOM     26  H2  non d ame     -29.808  15.004  20.383  0.00  0.00     0.036 H 
ATOM     27  H3  non d ame     -31.543  14.688  20.153  0.00  0.00     0.036 H 
ATOM     28  H4  non d ame     -30.970  16.350  20.431  0.00  0.00     0.036 H 
ENDBRANCH  21  25
ENDBRANCH  16  19
ENDBRANCH  13  15
BRANCH  13  29
ATOM     29  C8  non d ame     -32.373  19.359  27.172  0.00  0.00    -0.049 C 
ATOM     30  H7  non d ame     -33.285  19.936  27.318  0.00  0.00     0.030 H 
ATOM     31  H8  non d ame     -31.687  19.550  27.998  0.00  0.00     0.030 H 
ATOM     32  H9  non d ame     -31.902  19.655  26.233  0.00  0.00     0.030 H 
ENDBRANCH  13  29
ENDBRANCH  10  13
ENDBRANCH   7   9
BRANCH   7  33
ATOM     33  C11 non d ame     -37.321  17.831  25.300  0.00  0.00    -0.033 C 
ATOM     34  H12 non d ame     -38.339  18.007  25.644  0.00  0.00     0.042 H 
BRANCH  33  35
ATOM     35  C12 non d ame     -36.711  19.214  24.911  0.00  0.00    -0.071 C 
ATOM     36  H13 non d ame     -37.277  19.640  24.082  0.00  0.00     0.028 H 
ATOM     37  H14 non d ame     -36.759  19.886  25.767  0.00  0.00     0.028 H 
ATOM     38  H15 non d ame     -35.672  19.081  24.609  0.00  0.00     0.028 H 
ENDBRANCH  33  35
BRANCH  33  39
ATOM     39  C13 non d ame     -37.386  16.873  24.067  0.00  0.00    -0.071 C 
ATOM     40  H16 non d ame     -36.506  16.228  24.061  0.00  0.00     0.028 H 
ATOM     41  H17 non d ame     -38.286  16.260  24.129  0.00  0.00     0.028 H 
ATOM     42  H18 non d ame     -37.411  17.461  23.150  0.00  0.00     0.028 H 
ENDBRANCH  33  39
ENDBRANCH   7  33
ENDBRANCH   4   7
ENDBRANCH   1   3
BRANCH   1  43
ATOM     43  C15 non d ame     -34.825  12.521  26.442  0.00  0.00     0.240 C 
ATOM     44  O5  non d ame     -33.775  12.950  26.088  0.00  0.00    -0.271 OA
ATOM     45  N6  non d ame     -34.881  11.265  27.243  0.00  0.00    -0.355 N 
ATOM     46  H46 non d ame     -35.767  10.893  27.553  0.00  0.00     0.162 HD
BRANCH  45  47
ATOM     47  C20 non d ame     -33.627  10.557  27.583  0.00  0.00     0.013 C 
ATOM     48  H30 non d ame     -32.804  11.082  27.099  0.00  0.00     0.072 H 
BRANCH  47  49
ATOM     49  C21 non d ame     -33.703   9.134  27.077  0.00  0.00    -0.038 C 
ATOM     50  H31 non d ame     -32.778   8.969  26.525  0.00  0.00     0.036 H 
ATOM     51  H32 non d ame     -33.934   8.524  27.951  0.00  0.00     0.036 H 
BRANCH  49  52
ATOM     52  C22 non d ame     -34.857   8.915  26.074  0.00  0.00     0.018 C 
ATOM     53  H33 non d ame     -35.730   8.675  26.678  0.00  0.00     0.048 H 
ATOM     54  H34 non d ame     -34.862   9.798  25.434  0.00  0.00     0.048 H 
BRANCH  52  55
ATOM     55  C23 non d ame     -34.641   7.702  25.128  0.00  0.00     0.259 C 
ATOM     56  O7  non d ame     -34.862   6.596  25.506  0.00  0.00    -0.265 OA
BRANCH  55  57
ATOM     57  O8  non d ame     -34.163   7.924  23.807  0.00  0.00    -0.317 OA
BRANCH  57  58
ATOM     58  C29 non d ame     -32.923   7.272  23.519  0.00  0.00     0.052 C 
ATOM     59  H47 non d ame     -32.627   6.779  24.444  0.00  0.00     0.082 H 
ATOM     60  H48 non d ame     -33.099   6.685  22.619  0.00  0.00     0.082 H 
BRANCH  58  61
ATOM     61  C35 non d ame     -31.873   8.368  23.190  0.00  0.00    -0.034 A 
ATOM     62  C30 non d ame     -30.840   8.096  22.297  0.00  0.00    -0.075 A 
ATOM     63  C31 non d ame     -29.896   9.079  22.002  0.00  0.00    -0.082 A 
ATOM     64  H49 non d ame     -30.769   7.113  21.831  0.00  0.00     0.084 H 
ATOM     65  C32 non d ame     -29.987  10.337  22.603  0.00  0.00    -0.083 A 
ATOM     66  H50 non d ame     -29.089   8.864  21.300  0.00  0.00     0.083 H 
ATOM     67  C33 non d ame     -31.017  10.602  23.495  0.00  0.00    -0.082 A 
ATOM     68  H51 non d ame     -29.254  11.112  22.377  0.00  0.00     0.083 H 
ATOM     69  C34 non d ame     -31.963   9.623  23.793  0.00  0.00    -0.075 A 
ATOM     70  H52 non d ame     -31.084  11.584  23.965  0.00  0.00     0.083 H 
ATOM     71  H53 non d ame     -32.770   9.839  24.493  0.00  0.00     0.084 H 
ENDBRANCH  58  61
ENDBRANCH  57  58
ENDBRANCH  55  57
ENDBRANCH  52  55
ENDBRANCH  49  52
ENDBRANCH  47  49
BRANCH  47  72
ATOM     72  C24 non d ame     -33.434  10.551  29.098  0.00  0.00    -0.039 C 
ATOM     73  H35 non d ame     -34.436  10.456  29.518  0.00  0.00     0.036 H 
ATOM     74  H36 non d ame     -32.687   9.780  29.292  0.00  0.00     0.036 H 
BRANCH  72  75
ATOM     75  C25 non d ame     -32.829  11.938  29.625  0.00  0.00    -0.001 C 
ATOM     76  C26 non d ame     -31.512  12.348  28.732  0.00  0.00    -0.035 C 
ATOM     77  C27 non d ame     -30.484  12.625  29.570  0.00  0.00     0.085 C 
ATOM     78  H38 non d ame     -31.156  11.485  28.169  0.00  0.00     0.036 H 
ATOM     79  H39 non d ame     -31.686  13.297  28.221  0.00  0.00     0.036 H 
ATOM     80  N5  non d ame     -30.885  12.124  30.938  0.00  0.00    -0.049 N 
ATOM     81  H40 non d ame     -29.644  12.033  29.206  0.00  0.00     0.075 H 
ATOM     82  H41 non d ame     -30.414  13.711  29.597  0.00  0.00     0.075 H 
ATOM     83  C28 non d ame     -32.474  11.852  30.863  0.00  0.00     0.193 C 
ATOM     84  H42 non d ame     -30.413  11.241  31.068  0.00  0.00     0.280 HD
ATOM     85  H43 non d ame     -30.718  12.886  31.580  0.00  0.00     0.280 HD
ATOM     86  H44 non d ame     -33.176  12.551  31.319  0.00  0.00     0.129 H 
ATOM     87  H37 non d ame     -33.597  12.700  29.755  0.00  0.00     0.046 H 
BRANCH  83  88
ATOM     88  O6  non d ame     -32.783  10.576  31.426  0.00  0.00    -0.369 OA
ATOM     89  H45 non d ame     -32.469   9.883  30.840  0.00  0.00     0.212 HD
ENDBRANCH  83  88
ENDBRANCH  72  75
ENDBRANCH  47  72
ENDBRANCH  45  47
ENDBRANCH   1  43
BRANCH   1  90
ATOM     90  C16 non d ame     -36.624  12.821  24.711  0.00  0.00    -0.035 C 
ATOM     91  H21 non d ame     -36.569  13.702  24.074  0.00  0.00     0.037 H 
ATOM     92  H22 non d ame     -36.032  11.937  24.473  0.00  0.00     0.037 H 
BRANCH  90  93
ATOM     93  C17 non d ame     -38.119  12.365  24.704  0.00  0.00    -0.059 C 
ATOM     94  H23 non d ame     -38.197  11.502  24.043  0.00  0.00     0.038 H 
BRANCH  93  95
ATOM     95  C18 non d ame     -38.608  11.927  26.120  0.00  0.00    -0.073 C 
ATOM     96  H24 non d ame     -39.112  12.762  26.607  0.00  0.00     0.028 H 
ATOM     97  H25 non d ame     -39.303  11.093  26.022  0.00  0.00     0.028 H 
ATOM     98  H26 non d ame     -37.753  11.618  26.721  0.00  0.00     0.028 H 
ENDBRANCH  93  95
BRANCH  93  99
ATOM     99  C19 non d ame     -39.022  13.461  24.131  0.00  0.00    -0.073 C 
ATOM    100  H27 non d ame     -39.463  13.116  23.195  0.00  0.00     0.028 H 
ATOM    101  H28 non d ame     -39.815  13.689  24.843  0.00  0.00     0.028 H 
ATOM    102  H29 non d ame     -38.431  14.358  23.945  0.00  0.00     0.028 H 
ENDBRANCH  93  99
ENDBRANCH  90  93
ENDBRANCH   1  90
TORSDOF 26
ENDMDL
MODEL 6
REMARK VINA RESULT:      -6.5      2.629      6.201
REMARK  26 active torsions:
REMARK  status: ('A' for Active; 'I' for Inactive)
REMARK    1  A    between atoms: C2_2  and  C3_3 
REMARK    2  A    between atoms: C4_6  and  C5_7 
REMARK       I    between atoms: C5_7  and  N2_9 
REMARK    3  A    between atoms: N2_9  and  C6_10 
REMARK    4  A    between atoms: C6_10  and  C7_11 
REMARK    5  A    between atoms: C6_10  and  C8_13 
REMARK       I    between atoms: C7_11  and  N3_14 
REMARK    6  A    between atoms: N3_14  and  C9_15 
REMARK    7  A    between atoms: C9_15  and  C10_16 
REMARK    8  A    between atoms: C9_15  and  C11_18 
REMARK       I    between atoms: C10_16  and  N4_21 
REMARK    9  A    between atoms: C11_18  and  C12_19 
REMARK   10  A    between atoms: C11_18  and  C13_20 
REMARK   11  A    between atoms: N4_21  and  C14_22 
REMARK   12  A    between atoms: C14_22  and  C15_23 
REMARK   13  A    between atoms: C14_22  and  C16_25 
REMARK       I    between atoms: C15_23  and  N6_40 
REMARK   14  A    between atoms: C16_25  and  C17_26 
REMARK   15  A    between atoms: C17_26  and  C18_27 
REMARK   16  A    between atoms: C17_26  and  C19_28 
REMARK   17  A    between atoms: C20_29  and  C21_30 
REMARK   18  A    between atoms: C20_29  and  C24_33 
REMARK   19  A    between atoms: C20_29  and  N6_40 
REMARK   20  A    between atoms: C21_30  and  C22_31 
REMARK   21  A    between atoms: C22_31  and  C23_32 
REMARK   22  A    between atoms: C23_32  and  O8_43 
REMARK   23  A    between atoms: C24_33  and  C25_34 
REMARK   24  A    between atoms: C28_38  and  O6_39 
REMARK   25  A    between atoms: C29_42  and  O8_43 
REMARK   26  A    between atoms: C29_42  and  C35_49 
ROOT
ATOM      1  C14 non d ame     -33.119  12.106  28.840  0.00  0.00     0.089 C 
ATOM      2  H20 non d ame     -33.143  12.503  29.855  0.00  0.00     0.087 H 
ENDROOT
BRANCH   1   3
ATOM      3  N4  non d ame     -33.909  10.884  28.828  0.00  0.00    -0.346 N 
ATOM      4  C10 non d ame     -33.904   9.962  30.021  0.00  0.00     0.241 C 
ATOM      5  O4  non d ame     -33.255  10.224  30.979  0.00  0.00    -0.271 OA
ATOM      6  H19 non d ame     -34.452  10.678  28.002  0.00  0.00     0.163 HD
BRANCH   4   7
ATOM      7  C9  non d ame     -34.731   8.704  29.993  0.00  0.00     0.092 C 
ATOM      8  H11 non d ame     -35.693   8.916  29.528  0.00  0.00     0.088 H 
BRANCH   7   9
ATOM      9  N3  non d ame     -34.061   7.696  29.165  0.00  0.00    -0.346 N 
ATOM     10  C7  non d ame     -34.412   7.561  27.772  0.00  0.00     0.240 C 
ATOM     11  O3  non d ame     -35.230   8.253  27.302  0.00  0.00    -0.271 OA
ATOM     12  H10 non d ame     -33.355   7.091  29.557  0.00  0.00     0.163 HD
BRANCH  10  13
ATOM     13  C6  non d ame     -33.698   6.485  26.896  0.00  0.00     0.086 C 
ATOM     14  H6  non d ame     -34.373   5.999  26.193  0.00  0.00     0.086 H 
BRANCH  13  15
ATOM     15  N2  non d ame     -32.667   7.132  26.102  0.00  0.00    -0.343 N 
ATOM     16  C5  non d ame     -32.967   7.549  24.731  0.00  0.00     0.273 C 
ATOM     17  O2  non d ame     -34.040   7.358  24.274  0.00  0.00    -0.266 OA
ATOM     18  H5  non d ame     -31.751   7.289  26.499  0.00  0.00     0.163 HD
BRANCH  16  19
ATOM     19  C4  non d ame     -31.885   8.235  23.881  0.00  0.00     0.154 A 
ATOM     20  C1  non d ame     -31.634   9.639  23.770  0.00  0.00    -0.017 A 
ATOM     21  C2  non d ame     -30.547   9.743  22.874  0.00  0.00     0.077 A 
ATOM     22  H1  non d ame     -32.159  10.456  24.264  0.00  0.00     0.091 H 
ATOM     23  O1  non d ame     -30.219   8.536  22.519  0.00  0.00    -0.218 OA
ATOM     24  N1  non d ame     -30.986   7.638  23.094  0.00  0.00    -0.123 NA
BRANCH  21  25
ATOM     25  C3  non d ame     -29.881  11.032  22.411  0.00  0.00    -0.029 C 
ATOM     26  H2  non d ame     -29.684  11.669  23.272  0.00  0.00     0.036 H 
ATOM     27  H3  non d ame     -28.940  10.797  21.912  0.00  0.00     0.036 H 
ATOM     28  H4  non d ame     -30.539  11.553  21.716  0.00  0.00     0.036 H 
ENDBRANCH  21  25
ENDBRANCH  16  19
ENDBRANCH  13  15
BRANCH  13  29
ATOM     29  C8  non d ame     -33.083   5.435  27.786  0.00  0.00    -0.049 C 
ATOM     30  H7  non d ame     -32.097   5.168  27.406  0.00  0.00     0.030 H 
ATOM     31  H8  non d ame     -32.988   5.827  28.798  0.00  0.00     0.030 H 
ATOM     32  H9  non d ame     -33.720   4.550  27.797  0.00  0.00     0.030 H 
ENDBRANCH  13  29
ENDBRANCH  10  13
ENDBRANCH   7   9
BRANCH   7  33
ATOM     33  C11 non d ame     -34.889   8.156  31.443  0.00  0.00    -0.033 C 
ATOM     34  H12 non d ame     -33.980   8.406  31.989  0.00  0.00     0.042 H 
BRANCH  33  35
ATOM     35  C12 non d ame     -36.083   8.840  32.180  0.00  0.00    -0.071 C 
ATOM     36  H13 non d ame     -36.219   8.377  33.158  0.00  0.00     0.028 H 
ATOM     37  H14 non d ame     -35.873   9.901  32.307  0.00  0.00     0.028 H 
ATOM     38  H15 non d ame     -36.992   8.716  31.592  0.00  0.00     0.028 H 
ENDBRANCH  33  35
BRANCH  33  39
ATOM     39  C13 non d ame     -35.040   6.602  31.440  0.00  0.00    -0.071 C 
ATOM     40  H16 non d ame     -35.070   6.237  32.467  0.00  0.00     0.028 H 
ATOM     41  H17 non d ame     -35.964   6.326  30.929  0.00  0.00     0.028 H 
ATOM     42  H18 non d ame     -34.193   6.155  30.920  0.00  0.00     0.028 H 
ENDBRANCH  33  39
ENDBRANCH   7  33
ENDBRANCH   4   7
ENDBRANCH   1   3
BRANCH   1  43
ATOM     43  C15 non d ame     -33.728  13.099  27.808  0.00  0.00     0.240 C 
ATOM     44  O5  non d ame     -34.436  12.693  26.944  0.00  0.00    -0.271 OA
ATOM     45  N6  non d ame     -33.437  14.558  27.903  0.00  0.00    -0.355 N 
ATOM     46  H46 non d ame     -32.840  14.915  28.636  0.00  0.00     0.162 HD
BRANCH  45  47
ATOM     47  C20 non d ame     -34.024  15.488  26.915  0.00  0.00     0.013 C 
ATOM     48  H30 non d ame     -33.657  16.490  27.139  0.00  0.00     0.072 H 
BRANCH  47  49
ATOM     49  C21 non d ame     -35.531  15.452  27.028  0.00  0.00    -0.038 C 
ATOM     50  H31 non d ame     -35.783  14.420  27.276  0.00  0.00     0.036 H 
ATOM     51  H32 non d ame     -35.794  16.257  27.714  0.00  0.00     0.036 H 
BRANCH  49  52
ATOM     52  C22 non d ame     -36.241  15.767  25.693  0.00  0.00     0.018 C 
ATOM     53  H33 non d ame     -35.466  16.150  25.030  0.00  0.00     0.048 H 
ATOM     54  H34 non d ame     -36.786  14.860  25.428  0.00  0.00     0.048 H 
BRANCH  52  55
ATOM     55  C23 non d ame     -37.307  16.892  25.800  0.00  0.00     0.259 C 
ATOM     56  O7  non d ame     -38.115  17.040  24.942  0.00  0.00    -0.265 OA
BRANCH  55  57
ATOM     57  O8  non d ame     -37.299  17.753  26.932  0.00  0.00    -0.317 OA
BRANCH  57  58
ATOM     58  C29 non d ame     -36.892  19.094  26.641  0.00  0.00     0.052 C 
ATOM     59  H47 non d ame     -37.200  19.279  25.612  0.00  0.00     0.082 H 
ATOM     60  H48 non d ame     -37.292  19.706  27.449  0.00  0.00     0.082 H 
BRANCH  58  61
ATOM     61  C35 non d ame     -35.342  19.148  26.708  0.00  0.00    -0.034 A 
ATOM     62  C30 non d ame     -34.600  19.295  25.539  0.00  0.00    -0.075 A 
ATOM     63  C31 non d ame     -33.208  19.343  25.599  0.00  0.00    -0.082 A 
ATOM     64  H49 non d ame     -35.108  19.371  24.578  0.00  0.00     0.084 H 
ATOM     65  C32 non d ame     -32.558  19.242  26.831  0.00  0.00    -0.083 A 
ATOM     66  H50 non d ame     -32.629  19.460  24.681  0.00  0.00     0.083 H 
ATOM     67  C33 non d ame     -33.302  19.091  27.993  0.00  0.00    -0.082 A 
ATOM     68  H51 non d ame     -31.469  19.279  26.886  0.00  0.00     0.083 H 
ATOM     69  C34 non d ame     -34.694  19.044  27.939  0.00  0.00    -0.075 A 
ATOM     70  H52 non d ame     -32.792  19.010  28.954  0.00  0.00     0.083 H 
ATOM     71  H53 non d ame     -35.272  18.928  28.856  0.00  0.00     0.084 H 
ENDBRANCH  58  61
ENDBRANCH  57  58
ENDBRANCH  55  57
ENDBRANCH  52  55
ENDBRANCH  49  52
ENDBRANCH  47  49
BRANCH  47  72
ATOM     72  C24 non d ame     -33.608  15.074  25.505  0.00  0.00    -0.039 C 
ATOM     73  H35 non d ame     -33.807  14.003  25.447  0.00  0.00     0.036 H 
ATOM     74  H36 non d ame     -34.126  15.761  24.836  0.00  0.00     0.036 H 
BRANCH  72  75
ATOM     75  C25 non d ame     -32.037  15.277  25.267  0.00  0.00    -0.001 C 
ATOM     76  C26 non d ame     -31.790  16.352  24.048  0.00  0.00    -0.035 C 
ATOM     77  C27 non d ame     -30.935  15.806  23.150  0.00  0.00     0.085 C 
ATOM     78  H38 non d ame     -32.708  16.487  23.476  0.00  0.00     0.036 H 
ATOM     79  H39 non d ame     -31.247  17.222  24.419  0.00  0.00     0.036 H 
ATOM     80  N5  non d ame     -30.834  14.335  23.476  0.00  0.00    -0.049 N 
ATOM     81  H40 non d ame     -31.418  15.922  22.179  0.00  0.00     0.075 H 
ATOM     82  H41 non d ame     -29.973  16.279  23.339  0.00  0.00     0.075 H 
ATOM     83  C28 non d ame     -31.465  14.163  24.952  0.00  0.00     0.193 C 
ATOM     84  H42 non d ame     -31.426  13.854  22.816  0.00  0.00     0.280 HD
ATOM     85  H43 non d ame     -29.848  14.120  23.520  0.00  0.00     0.280 HD
ATOM     86  H44 non d ame     -30.816  14.023  25.818  0.00  0.00     0.129 H 
ATOM     87  H37 non d ame     -31.498  15.450  26.197  0.00  0.00     0.046 H 
BRANCH  83  88
ATOM     88  O6  non d ame     -32.376  13.063  24.974  0.00  0.00    -0.369 OA
ATOM     89  H45 non d ame     -33.267  13.383  24.814  0.00  0.00     0.212 HD
ENDBRANCH  83  88
ENDBRANCH  72  75
ENDBRANCH  47  72
ENDBRANCH  45  47
ENDBRANCH   1  43
BRANCH   1  90
ATOM     90  C16 non d ame     -31.687  11.777  28.448  0.00  0.00    -0.035 C 
ATOM     91  H21 non d ame     -31.551  10.729  28.709  0.00  0.00     0.037 H 
ATOM     92  H22 non d ame     -31.591  12.099  27.411  0.00  0.00     0.037 H 
BRANCH  90  93
ATOM     93  C17 non d ame     -30.618  12.575  29.260  0.00  0.00    -0.059 C 
ATOM     94  H23 non d ame     -29.718  11.962  29.313  0.00  0.00     0.038 H 
BRANCH  93  95
ATOM     95  C18 non d ame     -30.236  13.922  28.568  0.00  0.00    -0.073 C 
ATOM     96  H24 non d ame     -30.634  13.936  27.553  0.00  0.00     0.028 H 
ATOM     97  H25 non d ame     -30.659  14.753  29.133  0.00  0.00     0.028 H 
ATOM     98  H26 non d ame     -29.151  14.019  28.535  0.00  0.00     0.028 H 
ENDBRANCH  93  95
BRANCH  93  99
ATOM     99  C19 non d ame     -31.089  12.816  30.697  0.00  0.00    -0.073 C 
ATOM    100  H27 non d ame     -30.649  13.740  31.074  0.00  0.00     0.028 H 
ATOM    101  H28 non d ame     -32.176  12.899  30.715  0.00  0.00     0.028 H 
ATOM    102  H29 non d ame     -30.778  11.982  31.326  0.00  0.00     0.028 H 
ENDBRANCH  93  99
ENDBRANCH  90  93
ENDBRANCH   1  90
TORSDOF 26
ENDMDL
MODEL 7
REMARK VINA RESULT:      -6.5      2.463      9.929
REMARK  26 active torsions:
REMARK  status: ('A' for Active; 'I' for Inactive)
REMARK    1  A    between atoms: C2_2  and  C3_3 
REMARK    2  A    between atoms: C4_6  and  C5_7 
REMARK       I    between atoms: C5_7  and  N2_9 
REMARK    3  A    between atoms: N2_9  and  C6_10 
REMARK    4  A    between atoms: C6_10  and  C7_11 
REMARK    5  A    between atoms: C6_10  and  C8_13 
REMARK       I    between atoms: C7_11  and  N3_14 
REMARK    6  A    between atoms: N3_14  and  C9_15 
REMARK    7  A    between atoms: C9_15  and  C10_16 
REMARK    8  A    between atoms: C9_15  and  C11_18 
REMARK       I    between atoms: C10_16  and  N4_21 
REMARK    9  A    between atoms: C11_18  and  C12_19 
REMARK   10  A    between atoms: C11_18  and  C13_20 
REMARK   11  A    between atoms: N4_21  and  C14_22 
REMARK   12  A    between atoms: C14_22  and  C15_23 
REMARK   13  A    between atoms: C14_22  and  C16_25 
REMARK       I    between atoms: C15_23  and  N6_40 
REMARK   14  A    between atoms: C16_25  and  C17_26 
REMARK   15  A    between atoms: C17_26  and  C18_27 
REMARK   16  A    between atoms: C17_26  and  C19_28 
REMARK   17  A    between atoms: C20_29  and  C21_30 
REMARK   18  A    between atoms: C20_29  and  C24_33 
REMARK   19  A    between atoms: C20_29  and  N6_40 
REMARK   20  A    between atoms: C21_30  and  C22_31 
REMARK   21  A    between atoms: C22_31  and  C23_32 
REMARK   22  A    between atoms: C23_32  and  O8_43 
REMARK   23  A    between atoms: C24_33  and  C25_34 
REMARK   24  A    between atoms: C28_38  and  O6_39 
REMARK   25  A    between atoms: C29_42  and  O8_43 
REMARK   26  A    between atoms: C29_42  and  C35_49 
ROOT
ATOM      1  C14 non d ame     -34.815   8.366  31.066  0.00  0.00     0.089 C 
ATOM      2  H20 non d ame     -34.368   8.340  32.060  0.00  0.00     0.087 H 
ENDROOT
BRANCH   1   3
ATOM      3  N4  non d ame     -33.935   9.147  30.209  0.00  0.00    -0.346 N 
ATOM      4  C10 non d ame     -33.398  10.475  30.678  0.00  0.00     0.241 C 
ATOM      5  O4  non d ame     -33.689  10.897  31.749  0.00  0.00    -0.271 OA
ATOM      6  H19 non d ame     -33.702   8.773  29.301  0.00  0.00     0.163 HD
BRANCH   4   7
ATOM      7  C9  non d ame     -32.485  11.269  29.780  0.00  0.00     0.092 C 
ATOM      8  H11 non d ame     -31.805  10.589  29.269  0.00  0.00     0.088 H 
BRANCH   7   9
ATOM      9  N3  non d ame     -33.279  11.944  28.749  0.00  0.00    -0.346 N 
ATOM     10  C7  non d ame     -33.474  11.317  27.465  0.00  0.00     0.240 C 
ATOM     11  O3  non d ame     -33.000  10.271  27.244  0.00  0.00    -0.271 OA
ATOM     12  H10 non d ame     -33.693  12.848  28.925  0.00  0.00     0.163 HD
BRANCH  10  13
ATOM     13  C6  non d ame     -34.318  12.042  26.370  0.00  0.00     0.086 C 
ATOM     14  H6  non d ame     -34.966  12.816  26.781  0.00  0.00     0.086 H 
BRANCH  13  15
ATOM     15  N2  non d ame     -33.417  12.705  25.442  0.00  0.00    -0.343 N 
ATOM     16  C5  non d ame     -32.882  14.026  25.775  0.00  0.00     0.273 C 
ATOM     17  O2  non d ame     -33.185  14.551  26.790  0.00  0.00    -0.266 OA
ATOM     18  H5  non d ame     -33.165  12.251  24.575  0.00  0.00     0.163 HD
BRANCH  16  19
ATOM     19  C4  non d ame     -31.928  14.738  24.803  0.00  0.00     0.154 A 
ATOM     20  C1  non d ame     -30.795  14.174  24.135  0.00  0.00    -0.017 A 
ATOM     21  C2  non d ame     -30.263  15.232  23.365  0.00  0.00     0.077 A 
ATOM     22  H1  non d ame     -30.417  13.154  24.199  0.00  0.00     0.091 H 
ATOM     23  O1  non d ame     -31.011  16.276  23.572  0.00  0.00    -0.218 OA
ATOM     24  N1  non d ame     -31.989  16.012  24.407  0.00  0.00    -0.123 NA
BRANCH  21  25
ATOM     25  C3  non d ame     -29.041  15.163  22.459  0.00  0.00    -0.029 C 
ATOM     26  H2  non d ame     -29.031  14.208  21.935  0.00  0.00     0.036 H 
ATOM     27  H3  non d ame     -29.081  15.974  21.732  0.00  0.00     0.036 H 
ATOM     28  H4  non d ame     -28.137  15.257  23.059  0.00  0.00     0.036 H 
ENDBRANCH  21  25
ENDBRANCH  16  19
ENDBRANCH  13  15
BRANCH  13  29
ATOM     29  C8  non d ame     -35.166  11.035  25.637  0.00  0.00    -0.049 C 
ATOM     30  H7  non d ame     -34.599  10.116  25.495  0.00  0.00     0.030 H 
ATOM     31  H8  non d ame     -36.062  10.821  26.219  0.00  0.00     0.030 H 
ATOM     32  H9  non d ame     -35.452  11.439  24.665  0.00  0.00     0.030 H 
ENDBRANCH  13  29
ENDBRANCH  10  13
ENDBRANCH   7   9
BRANCH   7  33
ATOM     33  C11 non d ame     -31.725  12.334  30.625  0.00  0.00    -0.033 C 
ATOM     34  H12 non d ame     -32.285  12.482  31.548  0.00  0.00     0.042 H 
BRANCH  33  35
ATOM     35  C12 non d ame     -30.299  11.834  31.017  0.00  0.00    -0.071 C 
ATOM     36  H13 non d ame     -29.735  12.656  31.460  0.00  0.00     0.028 H 
ATOM     37  H14 non d ame     -30.384  11.022  31.738  0.00  0.00     0.028 H 
ATOM     38  H15 non d ame     -29.781  11.478  30.127  0.00  0.00     0.028 H 
ENDBRANCH  33  35
BRANCH  33  39
ATOM     39  C13 non d ame     -31.659  13.701  29.873  0.00  0.00    -0.071 C 
ATOM     40  H16 non d ame     -30.741  14.222  30.145  0.00  0.00     0.028 H 
ATOM     41  H17 non d ame     -31.674  13.526  28.797  0.00  0.00     0.028 H 
ATOM     42  H18 non d ame     -32.519  14.311  30.152  0.00  0.00     0.028 H 
ENDBRANCH  33  39
ENDBRANCH   7  33
ENDBRANCH   4   7
ENDBRANCH   1   3
BRANCH   1  43
ATOM     43  C15 non d ame     -34.966   6.943  30.454  0.00  0.00     0.240 C 
ATOM     44  O5  non d ame     -35.610   6.121  31.022  0.00  0.00    -0.271 OA
ATOM     45  N6  non d ame     -34.317   6.609  29.154  0.00  0.00    -0.355 N 
ATOM     46  H46 non d ame     -33.772   7.301  28.660  0.00  0.00     0.162 HD
BRANCH  45  47
ATOM     47  C20 non d ame     -34.472   5.252  28.586  0.00  0.00     0.013 C 
ATOM     48  H30 non d ame     -34.726   4.575  29.401  0.00  0.00     0.072 H 
BRANCH  47  49
ATOM     49  C21 non d ame     -33.170   4.827  27.946  0.00  0.00    -0.038 C 
ATOM     50  H31 non d ame     -32.454   4.741  28.765  0.00  0.00     0.036 H 
ATOM     51  H32 non d ame     -33.411   3.953  27.340  0.00  0.00     0.036 H 
BRANCH  49  52
ATOM     52  C22 non d ame     -32.603   5.887  26.978  0.00  0.00     0.018 C 
ATOM     53  H33 non d ame     -33.300   6.723  27.014  0.00  0.00     0.048 H 
ATOM     54  H34 non d ame     -31.563   6.030  27.273  0.00  0.00     0.048 H 
BRANCH  52  55
ATOM     55  C23 non d ame     -32.566   5.424  25.495  0.00  0.00     0.259 C 
ATOM     56  O7  non d ame     -33.001   4.363  25.184  0.00  0.00    -0.265 OA
BRANCH  55  57
ATOM     57  O8  non d ame     -31.992   6.278  24.512  0.00  0.00    -0.317 OA
BRANCH  57  58
ATOM     58  C29 non d ame     -32.657   7.537  24.374  0.00  0.00     0.052 C 
ATOM     59  H47 non d ame     -33.504   7.353  23.714  0.00  0.00     0.082 H 
ATOM     60  H48 non d ame     -32.825   7.895  25.389  0.00  0.00     0.082 H 
BRANCH  58  61
ATOM     61  C35 non d ame     -31.685   8.517  23.665  0.00  0.00    -0.034 A 
ATOM     62  C30 non d ame     -30.806   8.044  22.695  0.00  0.00    -0.075 A 
ATOM     63  C31 non d ame     -29.931   8.924  22.058  0.00  0.00    -0.082 A 
ATOM     64  H49 non d ame     -30.801   6.986  22.434  0.00  0.00     0.084 H 
ATOM     65  C32 non d ame     -29.937  10.280  22.394  0.00  0.00    -0.083 A 
ATOM     66  H50 non d ame     -29.245   8.551  21.296  0.00  0.00     0.083 H 
ATOM     67  C33 non d ame     -30.813  10.746  23.365  0.00  0.00    -0.082 A 
ATOM     68  H51 non d ame     -29.257  10.975  21.900  0.00  0.00     0.083 H 
ATOM     69  C34 non d ame     -31.690   9.871  24.003  0.00  0.00    -0.075 A 
ATOM     70  H52 non d ame     -30.813  11.805  23.628  0.00  0.00     0.083 H 
ATOM     71  H53 non d ame     -32.376  10.245  24.764  0.00  0.00     0.084 H 
ENDBRANCH  58  61
ENDBRANCH  57  58
ENDBRANCH  55  57
ENDBRANCH  52  55
ENDBRANCH  49  52
ENDBRANCH  47  49
BRANCH  47  72
ATOM     72  C24 non d ame     -35.580   5.257  27.534  0.00  0.00    -0.039 C 
ATOM     73  H35 non d ame     -35.753   6.308  27.300  0.00  0.00     0.036 H 
ATOM     74  H36 non d ame     -35.242   4.573  26.755  0.00  0.00     0.036 H 
BRANCH  72  75
ATOM     75  C25 non d ame     -36.952   4.670  28.116  0.00  0.00    -0.001 C 
ATOM     76  C26 non d ame     -37.261   3.201  27.445  0.00  0.00    -0.035 C 
ATOM     77  C27 non d ame     -38.524   3.203  26.954  0.00  0.00     0.085 C 
ATOM     78  H38 non d ame     -36.644   3.057  26.559  0.00  0.00     0.036 H 
ATOM     79  H39 non d ame     -37.291   2.434  28.220  0.00  0.00     0.036 H 
ATOM     80  N5  non d ame     -38.988   4.640  26.936  0.00  0.00    -0.049 N 
ATOM     81  H40 non d ame     -38.438   2.844  25.929  0.00  0.00     0.075 H 
ATOM     82  H41 non d ame     -39.118   2.647  27.678  0.00  0.00     0.075 H 
ATOM     83  C28 non d ame     -37.943   5.455  27.857  0.00  0.00     0.193 C 
ATOM     84  H42 non d ame     -38.894   4.959  25.983  0.00  0.00     0.280 HD
ATOM     85  H43 non d ame     -39.892   4.652  27.386  0.00  0.00     0.280 HD
ATOM     86  H44 non d ame     -38.219   5.765  28.866  0.00  0.00     0.129 H 
ATOM     87  H37 non d ame     -37.002   4.739  29.203  0.00  0.00     0.046 H 
BRANCH  83  88
ATOM     88  O6  non d ame     -37.526   6.648  27.191  0.00  0.00    -0.369 OA
ATOM     89  H45 non d ame     -38.179   6.891  26.530  0.00  0.00     0.212 HD
ENDBRANCH  83  88
ENDBRANCH  72  75
ENDBRANCH  47  72
ENDBRANCH  45  47
ENDBRANCH   1  43
BRANCH   1  90
ATOM     90  C16 non d ame     -36.175   9.042  31.130  0.00  0.00    -0.035 C 
ATOM     91  H21 non d ame     -36.739   8.484  31.876  0.00  0.00     0.037 H 
ATOM     92  H22 non d ame     -35.964  10.100  31.285  0.00  0.00     0.037 H 
BRANCH  90  93
ATOM     93  C17 non d ame     -36.987   8.943  29.799  0.00  0.00    -0.059 C 
ATOM     94  H23 non d ame     -36.496   8.203  29.167  0.00  0.00     0.038 H 
BRANCH  93  95
ATOM     95  C18 non d ame     -38.455   8.465  30.038  0.00  0.00    -0.073 C 
ATOM     96  H24 non d ame     -38.998   8.473  29.093  0.00  0.00     0.028 H 
ATOM     97  H25 non d ame     -38.446   7.453  30.442  0.00  0.00     0.028 H 
ATOM     98  H26 non d ame     -38.945   9.135  30.745  0.00  0.00     0.028 H 
ENDBRANCH  93  95
BRANCH  93  99
ATOM     99  C19 non d ame     -36.964  10.275  29.044  0.00  0.00    -0.073 C 
ATOM    100  H27 non d ame     -35.990  10.749  29.174  0.00  0.00     0.028 H 
ATOM    101  H28 non d ame     -37.141  10.095  27.984  0.00  0.00     0.028 H 
ATOM    102  H29 non d ame     -37.742  10.929  29.437  0.00  0.00     0.028 H 
ENDBRANCH  93  99
ENDBRANCH  90  93
ENDBRANCH   1  90
TORSDOF 26
ENDMDL
MODEL 8
REMARK VINA RESULT:      -6.5      2.777      4.863
REMARK  26 active torsions:
REMARK  status: ('A' for Active; 'I' for Inactive)
REMARK    1  A    between atoms: C2_2  and  C3_3 
REMARK    2  A    between atoms: C4_6  and  C5_7 
REMARK       I    between atoms: C5_7  and  N2_9 
REMARK    3  A    between atoms: N2_9  and  C6_10 
REMARK    4  A    between atoms: C6_10  and  C7_11 
REMARK    5  A    between atoms: C6_10  and  C8_13 
REMARK       I    between atoms: C7_11  and  N3_14 
REMARK    6  A    between atoms: N3_14  and  C9_15 
REMARK    7  A    between atoms: C9_15  and  C10_16 
REMARK    8  A    between atoms: C9_15  and  C11_18 
REMARK       I    between atoms: C10_16  and  N4_21 
REMARK    9  A    between atoms: C11_18  and  C12_19 
REMARK   10  A    between atoms: C11_18  and  C13_20 
REMARK   11  A    between atoms: N4_21  and  C14_22 
REMARK   12  A    between atoms: C14_22  and  C15_23 
REMARK   13  A    between atoms: C14_22  and  C16_25 
REMARK       I    between atoms: C15_23  and  N6_40 
REMARK   14  A    between atoms: C16_25  and  C17_26 
REMARK   15  A    between atoms: C17_26  and  C18_27 
REMARK   16  A    between atoms: C17_26  and  C19_28 
REMARK   17  A    between atoms: C20_29  and  C21_30 
REMARK   18  A    between atoms: C20_29  and  C24_33 
REMARK   19  A    between atoms: C20_29  and  N6_40 
REMARK   20  A    between atoms: C21_30  and  C22_31 
REMARK   21  A    between atoms: C22_31  and  C23_32 
REMARK   22  A    between atoms: C23_32  and  O8_43 
REMARK   23  A    between atoms: C24_33  and  C25_34 
REMARK   24  A    between atoms: C28_38  and  O6_39 
REMARK   25  A    between atoms: C29_42  and  O8_43 
REMARK   26  A    between atoms: C29_42  and  C35_49 
ROOT
ATOM      1  C14 non d ame     -32.144   9.661  24.834  0.00  0.00     0.089 C 
ATOM      2  H20 non d ame     -31.618   8.778  25.196  0.00  0.00     0.087 H 
ENDROOT
BRANCH   1   3
ATOM      3  N4  non d ame     -33.571   9.401  24.952  0.00  0.00    -0.346 N 
ATOM      4  C10 non d ame     -34.091   7.987  24.937  0.00  0.00     0.241 C 
ATOM      5  O4  non d ame     -33.343   7.072  24.826  0.00  0.00    -0.271 OA
ATOM      6  H19 non d ame     -34.191  10.193  25.043  0.00  0.00     0.163 HD
BRANCH   4   7
ATOM      7  C9  non d ame     -35.571   7.736  25.066  0.00  0.00     0.092 C 
ATOM      8  H11 non d ame     -35.761   6.665  24.994  0.00  0.00     0.088 H 
BRANCH   7   9
ATOM      9  N3  non d ame     -36.027   8.169  26.390  0.00  0.00    -0.346 N 
ATOM     10  C7  non d ame     -36.636   7.219  27.288  0.00  0.00     0.240 C 
ATOM     11  O3  non d ame     -36.768   6.103  26.962  0.00  0.00    -0.271 OA
ATOM     12  H10 non d ame     -35.922   9.129  26.684  0.00  0.00     0.163 HD
BRANCH  10  13
ATOM     13  C6  non d ame     -37.123   7.687  28.695  0.00  0.00     0.086 C 
ATOM     14  H6  non d ame     -37.059   6.900  29.446  0.00  0.00     0.086 H 
BRANCH  13  15
ATOM     15  N2  non d ame     -36.270   8.770  29.153  0.00  0.00    -0.343 N 
ATOM     16  C5  non d ame     -35.130   8.473  30.023  0.00  0.00     0.273 C 
ATOM     17  O2  non d ame     -34.909   7.359  30.351  0.00  0.00    -0.266 OA
ATOM     18  H5  non d ame     -36.468   9.720  28.871  0.00  0.00     0.163 HD
BRANCH  16  19
ATOM     19  C4  non d ame     -34.220   9.610  30.514  0.00  0.00     0.154 A 
ATOM     20  C1  non d ame     -33.104  10.183  29.826  0.00  0.00    -0.017 A 
ATOM     21  C2  non d ame     -32.614  11.180  30.698  0.00  0.00     0.077 A 
ATOM     22  H1  non d ame     -32.712   9.916  28.845  0.00  0.00     0.091 H 
ATOM     23  O1  non d ame     -33.366  11.174  31.758  0.00  0.00    -0.218 OA
ATOM     24  N1  non d ame     -34.311  10.265  31.674  0.00  0.00    -0.123 NA
BRANCH  21  25
ATOM     25  C3  non d ame     -31.424  12.095  30.442  0.00  0.00    -0.029 C 
ATOM     26  H2  non d ame     -31.544  13.016  31.011  0.00  0.00     0.036 H 
ATOM     27  H3  non d ame     -30.506  11.595  30.753  0.00  0.00     0.036 H 
ATOM     28  H4  non d ame     -31.367  12.330  29.379  0.00  0.00     0.036 H 
ENDBRANCH  21  25
ENDBRANCH  16  19
ENDBRANCH  13  15
BRANCH  13  29
ATOM     29  C8  non d ame     -38.553   8.157  28.604  0.00  0.00    -0.049 C 
ATOM     30  H7  non d ame     -39.097   7.532  27.897  0.00  0.00     0.030 H 
ATOM     31  H8  non d ame     -39.022   8.087  29.585  0.00  0.00     0.030 H 
ATOM     32  H9  non d ame     -38.573   9.193  28.264  0.00  0.00     0.030 H 
ENDBRANCH  13  29
ENDBRANCH  10  13
ENDBRANCH   7   9
BRANCH   7  33
ATOM     33  C11 non d ame     -36.330   8.541  23.970  0.00  0.00    -0.033 C 
ATOM     34  H12 non d ame     -36.156   9.600  24.160  0.00  0.00     0.042 H 
BRANCH  33  35
ATOM     35  C12 non d ame     -35.776   8.222  22.546  0.00  0.00    -0.071 C 
ATOM     36  H13 non d ame     -36.243   8.886  21.817  0.00  0.00     0.028 H 
ATOM     37  H14 non d ame     -34.697   8.371  22.534  0.00  0.00     0.028 H 
ATOM     38  H15 non d ame     -36.004   7.187  22.290  0.00  0.00     0.028 H 
ENDBRANCH  33  35
BRANCH  33  39
ATOM     39  C13 non d ame     -37.868   8.282  24.050  0.00  0.00    -0.071 C 
ATOM     40  H16 non d ame     -38.316   8.973  24.765  0.00  0.00     0.028 H 
ATOM     41  H17 non d ame     -38.315   8.434  23.067  0.00  0.00     0.028 H 
ATOM     42  H18 non d ame     -38.048   7.257  24.375  0.00  0.00     0.028 H 
ENDBRANCH  33  39
ENDBRANCH   7  33
ENDBRANCH   4   7
ENDBRANCH   1   3
BRANCH   1  43
ATOM     43  C15 non d ame     -31.801  10.930  25.667  0.00  0.00     0.240 C 
ATOM     44  O5  non d ame     -31.388  10.816  26.775  0.00  0.00    -0.271 OA
ATOM     45  N6  non d ame     -31.977  12.288  25.078  0.00  0.00    -0.355 N 
ATOM     46  H46 non d ame     -32.322  12.398  24.135  0.00  0.00     0.162 HD
BRANCH  45  47
ATOM     47  C20 non d ame     -31.646  13.484  25.882  0.00  0.00     0.013 C 
ATOM     48  H30 non d ame     -31.064  13.157  26.744  0.00  0.00     0.072 H 
BRANCH  47  49
ATOM     49  C21 non d ame     -32.924  14.148  26.342  0.00  0.00    -0.038 C 
ATOM     50  H31 non d ame     -33.022  15.049  25.735  0.00  0.00     0.036 H 
ATOM     51  H32 non d ame     -33.690  13.374  26.296  0.00  0.00     0.036 H 
BRANCH  49  52
ATOM     52  C22 non d ame     -32.862  14.615  27.813  0.00  0.00     0.018 C 
ATOM     53  H33 non d ame     -33.846  14.407  28.230  0.00  0.00     0.048 H 
ATOM     54  H34 non d ame     -31.977  14.138  28.236  0.00  0.00     0.048 H 
BRANCH  52  55
ATOM     55  C23 non d ame     -32.642  16.145  27.975  0.00  0.00     0.259 C 
ATOM     56  O7  non d ame     -32.548  16.629  29.057  0.00  0.00    -0.265 OA
BRANCH  55  57
ATOM     57  O8  non d ame     -32.567  16.965  26.815  0.00  0.00    -0.317 OA
BRANCH  57  58
ATOM     58  C29 non d ame     -32.576  18.368  27.092  0.00  0.00     0.052 C 
ATOM     59  H47 non d ame     -32.476  18.456  28.174  0.00  0.00     0.082 H 
ATOM     60  H48 non d ame     -31.822  18.804  26.437  0.00  0.00     0.082 H 
BRANCH  58  61
ATOM     61  C35 non d ame     -33.964  18.928  26.680  0.00  0.00    -0.034 A 
ATOM     62  C30 non d ame     -34.433  20.110  27.246  0.00  0.00    -0.075 A 
ATOM     63  C31 non d ame     -35.680  20.613  26.877  0.00  0.00    -0.082 A 
ATOM     64  H49 non d ame     -33.826  20.641  27.979  0.00  0.00     0.084 H 
ATOM     65  C32 non d ame     -36.459  19.929  25.940  0.00  0.00    -0.083 A 
ATOM     66  H50 non d ame     -36.045  21.540  27.321  0.00  0.00     0.083 H 
ATOM     67  C33 non d ame     -35.988  18.749  25.381  0.00  0.00    -0.082 A 
ATOM     68  H51 non d ame     -37.435  20.316  25.645  0.00  0.00     0.083 H 
ATOM     69  C34 non d ame     -34.742  18.243  25.746  0.00  0.00    -0.075 A 
ATOM     70  H52 non d ame     -36.599  18.216  24.651  0.00  0.00     0.083 H 
ATOM     71  H53 non d ame     -34.378  17.317  25.301  0.00  0.00     0.084 H 
ENDBRANCH  58  61
ENDBRANCH  57  58
ENDBRANCH  55  57
ENDBRANCH  52  55
ENDBRANCH  49  52
ENDBRANCH  47  49
BRANCH  47  72
ATOM     72  C24 non d ame     -30.835  14.466  25.038  0.00  0.00    -0.039 C 
ATOM     73  H35 non d ame     -31.110  15.457  25.402  0.00  0.00     0.036 H 
ATOM     74  H36 non d ame     -29.802  14.127  25.110  0.00  0.00     0.036 H 
BRANCH  72  75
ATOM     75  C25 non d ame     -31.248  14.399  23.492  0.00  0.00    -0.001 C 
ATOM     76  C26 non d ame     -29.976  13.869  22.595  0.00  0.00    -0.035 C 
ATOM     77  C27 non d ame     -29.775  14.731  21.569  0.00  0.00     0.085 C 
ATOM     78  H38 non d ame     -29.055  13.942  23.173  0.00  0.00     0.036 H 
ATOM     79  H39 non d ame     -30.233  12.935  22.096  0.00  0.00     0.036 H 
ATOM     80  N5  non d ame     -30.582  15.971  21.872  0.00  0.00    -0.049 N 
ATOM     81  H40 non d ame     -28.714  14.980  21.602  0.00  0.00     0.075 H 
ATOM     82  H41 non d ame     -30.193  14.241  20.691  0.00  0.00     0.075 H 
ATOM     83  C28 non d ame     -31.603  15.560  23.052  0.00  0.00     0.193 C 
ATOM     84  H42 non d ame     -29.932  16.654  22.232  0.00  0.00     0.280 HD
ATOM     85  H43 non d ame     -31.117  16.173  21.039  0.00  0.00     0.280 HD
ATOM     86  H44 non d ame     -32.655  15.376  22.834  0.00  0.00     0.129 H 
ATOM     87  H37 non d ame     -32.204  13.898  23.341  0.00  0.00     0.046 H 
BRANCH  83  88
ATOM     88  O6  non d ame     -31.593  16.552  24.080  0.00  0.00    -0.369 OA
ATOM     89  H45 non d ame     -32.064  17.332  23.777  0.00  0.00     0.212 HD
ENDBRANCH  83  88
ENDBRANCH  72  75
ENDBRANCH  47  72
ENDBRANCH  45  47
ENDBRANCH   1  43
BRANCH   1  90
ATOM     90  C16 non d ame     -31.802   9.901  23.372  0.00  0.00    -0.035 C 
ATOM     91  H21 non d ame     -32.758   9.927  22.853  0.00  0.00     0.037 H 
ATOM     92  H22 non d ame     -31.154  10.779  23.368  0.00  0.00     0.037 H 
BRANCH  90  93
ATOM     93  C17 non d ame     -30.979   8.742  22.724  0.00  0.00    -0.059 C 
ATOM     94  H23 non d ame     -30.721   8.038  23.514  0.00  0.00     0.038 H 
BRANCH  93  95
ATOM     95  C18 non d ame     -31.802   7.967  21.646  0.00  0.00    -0.073 C 
ATOM     96  H24 non d ame     -32.183   8.669  20.904  0.00  0.00     0.028 H 
ATOM     97  H25 non d ame     -31.161   7.234  21.157  0.00  0.00     0.028 H 
ATOM     98  H26 non d ame     -32.638   7.456  22.125  0.00  0.00     0.028 H 
ENDBRANCH  93  95
BRANCH  93  99
ATOM     99  C19 non d ame     -29.667   9.266  22.133  0.00  0.00    -0.073 C 
ATOM    100  H27 non d ame     -29.791   9.430  21.062  0.00  0.00     0.028 H 
ATOM    101  H28 non d ame     -29.401  10.207  22.616  0.00  0.00     0.028 H 
ATOM    102  H29 non d ame     -28.876   8.536  22.300  0.00  0.00     0.028 H 
ENDBRANCH  93  99
ENDBRANCH  90  93
ENDBRANCH   1  90
TORSDOF 26
ENDMDL
MODEL 9
REMARK VINA RESULT:      -6.3      2.740      5.212
REMARK  26 active torsions:
REMARK  status: ('A' for Active; 'I' for Inactive)
REMARK    1  A    between atoms: C2_2  and  C3_3 
REMARK    2  A    between atoms: C4_6  and  C5_7 
REMARK       I    between atoms: C5_7  and  N2_9 
REMARK    3  A    between atoms: N2_9  and  C6_10 
REMARK    4  A    between atoms: C6_10  and  C7_11 
REMARK    5  A    between atoms: C6_10  and  C8_13 
REMARK       I    between atoms: C7_11  and  N3_14 
REMARK    6  A    between atoms: N3_14  and  C9_15 
REMARK    7  A    between atoms: C9_15  and  C10_16 
REMARK    8  A    between atoms: C9_15  and  C11_18 
REMARK       I    between atoms: C10_16  and  N4_21 
REMARK    9  A    between atoms: C11_18  and  C12_19 
REMARK   10  A    between atoms: C11_18  and  C13_20 
REMARK   11  A    between atoms: N4_21  and  C14_22 
REMARK   12  A    between atoms: C14_22  and  C15_23 
REMARK   13  A    between atoms: C14_22  and  C16_25 
REMARK       I    between atoms: C15_23  and  N6_40 
REMARK   14  A    between atoms: C16_25  and  C17_26 
REMARK   15  A    between atoms: C17_26  and  C18_27 
REMARK   16  A    between atoms: C17_26  and  C19_28 
REMARK   17  A    between atoms: C20_29  and  C21_30 
REMARK   18  A    between atoms: C20_29  and  C24_33 
REMARK   19  A    between atoms: C20_29  and  N6_40 
REMARK   20  A    between atoms: C21_30  and  C22_31 
REMARK   21  A    between atoms: C22_31  and  C23_32 
REMARK   22  A    between atoms: C23_32  and  O8_43 
REMARK   23  A    between atoms: C24_33  and  C25_34 
REMARK   24  A    between atoms: C28_38  and  O6_39 
REMARK   25  A    between atoms: C29_42  and  O8_43 
REMARK   26  A    between atoms: C29_42  and  C35_49 
ROOT
ATOM      1  C14 non d ame     -32.212   9.356  24.934  0.00  0.00     0.089 C 
ATOM      2  H20 non d ame     -31.558   8.498  25.088  0.00  0.00     0.087 H 
ENDROOT
BRANCH   1   3
ATOM      3  N4  non d ame     -33.262   9.293  25.940  0.00  0.00    -0.346 N 
ATOM      4  C10 non d ame     -33.113   8.396  27.142  0.00  0.00     0.241 C 
ATOM      5  O4  non d ame     -32.139   7.732  27.279  0.00  0.00    -0.271 OA
ATOM      6  H19 non d ame     -34.085   9.863  25.803  0.00  0.00     0.163 HD
BRANCH   4   7
ATOM      7  C9  non d ame     -34.208   8.346  28.175  0.00  0.00     0.092 C 
ATOM      8  H11 non d ame     -33.809   8.669  29.136  0.00  0.00     0.088 H 
BRANCH   7   9
ATOM      9  N3  non d ame     -35.270   9.287  27.808  0.00  0.00    -0.346 N 
ATOM     10  C7  non d ame     -35.982  10.007  28.835  0.00  0.00     0.240 C 
ATOM     11  O3  non d ame     -35.713   9.841  29.962  0.00  0.00    -0.271 OA
ATOM     12  H10 non d ame     -35.514   9.439  26.840  0.00  0.00     0.163 HD
BRANCH  10  13
ATOM     13  C6  non d ame     -37.114  11.005  28.438  0.00  0.00     0.086 C 
ATOM     14  H6  non d ame     -36.891  12.032  28.729  0.00  0.00     0.086 H 
BRANCH  13  15
ATOM     15  N2  non d ame     -37.258  11.004  26.992  0.00  0.00    -0.343 N 
ATOM     16  C5  non d ame     -37.471  12.270  26.288  0.00  0.00     0.273 C 
ATOM     17  O2  non d ame     -37.528  13.284  26.893  0.00  0.00    -0.266 OA
ATOM     18  H5  non d ame     -37.211  10.133  26.483  0.00  0.00     0.163 HD
BRANCH  16  19
ATOM     19  C4  non d ame     -37.625  12.283  24.758  0.00  0.00     0.154 A 
ATOM     20  C1  non d ame     -38.394  11.380  23.959  0.00  0.00    -0.017 A 
ATOM     21  C2  non d ame     -38.204  11.820  22.630  0.00  0.00     0.077 A 
ATOM     22  H1  non d ame     -38.999  10.537  24.292  0.00  0.00     0.091 H 
ATOM     23  O1  non d ame     -37.417  12.854  22.672  0.00  0.00    -0.218 OA
ATOM     24  N1  non d ame     -37.066  13.144  23.904  0.00  0.00    -0.123 NA
BRANCH  21  25
ATOM     25  C3  non d ame     -38.809  11.197  21.379  0.00  0.00    -0.029 C 
ATOM     26  H2  non d ame     -39.671  11.784  21.062  0.00  0.00     0.036 H 
ATOM     27  H3  non d ame     -38.066  11.187  20.581  0.00  0.00     0.036 H 
ATOM     28  H4  non d ame     -39.124  10.177  21.595  0.00  0.00     0.036 H 
ENDBRANCH  21  25
ENDBRANCH  16  19
ENDBRANCH  13  15
BRANCH  13  29
ATOM     29  C8  non d ame     -38.407  10.585  29.087  0.00  0.00    -0.049 C 
ATOM     30  H7  non d ame     -38.888   9.819  28.480  0.00  0.00     0.030 H 
ATOM     31  H8  non d ame     -38.203  10.185  30.080  0.00  0.00     0.030 H 
ATOM     32  H9  non d ame     -39.068  11.449  29.172  0.00  0.00     0.030 H 
ENDBRANCH  13  29
ENDBRANCH  10  13
ENDBRANCH   7   9
BRANCH   7  33
ATOM     33  C11 non d ame     -34.795   6.905  28.239  0.00  0.00    -0.033 C 
ATOM     34  H12 non d ame     -34.129   6.254  27.673  0.00  0.00     0.042 H 
BRANCH  33  35
ATOM     35  C12 non d ame     -34.836   6.373  29.705  0.00  0.00    -0.071 C 
ATOM     36  H13 non d ame     -34.095   6.903  30.305  0.00  0.00     0.028 H 
ATOM     37  H14 non d ame     -35.828   6.538  30.125  0.00  0.00     0.028 H 
ATOM     38  H15 non d ame     -34.611   5.307  29.711  0.00  0.00     0.028 H 
ENDBRANCH  33  35
BRANCH  33  39
ATOM     39  C13 non d ame     -36.208   6.847  27.575  0.00  0.00    -0.071 C 
ATOM     40  H16 non d ame     -36.880   7.533  28.091  0.00  0.00     0.028 H 
ATOM     41  H17 non d ame     -36.129   7.134  26.526  0.00  0.00     0.028 H 
ATOM     42  H18 non d ame     -36.600   5.833  27.644  0.00  0.00     0.028 H 
ENDBRANCH  33  39
ENDBRANCH   7  33
ENDBRANCH   4   7
ENDBRANCH   1   3
BRANCH   1  43
ATOM     43  C15 non d ame     -31.455  10.706  25.093  0.00  0.00     0.240 C 
ATOM     44  O5  non d ame     -30.908  10.960  26.118  0.00  0.00    -0.271 OA
ATOM     45  N6  non d ame     -31.403  11.679  23.965  0.00  0.00    -0.355 N 
ATOM     46  H46 non d ame     -31.860  11.472  23.088  0.00  0.00     0.162 HD
BRANCH  45  47
ATOM     47  C20 non d ame     -30.678  12.957  24.132  0.00  0.00     0.013 C 
ATOM     48  H30 non d ame     -29.903  12.807  24.884  0.00  0.00     0.072 H 
BRANCH  47  49
ATOM     49  C21 non d ame     -31.646  14.024  24.593  0.00  0.00    -0.038 C 
ATOM     50  H31 non d ame     -31.634  14.788  23.815  0.00  0.00     0.036 H 
ATOM     51  H32 non d ame     -32.572  13.499  24.828  0.00  0.00     0.036 H 
BRANCH  49  52
ATOM     52  C22 non d ame     -31.195  14.719  25.897  0.00  0.00     0.018 C 
ATOM     53  H33 non d ame     -31.095  13.925  26.635  0.00  0.00     0.048 H 
ATOM     54  H34 non d ame     -30.329  15.323  25.624  0.00  0.00     0.048 H 
BRANCH  52  55
ATOM     55  C23 non d ame     -32.244  15.710  26.473  0.00  0.00     0.259 C 
ATOM     56  O7  non d ame     -32.605  16.645  25.834  0.00  0.00    -0.265 OA
BRANCH  55  57
ATOM     57  O8  non d ame     -32.761  15.495  27.781  0.00  0.00    -0.317 OA
BRANCH  57  58
ATOM     58  C29 non d ame     -33.481  14.268  27.928  0.00  0.00     0.052 C 
ATOM     59  H47 non d ame     -34.427  14.536  28.398  0.00  0.00     0.082 H 
ATOM     60  H48 non d ame     -33.474  13.801  26.944  0.00  0.00     0.082 H 
BRANCH  58  61
ATOM     61  C35 non d ame     -32.686  13.361  28.906  0.00  0.00    -0.034 A 
ATOM     62  C30 non d ame     -31.735  13.920  29.755  0.00  0.00    -0.075 A 
ATOM     63  C31 non d ame     -31.020  13.106  30.633  0.00  0.00    -0.082 A 
ATOM     64  H49 non d ame     -31.549  14.993  29.733  0.00  0.00     0.084 H 
ATOM     65  C32 non d ame     -31.258  11.729  30.659  0.00  0.00    -0.083 A 
ATOM     66  H50 non d ame     -30.277  13.546  31.299  0.00  0.00     0.083 H 
ATOM     67  C33 non d ame     -32.205  11.177  29.807  0.00  0.00    -0.082 A 
ATOM     68  H51 non d ame     -30.704  11.086  31.343  0.00  0.00     0.083 H 
ATOM     69  C34 non d ame     -32.923  11.986  28.929  0.00  0.00    -0.075 A 
ATOM     70  H52 non d ame     -32.386  10.101  29.828  0.00  0.00     0.083 H 
ATOM     71  H53 non d ame     -33.666  11.545  28.264  0.00  0.00     0.084 H 
ENDBRANCH  58  61
ENDBRANCH  57  58
ENDBRANCH  55  57
ENDBRANCH  52  55
ENDBRANCH  49  52
ENDBRANCH  47  49
BRANCH  47  72
ATOM     72  C24 non d ame     -30.054  13.374  22.802  0.00  0.00    -0.039 C 
ATOM     73  H35 non d ame     -28.984  13.193  22.915  0.00  0.00     0.036 H 
ATOM     74  H36 non d ame     -30.618  12.842  22.037  0.00  0.00     0.036 H 
BRANCH  72  75
ATOM     75  C25 non d ame     -30.241  14.941  22.525  0.00  0.00    -0.001 C 
ATOM     76  C26 non d ame     -31.101  15.164  21.141  0.00  0.00    -0.035 C 
ATOM     77  C27 non d ame     -30.427  16.027  20.342  0.00  0.00     0.085 C 
ATOM     78  H38 non d ame     -31.122  14.243  20.560  0.00  0.00     0.036 H 
ATOM     79  H39 non d ame     -32.030  15.693  21.359  0.00  0.00     0.036 H 
ATOM     80  N5  non d ame     -29.033  16.156  20.910  0.00  0.00    -0.049 N 
ATOM     81  H40 non d ame     -30.371  15.538  19.369  0.00  0.00     0.075 H 
ATOM     82  H41 non d ame     -30.942  16.981  20.444  0.00  0.00     0.075 H 
ATOM     83  C28 non d ame     -29.101  15.532  22.398  0.00  0.00     0.193 C 
ATOM     84  H42 non d ame     -28.438  15.570  20.343  0.00  0.00     0.280 HD
ATOM     85  H43 non d ame     -28.847  17.146  20.984  0.00  0.00     0.280 HD
ATOM     86  H44 non d ame     -29.119  16.186  23.271  0.00  0.00     0.129 H 
ATOM     87  H37 non d ame     -30.578  15.479  23.410  0.00  0.00     0.046 H 
BRANCH  83  88
ATOM     88  O6  non d ame     -28.004  14.641  22.609  0.00  0.00    -0.369 OA
ATOM     89  H45 non d ame     -28.337  13.784  22.888  0.00  0.00     0.212 HD
ENDBRANCH  83  88
ENDBRANCH  72  75
ENDBRANCH  47  72
ENDBRANCH  45  47
ENDBRANCH   1  43
BRANCH   1  90
ATOM     90  C16 non d ame     -32.841   9.283  23.552  0.00  0.00    -0.035 C 
ATOM     91  H21 non d ame     -33.888   9.037  23.725  0.00  0.00     0.037 H 
ATOM     92  H22 non d ame     -32.574  10.221  23.064  0.00  0.00     0.037 H 
BRANCH  90  93
ATOM     93  C17 non d ame     -32.261   8.139  22.660  0.00  0.00    -0.059 C 
ATOM     94  H23 non d ame     -32.180   7.246  23.280  0.00  0.00     0.038 H 
BRANCH  93  95
ATOM     95  C18 non d ame     -33.196   7.799  21.456  0.00  0.00    -0.073 C 
ATOM     96  H24 non d ame     -32.901   6.843  21.025  0.00  0.00     0.028 H 
ATOM     97  H25 non d ame     -34.228   7.736  21.803  0.00  0.00     0.028 H 
ATOM     98  H26 non d ame     -33.114   8.580  20.700  0.00  0.00     0.028 H 
ENDBRANCH  93  95
BRANCH  93  99
ATOM     99  C19 non d ame     -30.852   8.486  22.174  0.00  0.00    -0.073 C 
ATOM    100  H27 non d ame     -30.121   8.162  22.916  0.00  0.00     0.028 H 
ATOM    101  H28 non d ame     -30.657   7.979  21.229  0.00  0.00     0.028 H 
ATOM    102  H29 non d ame     -30.771   9.563  22.031  0.00  0.00     0.028 H 
ENDBRANCH  93  99
ENDBRANCH  90  93
ENDBRANCH   1  90
TORSDOF 26
ENDMDL
MODEL 10
REMARK VINA RESULT:      -6.3      3.299      9.528
REMARK  26 active torsions:
REMARK  status: ('A' for Active; 'I' for Inactive)
REMARK    1  A    between atoms: C2_2  and  C3_3 
REMARK    2  A    between atoms: C4_6  and  C5_7 
REMARK       I    between atoms: C5_7  and  N2_9 
REMARK    3  A    between atoms: N2_9  and  C6_10 
REMARK    4  A    between atoms: C6_10  and  C7_11 
REMARK    5  A    between atoms: C6_10  and  C8_13 
REMARK       I    between atoms: C7_11  and  N3_14 
REMARK    6  A    between atoms: N3_14  and  C9_15 
REMARK    7  A    between atoms: C9_15  and  C10_16 
REMARK    8  A    between atoms: C9_15  and  C11_18 
REMARK       I    between atoms: C10_16  and  N4_21 
REMARK    9  A    between atoms: C11_18  and  C12_19 
REMARK   10  A    between atoms: C11_18  and  C13_20 
REMARK   11  A    between atoms: N4_21  and  C14_22 
REMARK   12  A    between atoms: C14_22  and  C15_23 
REMARK   13  A    between atoms: C14_22  and  C16_25 
REMARK       I    between atoms: C15_23  and  N6_40 
REMARK   14  A    between atoms: C16_25  and  C17_26 
REMARK   15  A    between atoms: C17_26  and  C18_27 
REMARK   16  A    between atoms: C17_26  and  C19_28 
REMARK   17  A    between atoms: C20_29  and  C21_30 
REMARK   18  A    between atoms: C20_29  and  C24_33 
REMARK   19  A    between atoms: C20_29  and  N6_40 
REMARK   20  A    between atoms: C21_30  and  C22_31 
REMARK   21  A    between atoms: C22_31  and  C23_32 
REMARK   22  A    between atoms: C23_32  and  O8_43 
REMARK   23  A    between atoms: C24_33  and  C25_34 
REMARK   24  A    between atoms: C28_38  and  O6_39 
REMARK   25  A    between atoms: C29_42  and  O8_43 
REMARK   26  A    between atoms: C29_42  and  C35_49 
ROOT
ATOM      1  C14 non d ame     -37.565  13.598  25.554  0.00  0.00     0.089 C 
ATOM      2  H20 non d ame     -38.646  13.664  25.677  0.00  0.00     0.087 H 
ENDROOT
BRANCH   1   3
ATOM      3  N4  non d ame     -37.024  14.940  25.708  0.00  0.00    -0.346 N 
ATOM      4  C10 non d ame     -37.760  15.969  26.527  0.00  0.00     0.241 C 
ATOM      5  O4  non d ame     -38.788  15.695  27.053  0.00  0.00    -0.271 OA
ATOM      6  H19 non d ame     -36.150  15.155  25.250  0.00  0.00     0.163 HD
BRANCH   4   7
ATOM      7  C9  non d ame     -37.184  17.353  26.679  0.00  0.00     0.092 C 
ATOM      8  H11 non d ame     -37.291  17.674  27.714  0.00  0.00     0.088 H 
BRANCH   7   9
ATOM      9  N3  non d ame     -35.748  17.320  26.382  0.00  0.00    -0.346 N 
ATOM     10  C7  non d ame     -34.799  17.787  27.362  0.00  0.00     0.240 C 
ATOM     11  O3  non d ame     -35.173  18.194  28.394  0.00  0.00    -0.271 OA
ATOM     12  H10 non d ame     -35.411  16.973  25.495  0.00  0.00     0.163 HD
BRANCH  10  13
ATOM     13  C6  non d ame     -33.273  17.753  27.040  0.00  0.00     0.086 C 
ATOM     14  H6  non d ame     -32.698  18.452  27.646  0.00  0.00     0.086 H 
BRANCH  13  15
ATOM     15  N2  non d ame     -32.758  16.426  27.335  0.00  0.00    -0.343 N 
ATOM     16  C5  non d ame     -32.193  16.149  28.657  0.00  0.00     0.273 C 
ATOM     17  O2  non d ame     -32.154  17.001  29.476  0.00  0.00    -0.266 OA
ATOM     18  H5  non d ame     -32.792  15.705  26.629  0.00  0.00     0.163 HD
BRANCH  16  19
ATOM     19  C4  non d ame     -31.646  14.750  28.983  0.00  0.00     0.154 A 
ATOM     20  C1  non d ame     -32.179  13.811  29.921  0.00  0.00    -0.017 A 
ATOM     21  C2  non d ame     -31.318  12.693  29.844  0.00  0.00     0.077 A 
ATOM     22  H1  non d ame     -33.055  13.922  30.560  0.00  0.00     0.091 H 
ATOM     23  O1  non d ame     -30.404  12.968  28.961  0.00  0.00    -0.218 OA
ATOM     24  N1  non d ame     -30.574  14.164  28.445  0.00  0.00    -0.123 NA
BRANCH  21  25
ATOM     25  C3  non d ame     -31.441  11.404  30.645  0.00  0.00    -0.029 C 
ATOM     26  H2  non d ame     -30.530  10.816  30.529  0.00  0.00     0.036 H 
ATOM     27  H3  non d ame     -31.585  11.642  31.699  0.00  0.00     0.036 H 
ATOM     28  H4  non d ame     -32.293  10.829  30.282  0.00  0.00     0.036 H 
ENDBRANCH  21  25
ENDBRANCH  16  19
ENDBRANCH  13  15
BRANCH  13  29
ATOM     29  C8  non d ame     -33.057  18.079  25.584  0.00  0.00    -0.049 C 
ATOM     30  H7  non d ame     -32.025  17.859  25.311  0.00  0.00     0.030 H 
ATOM     31  H8  non d ame     -33.729  17.477  24.972  0.00  0.00     0.030 H 
ATOM     32  H9  non d ame     -33.260  19.137  25.415  0.00  0.00     0.030 H 
ENDBRANCH  13  29
ENDBRANCH  10  13
ENDBRANCH   7   9
BRANCH   7  33
ATOM     33  C11 non d ame     -37.893  18.321  25.687  0.00  0.00    -0.033 C 
ATOM     34  H12 non d ame     -38.964  18.135  25.755  0.00  0.00     0.042 H 
BRANCH  33  35
ATOM     35  C12 non d ame     -37.650  19.812  26.079  0.00  0.00    -0.071 C 
ATOM     36  H13 non d ame     -38.288  20.074  26.923  0.00  0.00     0.028 H 
ATOM     37  H14 non d ame     -36.606  19.951  26.355  0.00  0.00     0.028 H 
ATOM     38  H15 non d ame     -37.891  20.454  25.231  0.00  0.00     0.028 H 
ENDBRANCH  33  35
BRANCH  33  39
ATOM     39  C13 non d ame     -37.446  18.041  24.217  0.00  0.00    -0.071 C 
ATOM     40  H16 non d ame     -38.148  18.512  23.528  0.00  0.00     0.028 H 
ATOM     41  H17 non d ame     -36.448  18.449  24.056  0.00  0.00     0.028 H 
ATOM     42  H18 non d ame     -37.430  16.966  24.040  0.00  0.00     0.028 H 
ENDBRANCH  33  39
ENDBRANCH   7  33
ENDBRANCH   4   7
ENDBRANCH   1   3
BRANCH   1  43
ATOM     43  C15 non d ame     -36.908  12.675  26.621  0.00  0.00     0.240 C 
ATOM     44  O5  non d ame     -37.482  12.445  27.637  0.00  0.00    -0.271 OA
ATOM     45  N6  non d ame     -35.569  12.070  26.373  0.00  0.00    -0.355 N 
ATOM     46  H46 non d ame     -35.074  12.254  25.512  0.00  0.00     0.162 HD
BRANCH  45  47
ATOM     47  C20 non d ame     -34.959  11.194  27.397  0.00  0.00     0.013 C 
ATOM     48  H30 non d ame     -35.438  11.412  28.351  0.00  0.00     0.072 H 
BRANCH  47  49
ATOM     49  C21 non d ame     -33.478  11.481  27.483  0.00  0.00    -0.038 C 
ATOM     50  H31 non d ame     -33.349  12.098  28.373  0.00  0.00     0.036 H 
ATOM     51  H32 non d ame     -32.985  10.511  27.416  0.00  0.00     0.036 H 
BRANCH  49  52
ATOM     52  C22 non d ame     -32.959  12.318  26.293  0.00  0.00     0.018 C 
ATOM     53  H33 non d ame     -33.663  12.142  25.480  0.00  0.00     0.048 H 
ATOM     54  H34 non d ame     -32.815  13.326  26.682  0.00  0.00     0.048 H 
BRANCH  52  55
ATOM     55  C23 non d ame     -31.571  11.860  25.764  0.00  0.00     0.259 C 
ATOM     56  O7  non d ame     -31.065  10.868  26.180  0.00  0.00    -0.265 OA
BRANCH  55  57
ATOM     57  O8  non d ame     -30.904  12.649  24.786  0.00  0.00    -0.317 OA
BRANCH  57  58
ATOM     58  C29 non d ame     -31.227  14.041  24.840  0.00  0.00     0.052 C 
ATOM     59  H47 non d ame     -32.316  14.091  24.834  0.00  0.00     0.082 H 
ATOM     60  H48 non d ame     -30.667  14.442  25.684  0.00  0.00     0.082 H 
BRANCH  58  61
ATOM     61  C35 non d ame     -30.697  14.706  23.541  0.00  0.00    -0.034 A 
ATOM     62  C30 non d ame     -29.378  14.508  23.146  0.00  0.00    -0.075 A 
ATOM     63  C31 non d ame     -28.902  15.105  21.979  0.00  0.00    -0.082 A 
ATOM     64  H49 non d ame     -28.716  13.887  23.750  0.00  0.00     0.084 H 
ATOM     65  C32 non d ame     -29.750  15.904  21.207  0.00  0.00    -0.083 A 
ATOM     66  H50 non d ame     -27.867  14.947  21.671  0.00  0.00     0.083 H 
ATOM     67  C33 non d ame     -31.065  16.101  21.608  0.00  0.00    -0.082 A 
ATOM     68  H51 non d ame     -29.386  16.373  20.293  0.00  0.00     0.083 H 
ATOM     69  C34 non d ame     -31.545  15.505  22.772  0.00  0.00    -0.075 A 
ATOM     70  H52 non d ame     -31.724  16.727  21.005  0.00  0.00     0.083 H 
ATOM     71  H53 non d ame     -32.579  15.663  23.079  0.00  0.00     0.084 H 
ENDBRANCH  58  61
ENDBRANCH  57  58
ENDBRANCH  55  57
ENDBRANCH  52  55
ENDBRANCH  49  52
ENDBRANCH  47  49
BRANCH  47  72
ATOM     72  C24 non d ame     -35.175   9.730  27.018  0.00  0.00    -0.039 C 
ATOM     73  H35 non d ame     -35.956   9.740  26.258  0.00  0.00     0.036 H 
ATOM     74  H36 non d ame     -34.184   9.344  26.776  0.00  0.00     0.036 H 
BRANCH  72  75
ATOM     75  C25 non d ame     -35.727   8.873  28.253  0.00  0.00    -0.001 C 
ATOM     76  C26 non d ame     -35.985   9.856  29.546  0.00  0.00    -0.035 C 
ATOM     77  C27 non d ame     -35.363   9.327  30.627  0.00  0.00     0.085 C 
ATOM     78  H38 non d ame     -35.476  10.808  29.399  0.00  0.00     0.036 H 
ATOM     79  H39 non d ame     -37.039   9.839  29.825  0.00  0.00     0.036 H 
ATOM     80  N5  non d ame     -34.434   8.250  30.119  0.00  0.00    -0.049 N 
ATOM     81  H40 non d ame     -34.770  10.140  31.048  0.00  0.00     0.075 H 
ATOM     82  H41 non d ame     -36.152   8.866  31.220  0.00  0.00     0.075 H 
ATOM     83  C28 non d ame     -34.886   7.955  28.598  0.00  0.00     0.193 C 
ATOM     84  H42 non d ame     -33.509   8.653  30.108  0.00  0.00     0.280 HD
ATOM     85  H43 non d ame     -34.620   7.428  30.676  0.00  0.00     0.280 HD
ATOM     86  H44 non d ame     -35.460   7.060  28.355  0.00  0.00     0.129 H 
ATOM     87  H37 non d ame     -36.542   8.210  27.964  0.00  0.00     0.046 H 
BRANCH  83  88
ATOM     88  O6  non d ame     -33.743   7.922  27.742  0.00  0.00    -0.369 OA
ATOM     89  H45 non d ame     -33.967   8.311  26.893  0.00  0.00     0.212 HD
ENDBRANCH  83  88
ENDBRANCH  72  75
ENDBRANCH  47  72
ENDBRANCH  45  47
ENDBRANCH   1  43
BRANCH   1  90
ATOM     90  C16 non d ame     -37.235  13.085  24.162  0.00  0.00    -0.035 C 
ATOM     91  H21 non d ame     -36.378  13.671  23.834  0.00  0.00     0.037 H 
ATOM     92  H22 non d ame     -37.149  12.003  24.267  0.00  0.00     0.037 H 
BRANCH  90  93
ATOM     93  C17 non d ame     -38.368  13.339  23.117  0.00  0.00    -0.059 C 
ATOM     94  H23 non d ame     -39.286  13.541  23.668  0.00  0.00     0.038 H 
BRANCH  93  95
ATOM     95  C18 non d ame     -38.070  14.579  22.215  0.00  0.00    -0.073 C 
ATOM     96  H24 non d ame     -38.910  15.273  22.262  0.00  0.00     0.028 H 
ATOM     97  H25 non d ame     -37.168  15.078  22.570  0.00  0.00     0.028 H 
ATOM     98  H26 non d ame     -37.925  14.254  21.185  0.00  0.00     0.028 H 
ENDBRANCH  93  95
BRANCH  93  99
ATOM     99  C19 non d ame     -38.614  12.092  22.263  0.00  0.00    -0.073 C 
ATOM    100  H27 non d ame     -38.843  12.392  21.240  0.00  0.00     0.028 H 
ATOM    101  H28 non d ame     -37.721  11.466  22.266  0.00  0.00     0.028 H 
ATOM    102  H29 non d ame     -39.452  11.530  22.674  0.00  0.00     0.028 H 
ENDBRANCH  93  99
ENDBRANCH  90  93
ENDBRANCH   1  90
TORSDOF 26
ENDMDL
MODEL 11
REMARK VINA RESULT:      -6.3      2.351      6.130
REMARK  26 active torsions:
REMARK  status: ('A' for Active; 'I' for Inactive)
REMARK    1  A    between atoms: C2_2  and  C3_3 
REMARK    2  A    between atoms: C4_6  and  C5_7 
REMARK       I    between atoms: C5_7  and  N2_9 
REMARK    3  A    between atoms: N2_9  and  C6_10 
REMARK    4  A    between atoms: C6_10  and  C7_11 
REMARK    5  A    between atoms: C6_10  and  C8_13 
REMARK       I    between atoms: C7_11  and  N3_14 
REMARK    6  A    between atoms: N3_14  and  C9_15 
REMARK    7  A    between atoms: C9_15  and  C10_16 
REMARK    8  A    between atoms: C9_15  and  C11_18 
REMARK       I    between atoms: C10_16  and  N4_21 
REMARK    9  A    between atoms: C11_18  and  C12_19 
REMARK   10  A    between atoms: C11_18  and  C13_20 
REMARK   11  A    between atoms: N4_21  and  C14_22 
REMARK   12  A    between atoms: C14_22  and  C15_23 
REMARK   13  A    between atoms: C14_22  and  C16_25 
REMARK       I    between atoms: C15_23  and  N6_40 
REMARK   14  A    between atoms: C16_25  and  C17_26 
REMARK   15  A    between atoms: C17_26  and  C18_27 
REMARK   16  A    between atoms: C17_26  and  C19_28 
REMARK   17  A    between atoms: C20_29  and  C21_30 
REMARK   18  A    between atoms: C20_29  and  C24_33 
REMARK   19  A    between atoms: C20_29  and  N6_40 
REMARK   20  A    between atoms: C21_30  and  C22_31 
REMARK   21  A    between atoms: C22_31  and  C23_32 
REMARK   22  A    between atoms: C23_32  and  O8_43 
REMARK   23  A    between atoms: C24_33  and  C25_34 
REMARK   24  A    between atoms: C28_38  and  O6_39 
REMARK   25  A    between atoms: C29_42  and  O8_43 
REMARK   26  A    between atoms: C29_42  and  C35_49 
ROOT
ATOM      1  C14 non d ame     -32.711   8.087  25.694  0.00  0.00     0.089 C 
ATOM      2  H20 non d ame     -31.683   7.890  25.998  0.00  0.00     0.087 H 
ENDROOT
BRANCH   1   3
ATOM      3  N4  non d ame     -33.583   7.321  26.572  0.00  0.00    -0.346 N 
ATOM      4  C10 non d ame     -33.004   6.307  27.524  0.00  0.00     0.241 C 
ATOM      5  O4  non d ame     -31.832   6.122  27.566  0.00  0.00    -0.271 OA
ATOM      6  H19 non d ame     -34.577   7.491  26.519  0.00  0.00     0.163 HD
BRANCH   4   7
ATOM      7  C9  non d ame     -33.921   5.526  28.429  0.00  0.00     0.092 C 
ATOM      8  H11 non d ame     -33.371   5.219  29.318  0.00  0.00     0.088 H 
BRANCH   7   9
ATOM      9  N3  non d ame     -35.019   6.389  28.875  0.00  0.00    -0.346 N 
ATOM     10  C7  non d ame     -35.439   6.365  30.255  0.00  0.00     0.240 C 
ATOM     11  O3  non d ame     -34.905   5.657  31.019  0.00  0.00    -0.271 OA
ATOM     12  H10 non d ame     -35.490   7.003  28.227  0.00  0.00     0.163 HD
BRANCH  10  13
ATOM     13  C6  non d ame     -36.610   7.283  30.723  0.00  0.00     0.086 C 
ATOM     14  H6  non d ame     -36.362   7.864  31.611  0.00  0.00     0.086 H 
BRANCH  13  15
ATOM     15  N2  non d ame     -36.909   8.240  29.671  0.00  0.00    -0.343 N 
ATOM     16  C5  non d ame     -37.280   9.611  30.027  0.00  0.00     0.273 C 
ATOM     17  O2  non d ame     -37.339   9.934  31.163  0.00  0.00    -0.266 OA
ATOM     18  H5  non d ame     -36.860   7.955  28.703  0.00  0.00     0.163 HD
BRANCH  16  19
ATOM     19  C4  non d ame     -37.598  10.634  28.924  0.00  0.00     0.154 A 
ATOM     20  C1  non d ame     -36.788  10.966  27.793  0.00  0.00    -0.017 A 
ATOM     21  C2  non d ame     -37.523  11.950  27.096  0.00  0.00     0.077 A 
ATOM     22  H1  non d ame     -35.815  10.556  27.521  0.00  0.00     0.091 H 
ATOM     23  O1  non d ame     -38.626  12.150  27.756  0.00  0.00    -0.218 OA
ATOM     24  N1  non d ame     -38.692  11.394  28.827  0.00  0.00    -0.123 NA
BRANCH  21  25
ATOM     25  C3  non d ame     -37.103  12.645  25.808  0.00  0.00    -0.029 C 
ATOM     26  H2  non d ame     -37.667  13.570  25.694  0.00  0.00     0.036 H 
ATOM     27  H3  non d ame     -36.038  12.874  25.849  0.00  0.00     0.036 H 
ATOM     28  H4  non d ame     -37.302  11.991  24.959  0.00  0.00     0.036 H 
ENDBRANCH  21  25
ENDBRANCH  16  19
ENDBRANCH  13  15
BRANCH  13  29
ATOM     29  C8  non d ame     -37.826   6.441  31.017  0.00  0.00    -0.049 C 
ATOM     30  H7  non d ame     -38.533   7.018  31.611  0.00  0.00     0.030 H 
ATOM     31  H8  non d ame     -38.297   6.143  30.080  0.00  0.00     0.030 H 
ATOM     32  H9  non d ame     -37.526   5.551  31.572  0.00  0.00     0.030 H 
ENDBRANCH  13  29
ENDBRANCH  10  13
ENDBRANCH   7   9
BRANCH   7  33
ATOM     33  C11 non d ame     -34.504   4.309  27.651  0.00  0.00    -0.033 C 
ATOM     34  H12 non d ame     -34.585   3.479  28.352  0.00  0.00     0.042 H 
BRANCH  33  35
ATOM     35  C12 non d ame     -35.938   4.613  27.116  0.00  0.00    -0.071 C 
ATOM     36  H13 non d ame     -35.911   4.698  26.030  0.00  0.00     0.028 H 
ATOM     37  H14 non d ame     -36.611   3.805  27.401  0.00  0.00     0.028 H 
ATOM     38  H15 non d ame     -36.294   5.551  27.543  0.00  0.00     0.028 H 
ENDBRANCH  33  35
BRANCH  33  39
ATOM     39  C13 non d ame     -33.548   3.875  26.495  0.00  0.00    -0.071 C 
ATOM     40  H16 non d ame     -32.534   3.770  26.881  0.00  0.00     0.028 H 
ATOM     41  H17 non d ame     -33.882   2.921  26.085  0.00  0.00     0.028 H 
ATOM     42  H18 non d ame     -33.561   4.630  25.709  0.00  0.00     0.028 H 
ENDBRANCH  33  39
ENDBRANCH   7  33
ENDBRANCH   4   7
ENDBRANCH   1   3
BRANCH   1  43
ATOM     43  C15 non d ame     -33.081   9.593  25.819  0.00  0.00     0.240 C 
ATOM     44  O5  non d ame     -33.997  10.029  25.200  0.00  0.00    -0.271 OA
ATOM     45  N6  non d ame     -32.300  10.489  26.718  0.00  0.00    -0.355 N 
ATOM     46  H46 non d ame     -31.523  10.129  27.252  0.00  0.00     0.162 HD
BRANCH  45  47
ATOM     47  C20 non d ame     -32.666  11.918  26.826  0.00  0.00     0.013 C 
ATOM     48  H30 non d ame     -33.364  12.147  26.021  0.00  0.00     0.072 H 
BRANCH  47  49
ATOM     49  C21 non d ame     -31.421  12.765  26.689  0.00  0.00    -0.038 C 
ATOM     50  H31 non d ame     -30.651  12.251  27.264  0.00  0.00     0.036 H 
ATOM     51  H32 non d ame     -31.289  12.921  25.618  0.00  0.00     0.036 H 
BRANCH  49  52
ATOM     52  C22 non d ame     -31.577  14.166  27.318  0.00  0.00     0.018 C 
ATOM     53  H33 non d ame     -32.298  14.048  28.126  0.00  0.00     0.048 H 
ATOM     54  H34 non d ame     -30.565  14.506  27.536  0.00  0.00     0.048 H 
BRANCH  52  55
ATOM     55  C23 non d ame     -32.184  15.222  26.353  0.00  0.00     0.259 C 
ATOM     56  O7  non d ame     -33.363  15.317  26.228  0.00  0.00    -0.265 OA
BRANCH  55  57
ATOM     57  O8  non d ame     -31.315  16.067  25.608  0.00  0.00    -0.317 OA
BRANCH  57  58
ATOM     58  C29 non d ame     -31.836  16.463  24.336  0.00  0.00     0.052 C 
ATOM     59  H47 non d ame     -32.863  16.098  24.312  0.00  0.00     0.082 H 
ATOM     60  H48 non d ame     -31.635  17.530  24.254  0.00  0.00     0.082 H 
BRANCH  58  61
ATOM     61  C35 non d ame     -31.026  15.725  23.237  0.00  0.00    -0.034 A 
ATOM     62  C30 non d ame     -31.073  16.173  21.920  0.00  0.00    -0.075 A 
ATOM     63  C31 non d ame     -30.346  15.510  20.932  0.00  0.00    -0.082 A 
ATOM     64  H49 non d ame     -31.679  17.041  21.661  0.00  0.00     0.084 H 
ATOM     65  C32 non d ame     -29.572  14.395  21.264  0.00  0.00    -0.083 A 
ATOM     66  H50 non d ame     -30.383  15.864  19.900  0.00  0.00     0.083 H 
ATOM     67  C33 non d ame     -29.532  13.951  22.578  0.00  0.00    -0.082 A 
ATOM     68  H51 non d ame     -29.000  13.872  20.497  0.00  0.00     0.083 H 
ATOM     69  C34 non d ame     -30.255  14.611  23.569  0.00  0.00    -0.075 A 
ATOM     70  H52 non d ame     -28.928  13.079  22.834  0.00  0.00     0.083 H 
ATOM     71  H53 non d ame     -30.217  14.257  24.600  0.00  0.00     0.084 H 
ENDBRANCH  58  61
ENDBRANCH  57  58
ENDBRANCH  55  57
ENDBRANCH  52  55
ENDBRANCH  49  52
ENDBRANCH  47  49
BRANCH  47  72
ATOM     72  C24 non d ame     -33.317  12.183  28.182  0.00  0.00    -0.039 C 
ATOM     73  H35 non d ame     -33.102  13.228  28.407  0.00  0.00     0.036 H 
ATOM     74  H36 non d ame     -34.350  11.849  28.079  0.00  0.00     0.036 H 
BRANCH  72  75
ATOM     75  C25 non d ame     -32.649  11.303  29.342  0.00  0.00    -0.001 C 
ATOM     76  C26 non d ame     -33.596   9.999  29.671  0.00  0.00    -0.035 C 
ATOM     77  C27 non d ame     -33.819   9.947  31.006  0.00  0.00     0.085 C 
ATOM     78  H38 non d ame     -34.591  10.144  29.251  0.00  0.00     0.036 H 
ATOM     79  H39 non d ame     -33.048   9.078  29.468  0.00  0.00     0.036 H 
ATOM     80  N5  non d ame     -33.386  11.276  31.578  0.00  0.00    -0.049 N 
ATOM     81  H40 non d ame     -34.899   9.846  31.116  0.00  0.00     0.075 H 
ATOM     82  H41 non d ame     -33.159   9.166  31.381  0.00  0.00     0.075 H 
ATOM     83  C28 non d ame     -32.508  11.989  30.427  0.00  0.00     0.193 C 
ATOM     84  H42 non d ame     -34.229  11.814  31.719  0.00  0.00     0.280 HD
ATOM     85  H43 non d ame     -32.783  11.066  32.360  0.00  0.00     0.280 HD
ATOM     86  H44 non d ame     -31.421  12.021  30.500  0.00  0.00     0.129 H 
ATOM     87  H37 non d ame     -31.592  11.115  29.160  0.00  0.00     0.046 H 
BRANCH  83  88
ATOM     88  O6  non d ame     -32.920  13.347  30.263  0.00  0.00    -0.369 OA
ATOM     89  H45 non d ame     -33.801  13.371  29.881  0.00  0.00     0.212 HD
ENDBRANCH  83  88
ENDBRANCH  72  75
ENDBRANCH  47  72
ENDBRANCH  45  47
ENDBRANCH   1  43
BRANCH   1  90
ATOM     90  C16 non d ame     -32.920   7.627  24.260  0.00  0.00    -0.035 C 
ATOM     91  H21 non d ame     -33.242   6.589  24.334  0.00  0.00     0.037 H 
ATOM     92  H22 non d ame     -33.577   8.371  23.811  0.00  0.00     0.037 H 
BRANCH  90  93
ATOM     93  C17 non d ame     -31.611   7.622  23.407  0.00  0.00    -0.059 C 
ATOM     94  H23 non d ame     -30.769   7.713  24.094  0.00  0.00     0.038 H 
BRANCH  93  95
ATOM     95  C18 non d ame     -31.432   6.291  22.610  0.00  0.00    -0.073 C 
ATOM     96  H24 non d ame     -31.780   6.430  21.586  0.00  0.00     0.028 H 
ATOM     97  H25 non d ame     -30.378   6.013  22.599  0.00  0.00     0.028 H 
ATOM     98  H26 non d ame     -32.012   5.500  23.086  0.00  0.00     0.028 H 
ENDBRANCH  93  95
BRANCH  93  99
ATOM     99  C19 non d ame     -31.566   8.830  22.467  0.00  0.00    -0.073 C 
ATOM    100  H27 non d ame     -31.480   9.744  23.056  0.00  0.00     0.028 H 
ATOM    101  H28 non d ame     -30.705   8.743  21.805  0.00  0.00     0.028 H 
ATOM    102  H29 non d ame     -32.479   8.863  21.874  0.00  0.00     0.028 H 
ENDBRANCH  93  99
ENDBRANCH  90  93
ENDBRANCH   1  90
TORSDOF 26
ENDMDL
MODEL 12
REMARK VINA RESULT:      -6.3      2.450      4.706
REMARK  26 active torsions:
REMARK  status: ('A' for Active; 'I' for Inactive)
REMARK    1  A    between atoms: C2_2  and  C3_3 
REMARK    2  A    between atoms: C4_6  and  C5_7 
REMARK       I    between atoms: C5_7  and  N2_9 
REMARK    3  A    between atoms: N2_9  and  C6_10 
REMARK    4  A    between atoms: C6_10  and  C7_11 
REMARK    5  A    between atoms: C6_10  and  C8_13 
REMARK       I    between atoms: C7_11  and  N3_14 
REMARK    6  A    between atoms: N3_14  and  C9_15 
REMARK    7  A    between atoms: C9_15  and  C10_16 
REMARK    8  A    between atoms: C9_15  and  C11_18 
REMARK       I    between atoms: C10_16  and  N4_21 
REMARK    9  A    between atoms: C11_18  and  C12_19 
REMARK   10  A    between atoms: C11_18  and  C13_20 
REMARK   11  A    between atoms: N4_21  and  C14_22 
REMARK   12  A    between atoms: C14_22  and  C15_23 
REMARK   13  A    between atoms: C14_22  and  C16_25 
REMARK       I    between atoms: C15_23  and  N6_40 
REMARK   14  A    between atoms: C16_25  and  C17_26 
REMARK   15  A    between atoms: C17_26  and  C18_27 
REMARK   16  A    between atoms: C17_26  and  C19_28 
REMARK   17  A    between atoms: C20_29  and  C21_30 
REMARK   18  A    between atoms: C20_29  and  C24_33 
REMARK   19  A    between atoms: C20_29  and  N6_40 
REMARK   20  A    between atoms: C21_30  and  C22_31 
REMARK   21  A    between atoms: C22_31  and  C23_32 
REMARK   22  A    between atoms: C23_32  and  O8_43 
REMARK   23  A    between atoms: C24_33  and  C25_34 
REMARK   24  A    between atoms: C28_38  and  O6_39 
REMARK   25  A    between atoms: C29_42  and  O8_43 
REMARK   26  A    between atoms: C29_42  and  C35_49 
ROOT
ATOM      1  C14 non d ame     -32.220   9.081  24.512  0.00  0.00     0.089 C 
ATOM      2  H20 non d ame     -31.279   8.714  24.100  0.00  0.00     0.087 H 
ENDROOT
BRANCH   1   3
ATOM      3  N4  non d ame     -32.800   8.007  25.305  0.00  0.00    -0.346 N 
ATOM      4  C10 non d ame     -32.274   6.600  25.182  0.00  0.00     0.241 C 
ATOM      5  O4  non d ame     -31.384   6.354  24.436  0.00  0.00    -0.271 OA
ATOM      6  H19 non d ame     -33.558   8.237  25.931  0.00  0.00     0.163 HD
BRANCH   4   7
ATOM      7  C9  non d ame     -32.883   5.501  26.014  0.00  0.00     0.092 C 
ATOM      8  H11 non d ame     -32.113   5.064  26.648  0.00  0.00     0.088 H 
BRANCH   7   9
ATOM      9  N3  non d ame     -33.905   6.068  26.900  0.00  0.00    -0.346 N 
ATOM     10  C7  non d ame     -33.901   5.742  28.304  0.00  0.00     0.240 C 
ATOM     11  O3  non d ame     -33.084   5.026  28.739  0.00  0.00    -0.271 OA
ATOM     12  H10 non d ame     -34.617   6.686  26.538  0.00  0.00     0.163 HD
BRANCH  10  13
ATOM     13  C6  non d ame     -34.992   6.346  29.242  0.00  0.00     0.086 C 
ATOM     14  H6  non d ame     -35.314   5.650  30.017  0.00  0.00     0.086 H 
BRANCH  13  15
ATOM     15  N2  non d ame     -34.440   7.503  29.925  0.00  0.00    -0.343 N 
ATOM     16  C5  non d ame     -34.067   8.688  29.151  0.00  0.00     0.273 C 
ATOM     17  O2  non d ame     -34.211   8.700  27.978  0.00  0.00    -0.266 OA
ATOM     18  H5  non d ame     -34.317   7.483  30.928  0.00  0.00     0.163 HD
BRANCH  16  19
ATOM     19  C4  non d ame     -33.482   9.920  29.862  0.00  0.00     0.154 A 
ATOM     20  C1  non d ame     -32.667  10.944  29.285  0.00  0.00    -0.017 A 
ATOM     21  C2  non d ame     -32.398  11.835  30.348  0.00  0.00     0.077 A 
ATOM     22  H1  non d ame     -32.324  11.029  28.254  0.00  0.00     0.091 H 
ATOM     23  O1  non d ame     -32.995  11.369  31.406  0.00  0.00    -0.218 OA
ATOM     24  N1  non d ame     -33.634  10.251  31.146  0.00  0.00    -0.123 NA
BRANCH  21  25
ATOM     25  C3  non d ame     -31.566  13.108  30.270  0.00  0.00    -0.029 C 
ATOM     26  H2  non d ame     -32.147  13.947  30.651  0.00  0.00     0.036 H 
ATOM     27  H3  non d ame     -30.664  12.990  30.871  0.00  0.00     0.036 H 
ATOM     28  H4  non d ame     -31.289  13.298  29.233  0.00  0.00     0.036 H 
ENDBRANCH  21  25
ENDBRANCH  16  19
ENDBRANCH  13  15
BRANCH  13  29
ATOM     29  C8  non d ame     -36.192   6.752  28.424  0.00  0.00    -0.049 C 
ATOM     30  H7  non d ame     -36.407   7.806  28.593  0.00  0.00     0.030 H 
ATOM     31  H8  non d ame     -35.984   6.589  27.367  0.00  0.00     0.030 H 
ATOM     32  H9  non d ame     -37.054   6.153  28.722  0.00  0.00     0.030 H 
ENDBRANCH  13  29
ENDBRANCH  10  13
ENDBRANCH   7   9
BRANCH   7  33
ATOM     33  C11 non d ame     -33.541   4.446  25.077  0.00  0.00    -0.033 C 
ATOM     34  H12 non d ame     -32.875   4.300  24.227  0.00  0.00     0.042 H 
BRANCH  33  35
ATOM     35  C12 non d ame     -33.695   3.069  25.794  0.00  0.00    -0.071 C 
ATOM     36  H13 non d ame     -32.755   2.520  25.733  0.00  0.00     0.028 H 
ATOM     37  H14 non d ame     -33.956   3.230  26.839  0.00  0.00     0.028 H 
ATOM     38  H15 non d ame     -34.482   2.492  25.307  0.00  0.00     0.028 H 
ENDBRANCH  33  35
BRANCH  33  39
ATOM     39  C13 non d ame     -34.912   4.959  24.533  0.00  0.00    -0.071 C 
ATOM     40  H16 non d ame     -35.001   4.709  23.475  0.00  0.00     0.028 H 
ATOM     41  H17 non d ame     -35.724   4.487  25.088  0.00  0.00     0.028 H 
ATOM     42  H18 non d ame     -34.971   6.040  24.656  0.00  0.00     0.028 H 
ENDBRANCH  33  39
ENDBRANCH   7  33
ENDBRANCH   4   7
ENDBRANCH   1   3
BRANCH   1  43
ATOM     43  C15 non d ame     -32.014  10.320  25.430  0.00  0.00     0.240 C 
ATOM     44  O5  non d ame     -31.439  10.200  26.463  0.00  0.00    -0.271 OA
ATOM     45  N6  non d ame     -32.526  11.657  25.018  0.00  0.00    -0.355 N 
ATOM     46  H46 non d ame     -33.013  11.772  24.140  0.00  0.00     0.162 HD
BRANCH  45  47
ATOM     47  C20 non d ame     -32.322  12.825  25.902  0.00  0.00     0.013 C 
ATOM     48  H30 non d ame     -32.214  12.457  26.922  0.00  0.00     0.072 H 
BRANCH  47  49
ATOM     49  C21 non d ame     -33.520  13.741  25.806  0.00  0.00    -0.038 C 
ATOM     50  H31 non d ame     -33.221  14.549  25.138  0.00  0.00     0.036 H 
ATOM     51  H32 non d ame     -34.361  13.099  25.542  0.00  0.00     0.036 H 
BRANCH  49  52
ATOM     52  C22 non d ame     -33.881  14.400  27.155  0.00  0.00     0.018 C 
ATOM     53  H33 non d ame     -34.942  14.636  27.094  0.00  0.00     0.048 H 
ATOM     54  H34 non d ame     -33.517  13.717  27.923  0.00  0.00     0.048 H 
BRANCH  52  55
ATOM     55  C23 non d ame     -33.155  15.751  27.406  0.00  0.00     0.259 C 
ATOM     56  O7  non d ame     -32.498  15.910  28.383  0.00  0.00    -0.265 OA
BRANCH  55  57
ATOM     57  O8  non d ame     -33.296  16.804  26.459  0.00  0.00    -0.317 OA
BRANCH  57  58
ATOM     58  C29 non d ame     -34.033  17.929  26.945  0.00  0.00     0.052 C 
ATOM     59  H47 non d ame     -34.428  17.627  27.914  0.00  0.00     0.082 H 
ATOM     60  H48 non d ame     -33.356  18.780  26.872  0.00  0.00     0.082 H 
BRANCH  58  61
ATOM     61  C35 non d ame     -35.227  18.171  25.982  0.00  0.00    -0.034 A 
ATOM     62  C30 non d ame     -35.563  19.466  25.601  0.00  0.00    -0.075 A 
ATOM     63  C31 non d ame     -36.635  19.683  24.736  0.00  0.00    -0.082 A 
ATOM     64  H49 non d ame     -34.987  20.311  25.979  0.00  0.00     0.084 H 
ATOM     65  C32 non d ame     -37.373  18.599  24.254  0.00  0.00    -0.083 A 
ATOM     66  H50 non d ame     -36.895  20.700  24.438  0.00  0.00     0.083 H 
ATOM     67  C33 non d ame     -37.037  17.309  24.640  0.00  0.00    -0.082 A 
ATOM     68  H51 non d ame     -38.213  18.761  23.577  0.00  0.00     0.083 H 
ATOM     69  C34 non d ame     -35.965  17.087  25.503  0.00  0.00    -0.075 A 
ATOM     70  H52 non d ame     -37.617  16.465  24.264  0.00  0.00     0.083 H 
ATOM     71  H53 non d ame     -35.705  16.071  25.800  0.00  0.00     0.084 H 
ENDBRANCH  58  61
ENDBRANCH  57  58
ENDBRANCH  55  57
ENDBRANCH  52  55
ENDBRANCH  49  52
ENDBRANCH  47  49
BRANCH  47  72
ATOM     72  C24 non d ame     -31.065  13.581  25.475  0.00  0.00    -0.039 C 
ATOM     73  H35 non d ame     -31.023  14.459  26.121  0.00  0.00     0.036 H 
ATOM     74  H36 non d ame     -30.261  12.846  25.502  0.00  0.00     0.036 H 
BRANCH  72  75
ATOM     75  C25 non d ame     -31.174  14.109  23.967  0.00  0.00    -0.001 C 
ATOM     76  C26 non d ame     -30.122  13.285  23.009  0.00  0.00    -0.035 C 
ATOM     77  C27 non d ame     -29.379  14.175  22.308  0.00  0.00     0.085 C 
ATOM     78  H38 non d ame     -29.386  12.765  23.622  0.00  0.00     0.036 H 
ATOM     79  H39 non d ame     -30.667  12.743  22.235  0.00  0.00     0.036 H 
ATOM     80  N5  non d ame     -29.601  15.528  22.941  0.00  0.00    -0.049 N 
ATOM     81  H40 non d ame     -28.343  13.875  22.463  0.00  0.00     0.075 H 
ATOM     82  H41 non d ame     -29.801  14.180  21.304  0.00  0.00     0.075 H 
ATOM     83  C28 non d ame     -30.896  15.368  23.891  0.00  0.00     0.193 C 
ATOM     84  H42 non d ame     -28.796  15.707  23.523  0.00  0.00     0.280 HD
ATOM     85  H43 non d ame     -29.830  16.161  22.188  0.00  0.00     0.280 HD
ATOM     86  H44 non d ame     -31.863  15.765  23.580  0.00  0.00     0.129 H 
ATOM     87  H37 non d ame     -32.207  14.176  23.627  0.00  0.00     0.046 H 
BRANCH  83  88
ATOM     88  O6  non d ame     -30.641  15.942  25.174  0.00  0.00    -0.369 OA
ATOM     89  H45 non d ame     -31.400  16.463  25.448  0.00  0.00     0.212 HD
ENDBRANCH  83  88
ENDBRANCH  72  75
ENDBRANCH  47  72
ENDBRANCH  45  47
ENDBRANCH   1  43
BRANCH   1  90
ATOM     90  C16 non d ame     -33.173   9.435  23.382  0.00  0.00    -0.035 C 
ATOM     91  H21 non d ame     -34.089   9.764  23.870  0.00  0.00     0.037 H 
ATOM     92  H22 non d ame     -32.619  10.122  22.742  0.00  0.00     0.037 H 
BRANCH  90  93
ATOM     93  C17 non d ame     -33.564   8.216  22.487  0.00  0.00    -0.059 C 
ATOM     94  H23 non d ame     -33.622   7.339  23.131  0.00  0.00     0.038 H 
BRANCH  93  95
ATOM     95  C18 non d ame     -34.959   8.403  21.811  0.00  0.00    -0.073 C 
ATOM     96  H24 non d ame     -35.732   7.963  22.442  0.00  0.00     0.028 H 
ATOM     97  H25 non d ame     -35.160   9.467  21.682  0.00  0.00     0.028 H 
ATOM     98  H26 non d ame     -34.961   7.913  20.838  0.00  0.00     0.028 H 
ENDBRANCH  93  95
BRANCH  93  99
ATOM     99  C19 non d ame     -32.484   7.939  21.438  0.00  0.00    -0.073 C 
ATOM    100  H27 non d ame     -32.957   7.688  20.487  0.00  0.00     0.028 H 
ATOM    101  H28 non d ame     -31.863   8.826  21.311  0.00  0.00     0.028 H 
ATOM    102  H29 non d ame     -31.863   7.105  21.766  0.00  0.00     0.028 H 
ENDBRANCH  93  99
ENDBRANCH  90  93
ENDBRANCH   1  90
TORSDOF 26
ENDMDL
MODEL 13
REMARK VINA RESULT:      -6.2      3.246     10.042
REMARK  26 active torsions:
REMARK  status: ('A' for Active; 'I' for Inactive)
REMARK    1  A    between atoms: C2_2  and  C3_3 
REMARK    2  A    between atoms: C4_6  and  C5_7 
REMARK       I    between atoms: C5_7  and  N2_9 
REMARK    3  A    between atoms: N2_9  and  C6_10 
REMARK    4  A    between atoms: C6_10  and  C7_11 
REMARK    5  A    between atoms: C6_10  and  C8_13 
REMARK       I    between atoms: C7_11  and  N3_14 
REMARK    6  A    between atoms: N3_14  and  C9_15 
REMARK    7  A    between atoms: C9_15  and  C10_16 
REMARK    8  A    between atoms: C9_15  and  C11_18 
REMARK       I    between atoms: C10_16  and  N4_21 
REMARK    9  A    between atoms: C11_18  and  C12_19 
REMARK   10  A    between atoms: C11_18  and  C13_20 
REMARK   11  A    between atoms: N4_21  and  C14_22 
REMARK   12  A    between atoms: C14_22  and  C15_23 
REMARK   13  A    between atoms: C14_22  and  C16_25 
REMARK       I    between atoms: C15_23  and  N6_40 
REMARK   14  A    between atoms: C16_25  and  C17_26 
REMARK   15  A    between atoms: C17_26  and  C18_27 
REMARK   16  A    between atoms: C17_26  and  C19_28 
REMARK   17  A    between atoms: C20_29  and  C21_30 
REMARK   18  A    between atoms: C20_29  and  C24_33 
REMARK   19  A    between atoms: C20_29  and  N6_40 
REMARK   20  A    between atoms: C21_30  and  C22_31 
REMARK   21  A    between atoms: C22_31  and  C23_32 
REMARK   22  A    between atoms: C23_32  and  O8_43 
REMARK   23  A    between atoms: C24_33  and  C25_34 
REMARK   24  A    between atoms: C28_38  and  O6_39 
REMARK   25  A    between atoms: C29_42  and  O8_43 
REMARK   26  A    between atoms: C29_42  and  C35_49 
ROOT
ATOM      1  C14 non d ame     -37.343  12.904  26.066  0.00  0.00     0.089 C 
ATOM      2  H20 non d ame     -38.427  13.018  26.029  0.00  0.00     0.087 H 
ENDROOT
BRANCH   1   3
ATOM      3  N4  non d ame     -36.768  14.232  26.216  0.00  0.00    -0.346 N 
ATOM      4  C10 non d ame     -37.627  15.389  26.656  0.00  0.00     0.241 C 
ATOM      5  O4  non d ame     -38.781  15.229  26.882  0.00  0.00    -0.271 OA
ATOM      6  H19 non d ame     -35.785  14.348  26.015  0.00  0.00     0.163 HD
BRANCH   4   7
ATOM      7  C9  non d ame     -37.014  16.757  26.810  0.00  0.00     0.092 C 
ATOM      8  H11 non d ame     -37.271  17.156  27.791  0.00  0.00     0.088 H 
BRANCH   7   9
ATOM      9  N3  non d ame     -35.553  16.646  26.756  0.00  0.00    -0.346 N 
ATOM     10  C7  non d ame     -34.745  17.270  27.774  0.00  0.00     0.240 C 
ATOM     11  O3  non d ame     -35.253  17.864  28.645  0.00  0.00    -0.271 OA
ATOM     12  H10 non d ame     -35.101  16.138  26.009  0.00  0.00     0.163 HD
BRANCH  10  13
ATOM     13  C6  non d ame     -33.191  17.152  27.709  0.00  0.00     0.086 C 
ATOM     14  H6  non d ame     -32.806  16.317  28.294  0.00  0.00     0.086 H 
BRANCH  13  15
ATOM     15  N2  non d ame     -32.793  16.912  26.332  0.00  0.00    -0.343 N 
ATOM     16  C5  non d ame     -31.854  15.830  26.030  0.00  0.00     0.273 C 
ATOM     17  O2  non d ame     -31.420  15.160  26.903  0.00  0.00    -0.266 OA
ATOM     18  H5  non d ame     -33.166  17.491  25.593  0.00  0.00     0.163 HD
BRANCH  16  19
ATOM     19  C4  non d ame     -31.425  15.564  24.578  0.00  0.00     0.154 A 
ATOM     20  C1  non d ame     -30.641  14.470  24.094  0.00  0.00    -0.017 A 
ATOM     21  C2  non d ame     -30.532  14.689  22.703  0.00  0.00     0.077 A 
ATOM     22  H1  non d ame     -30.217  13.644  24.665  0.00  0.00     0.091 H 
ATOM     23  O1  non d ame     -31.182  15.781  22.430  0.00  0.00    -0.218 OA
ATOM     24  N1  non d ame     -31.712  16.311  23.508  0.00  0.00    -0.123 NA
BRANCH  21  25
ATOM     25  C3  non d ame     -29.792  13.806  21.707  0.00  0.00    -0.029 C 
ATOM     26  H2  non d ame     -29.410  14.420  20.892  0.00  0.00     0.036 H 
ATOM     27  H3  non d ame     -28.959  13.312  22.208  0.00  0.00     0.036 H 
ATOM     28  H4  non d ame     -30.474  13.056  21.308  0.00  0.00     0.036 H 
ENDBRANCH  21  25
ENDBRANCH  16  19
ENDBRANCH  13  15
BRANCH  13  29
ATOM     29  C8  non d ame     -32.566  18.428  28.212  0.00  0.00    -0.049 C 
ATOM     30  H7  non d ame     -33.339  19.183  28.349  0.00  0.00     0.030 H 
ATOM     31  H8  non d ame     -32.070  18.240  29.164  0.00  0.00     0.030 H 
ATOM     32  H9  non d ame     -31.834  18.786  27.486  0.00  0.00     0.030 H 
ENDBRANCH  13  29
ENDBRANCH  10  13
ENDBRANCH   7   9
BRANCH   7  33
ATOM     33  C11 non d ame     -37.506  17.678  25.655  0.00  0.00    -0.033 C 
ATOM     34  H12 non d ame     -38.595  17.690  25.685  0.00  0.00     0.042 H 
BRANCH  33  35
ATOM     35  C12 non d ame     -37.016  19.147  25.854  0.00  0.00    -0.071 C 
ATOM     36  H13 non d ame     -36.019  19.141  26.296  0.00  0.00     0.028 H 
ATOM     37  H14 non d ame     -36.983  19.652  24.889  0.00  0.00     0.028 H 
ATOM     38  H15 non d ame     -37.702  19.672  26.517  0.00  0.00     0.028 H 
ENDBRANCH  33  35
BRANCH  33  39
ATOM     39  C13 non d ame     -37.065  17.116  24.266  0.00  0.00    -0.071 C 
ATOM     40  H16 non d ame     -36.632  17.919  23.670  0.00  0.00     0.028 H 
ATOM     41  H17 non d ame     -36.325  16.329  24.410  0.00  0.00     0.028 H 
ATOM     42  H18 non d ame     -37.933  16.707  23.748  0.00  0.00     0.028 H 
ENDBRANCH  33  39
ENDBRANCH   7  33
ENDBRANCH   4   7
ENDBRANCH   1   3
BRANCH   1  43
ATOM     43  C15 non d ame     -36.886  12.027  27.267  0.00  0.00     0.240 C 
ATOM     44  O5  non d ame     -37.659  11.754  28.128  0.00  0.00    -0.271 OA
ATOM     45  N6  non d ame     -35.486  11.520  27.341  0.00  0.00    -0.355 N 
ATOM     46  H46 non d ame     -34.822  11.741  26.613  0.00  0.00     0.162 HD
BRANCH  45  47
ATOM     47  C20 non d ame     -35.068  10.687  28.489  0.00  0.00     0.013 C 
ATOM     48  H30 non d ame     -35.740  10.902  29.320  0.00  0.00     0.072 H 
BRANCH  47  49
ATOM     49  C21 non d ame     -33.647  11.037  28.869  0.00  0.00    -0.038 C 
ATOM     50  H31 non d ame     -33.710  11.487  29.860  0.00  0.00     0.036 H 
ATOM     51  H32 non d ame     -33.070  10.123  28.721  0.00  0.00     0.036 H 
BRANCH  49  52
ATOM     52  C22 non d ame     -33.024  12.103  27.942  0.00  0.00     0.018 C 
ATOM     53  H33 non d ame     -33.532  11.995  26.985  0.00  0.00     0.048 H 
ATOM     54  H34 non d ame     -33.086  13.043  28.490  0.00  0.00     0.048 H 
BRANCH  52  55
ATOM     55  C23 non d ame     -31.514  11.875  27.653  0.00  0.00     0.259 C 
ATOM     56  O7  non d ame     -30.692  12.213  28.442  0.00  0.00    -0.265 OA
BRANCH  55  57
ATOM     57  O8  non d ame     -31.122  11.269  26.427  0.00  0.00    -0.317 OA
BRANCH  57  58
ATOM     58  C29 non d ame     -32.182  11.146  25.473  0.00  0.00     0.052 C 
ATOM     59  H47 non d ame     -32.936  10.520  25.949  0.00  0.00     0.082 H 
ATOM     60  H48 non d ame     -32.428  12.164  25.173  0.00  0.00     0.082 H 
BRANCH  58  61
ATOM     61  C35 non d ame     -31.626  10.392  24.235  0.00  0.00    -0.034 A 
ATOM     62  C30 non d ame     -32.429   9.480  23.558  0.00  0.00    -0.075 A 
ATOM     63  C31 non d ame     -31.930   8.802  22.446  0.00  0.00    -0.082 A 
ATOM     64  H49 non d ame     -33.449   9.295  23.897  0.00  0.00     0.084 H 
ATOM     65  C32 non d ame     -30.622   9.037  22.014  0.00  0.00    -0.083 A 
ATOM     66  H50 non d ame     -32.563   8.089  21.916  0.00  0.00     0.083 H 
ATOM     67  C33 non d ame     -29.824   9.945  22.696  0.00  0.00    -0.082 A 
ATOM     68  H51 non d ame     -30.225   8.512  21.145  0.00  0.00     0.083 H 
ATOM     69  C34 non d ame     -30.319  10.626  23.806  0.00  0.00    -0.075 A 
ATOM     70  H52 non d ame     -28.802  10.125  22.358  0.00  0.00     0.083 H 
ATOM     71  H53 non d ame     -29.686  11.339  24.335  0.00  0.00     0.084 H 
ENDBRANCH  58  61
ENDBRANCH  57  58
ENDBRANCH  55  57
ENDBRANCH  52  55
ENDBRANCH  49  52
ENDBRANCH  47  49
BRANCH  47  72
ATOM     72  C24 non d ame     -35.147   9.209  28.111  0.00  0.00    -0.039 C 
ATOM     73  H35 non d ame     -35.823   9.165  27.256  0.00  0.00     0.036 H 
ATOM     74  H36 non d ame     -34.113   8.881  28.006  0.00  0.00     0.036 H 
BRANCH  72  75
ATOM     75  C25 non d ame     -35.805   8.333  29.279  0.00  0.00    -0.001 C 
ATOM     76  C26 non d ame     -36.060   9.270  30.606  0.00  0.00    -0.035 C 
ATOM     77  C27 non d ame     -35.520   8.654  31.686  0.00  0.00     0.085 C 
ATOM     78  H38 non d ame     -35.488  10.194  30.528  0.00  0.00     0.036 H 
ATOM     79  H39 non d ame     -37.124   9.306  30.840  0.00  0.00     0.036 H 
ATOM     80  N5  non d ame     -34.637   7.545  31.165  0.00  0.00    -0.049 N 
ATOM     81  H40 non d ame     -34.898   9.408  32.169  0.00  0.00     0.075 H 
ATOM     82  H41 non d ame     -36.361   8.216  32.222  0.00  0.00     0.075 H 
ATOM     83  C28 non d ame     -35.038   7.350  29.614  0.00  0.00     0.193 C 
ATOM     84  H42 non d ame     -33.689   7.890  31.211  0.00  0.00     0.280 HD
ATOM     85  H43 non d ame     -34.897   6.712  31.673  0.00  0.00     0.280 HD
ATOM     86  H44 non d ame     -35.653   6.504  29.304  0.00  0.00     0.129 H 
ATOM     87  H37 non d ame     -36.645   7.736  28.925  0.00  0.00     0.046 H 
BRANCH  83  88
ATOM     88  O6  non d ame     -33.862   7.284  28.805  0.00  0.00    -0.369 OA
ATOM     89  H45 non d ame     -34.051   7.644  27.935  0.00  0.00     0.212 HD
ENDBRANCH  83  88
ENDBRANCH  72  75
ENDBRANCH  47  72
ENDBRANCH  45  47
ENDBRANCH   1  43
BRANCH   1  90
ATOM     90  C16 non d ame     -36.846  12.290  24.767  0.00  0.00    -0.035 C 
ATOM     91  H21 non d ame     -36.077  12.970  24.402  0.00  0.00     0.037 H 
ATOM     92  H22 non d ame     -36.590  11.259  25.015  0.00  0.00     0.037 H 
BRANCH  90  93
ATOM     93  C17 non d ame     -37.936  12.218  23.651  0.00  0.00    -0.059 C 
ATOM     94  H23 non d ame     -38.910  12.295  24.135  0.00  0.00     0.038 H 
BRANCH  93  95
ATOM     95  C18 non d ame     -37.816  13.396  22.633  0.00  0.00    -0.073 C 
ATOM     96  H24 non d ame     -37.202  14.188  23.063  0.00  0.00     0.028 H 
ATOM     97  H25 non d ame     -37.352  13.037  21.714  0.00  0.00     0.028 H 
ATOM     98  H26 non d ame     -38.809  13.786  22.410  0.00  0.00     0.028 H 
ENDBRANCH  93  95
BRANCH  93  99
ATOM     99  C19 non d ame     -37.892  10.868  22.929  0.00  0.00    -0.073 C 
ATOM    100  H27 non d ame     -38.907  10.488  22.807  0.00  0.00     0.028 H 
ATOM    101  H28 non d ame     -37.432  10.995  21.948  0.00  0.00     0.028 H 
ATOM    102  H29 non d ame     -37.306  10.161  23.516  0.00  0.00     0.028 H 
ENDBRANCH  93  99
ENDBRANCH  90  93
ENDBRANCH   1  90
TORSDOF 26
ENDMDL
MODEL 14
REMARK VINA RESULT:      -6.2      2.693      6.483
REMARK  26 active torsions:
REMARK  status: ('A' for Active; 'I' for Inactive)
REMARK    1  A    between atoms: C2_2  and  C3_3 
REMARK    2  A    between atoms: C4_6  and  C5_7 
REMARK       I    between atoms: C5_7  and  N2_9 
REMARK    3  A    between atoms: N2_9  and  C6_10 
REMARK    4  A    between atoms: C6_10  and  C7_11 
REMARK    5  A    between atoms: C6_10  and  C8_13 
REMARK       I    between atoms: C7_11  and  N3_14 
REMARK    6  A    between atoms: N3_14  and  C9_15 
REMARK    7  A    between atoms: C9_15  and  C10_16 
REMARK    8  A    between atoms: C9_15  and  C11_18 
REMARK       I    between atoms: C10_16  and  N4_21 
REMARK    9  A    between atoms: C11_18  and  C12_19 
REMARK   10  A    between atoms: C11_18  and  C13_20 
REMARK   11  A    between atoms: N4_21  and  C14_22 
REMARK   12  A    between atoms: C14_22  and  C15_23 
REMARK   13  A    between atoms: C14_22  and  C16_25 
REMARK       I    between atoms: C15_23  and  N6_40 
REMARK   14  A    between atoms: C16_25  and  C17_26 
REMARK   15  A    between atoms: C17_26  and  C18_27 
REMARK   16  A    between atoms: C17_26  and  C19_28 
REMARK   17  A    between atoms: C20_29  and  C21_30 
REMARK   18  A    between atoms: C20_29  and  C24_33 
REMARK   19  A    between atoms: C20_29  and  N6_40 
REMARK   20  A    between atoms: C21_30  and  C22_31 
REMARK   21  A    between atoms: C22_31  and  C23_32 
REMARK   22  A    between atoms: C23_32  and  O8_43 
REMARK   23  A    between atoms: C24_33  and  C25_34 
REMARK   24  A    between atoms: C28_38  and  O6_39 
REMARK   25  A    between atoms: C29_42  and  O8_43 
REMARK   26  A    between atoms: C29_42  and  C35_49 
ROOT
ATOM      1  C14 non d ame     -35.052   8.685  29.925  0.00  0.00     0.089 C 
ATOM      2  H20 non d ame     -35.904   9.355  29.813  0.00  0.00     0.087 H 
ENDROOT
BRANCH   1   3
ATOM      3  N4  non d ame     -35.433   7.394  29.372  0.00  0.00    -0.346 N 
ATOM      4  C10 non d ame     -36.646   7.273  28.486  0.00  0.00     0.241 C 
ATOM      5  O4  non d ame     -37.303   8.229  28.232  0.00  0.00    -0.271 OA
ATOM      6  H19 non d ame     -34.863   6.592  29.602  0.00  0.00     0.163 HD
BRANCH   4   7
ATOM      7  C9  non d ame     -37.024   5.930  27.918  0.00  0.00     0.092 C 
ATOM      8  H11 non d ame     -37.743   6.071  27.112  0.00  0.00     0.088 H 
BRANCH   7   9
ATOM      9  N3  non d ame     -35.838   5.294  27.335  0.00  0.00    -0.346 N 
ATOM     10  C7  non d ame     -35.605   5.371  25.914  0.00  0.00     0.240 C 
ATOM     11  O3  non d ame     -36.362   5.939  25.225  0.00  0.00    -0.271 OA
ATOM     12  H10 non d ame     -35.178   4.799  27.917  0.00  0.00     0.163 HD
BRANCH  10  13
ATOM     13  C6  non d ame     -34.344   4.690  25.299  0.00  0.00     0.086 C 
ATOM     14  H6  non d ame     -34.579   4.072  24.433  0.00  0.00     0.086 H 
BRANCH  13  15
ATOM     15  N2  non d ame     -33.429   5.721  24.838  0.00  0.00    -0.343 N 
ATOM     16  C5  non d ame     -33.033   5.757  23.429  0.00  0.00     0.273 C 
ATOM     17  O2  non d ame     -33.453   4.950  22.674  0.00  0.00    -0.266 OA
ATOM     18  H5  non d ame     -33.072   6.404  25.491  0.00  0.00     0.163 HD
BRANCH  16  19
ATOM     19  C4  non d ame     -32.066   6.842  22.928  0.00  0.00     0.154 A 
ATOM     20  C1  non d ame     -30.651   6.900  23.133  0.00  0.00    -0.017 A 
ATOM     21  C2  non d ame     -30.239   8.083  22.479  0.00  0.00     0.077 A 
ATOM     22  H1  non d ame     -30.021   6.193  23.672  0.00  0.00     0.091 H 
ATOM     23  O1  non d ame     -31.299   8.630  21.962  0.00  0.00    -0.218 OA
ATOM     24  N1  non d ame     -32.378   7.925  22.211  0.00  0.00    -0.123 NA
BRANCH  21  25
ATOM     25  C3  non d ame     -28.815   8.616  22.393  0.00  0.00    -0.029 C 
ATOM     26  H2  non d ame     -28.833   9.705  22.410  0.00  0.00     0.036 H 
ATOM     27  H3  non d ame     -28.238   8.251  23.244  0.00  0.00     0.036 H 
ATOM     28  H4  non d ame     -28.353   8.274  21.468  0.00  0.00     0.036 H 
ENDBRANCH  21  25
ENDBRANCH  16  19
ENDBRANCH  13  15
BRANCH  13  29
ATOM     29  C8  non d ame     -33.674   3.832  26.341  0.00  0.00    -0.049 C 
ATOM     30  H7  non d ame     -34.413   3.183  26.809  0.00  0.00     0.030 H 
ATOM     31  H8  non d ame     -32.903   3.222  25.870  0.00  0.00     0.030 H 
ATOM     32  H9  non d ame     -33.219   4.470  27.100  0.00  0.00     0.030 H 
ENDBRANCH  13  29
ENDBRANCH  10  13
ENDBRANCH   7   9
BRANCH   7  33
ATOM     33  C11 non d ame     -37.587   5.027  29.055  0.00  0.00    -0.033 C 
ATOM     34  H12 non d ame     -36.752   4.460  29.468  0.00  0.00     0.042 H 
BRANCH  33  35
ATOM     35  C12 non d ame     -38.191   5.882  30.212  0.00  0.00    -0.071 C 
ATOM     36  H13 non d ame     -39.259   6.022  30.041  0.00  0.00     0.028 H 
ATOM     37  H14 non d ame     -38.040   5.369  31.161  0.00  0.00     0.028 H 
ATOM     38  H15 non d ame     -37.699   6.854  30.241  0.00  0.00     0.028 H 
ENDBRANCH  33  35
BRANCH  33  39
ATOM     39  C13 non d ame     -38.632   4.010  28.496  0.00  0.00    -0.071 C 
ATOM     40  H16 non d ame     -39.632   4.436  28.573  0.00  0.00     0.028 H 
ATOM     41  H17 non d ame     -38.407   3.794  27.451  0.00  0.00     0.028 H 
ATOM     42  H18 non d ame     -38.586   3.086  29.074  0.00  0.00     0.028 H 
ENDBRANCH  33  39
ENDBRANCH   7  33
ENDBRANCH   4   7
ENDBRANCH   1   3
BRANCH   1  43
ATOM     43  C15 non d ame     -33.797   9.199  29.162  0.00  0.00     0.240 C 
ATOM     44  O5  non d ame     -33.242   8.487  28.390  0.00  0.00    -0.271 OA
ATOM     45  N6  non d ame     -33.294  10.584  29.386  0.00  0.00    -0.355 N 
ATOM     46  H46 non d ame     -33.760  11.201  30.036  0.00  0.00     0.162 HD
BRANCH  45  47
ATOM     47  C20 non d ame     -32.101  11.058  28.652  0.00  0.00     0.013 C 
ATOM     48  H30 non d ame     -31.387  10.236  28.607  0.00  0.00     0.072 H 
BRANCH  47  49
ATOM     49  C21 non d ame     -31.493  12.231  29.388  0.00  0.00    -0.038 C 
ATOM     50  H31 non d ame     -31.079  11.818  30.309  0.00  0.00     0.036 H 
ATOM     51  H32 non d ame     -30.839  12.723  28.668  0.00  0.00     0.036 H 
BRANCH  49  52
ATOM     52  C22 non d ame     -32.543  13.281  29.812  0.00  0.00     0.018 C 
ATOM     53  H33 non d ame     -33.425  13.078  29.206  0.00  0.00     0.048 H 
ATOM     54  H34 non d ame     -32.601  13.217  30.899  0.00  0.00     0.048 H 
BRANCH  52  55
ATOM     55  C23 non d ame     -32.130  14.744  29.491  0.00  0.00     0.259 C 
ATOM     56  O7  non d ame     -31.081  15.168  29.855  0.00  0.00    -0.265 OA
BRANCH  55  57
ATOM     57  O8  non d ame     -33.027  15.579  28.768  0.00  0.00    -0.317 OA
BRANCH  57  58
ATOM     58  C29 non d ame     -32.608  15.864  27.430  0.00  0.00     0.052 C 
ATOM     59  H47 non d ame     -31.545  15.628  27.398  0.00  0.00     0.082 H 
ATOM     60  H48 non d ame     -33.305  15.333  26.783  0.00  0.00     0.082 H 
BRANCH  58  61
ATOM     61  C35 non d ame     -32.780  17.388  27.190  0.00  0.00    -0.034 A 
ATOM     62  C30 non d ame     -32.565  18.286  28.232  0.00  0.00    -0.075 A 
ATOM     63  C31 non d ame     -32.721  19.654  28.016  0.00  0.00    -0.082 A 
ATOM     64  H49 non d ame     -32.276  17.918  29.216  0.00  0.00     0.084 H 
ATOM     65  C32 non d ame     -33.094  20.124  26.754  0.00  0.00    -0.083 A 
ATOM     66  H50 non d ame     -32.550  20.356  28.834  0.00  0.00     0.083 H 
ATOM     67  C33 non d ame     -33.311  19.224  25.720  0.00  0.00    -0.082 A 
ATOM     68  H51 non d ame     -33.217  21.194  26.577  0.00  0.00     0.083 H 
ATOM     69  C34 non d ame     -33.155  17.856  25.930  0.00  0.00    -0.075 A 
ATOM     70  H52 non d ame     -33.605  19.594  24.736  0.00  0.00     0.083 H 
ATOM     71  H53 non d ame     -33.326  17.156  25.112  0.00  0.00     0.084 H 
ENDBRANCH  58  61
ENDBRANCH  57  58
ENDBRANCH  55  57
ENDBRANCH  52  55
ENDBRANCH  49  52
ENDBRANCH  47  49
BRANCH  47  72
ATOM     72  C24 non d ame     -32.500  11.491  27.243  0.00  0.00    -0.039 C 
ATOM     73  H35 non d ame     -33.520  11.128  27.107  0.00  0.00     0.036 H 
ATOM     74  H36 non d ame     -32.291  12.560  27.198  0.00  0.00     0.036 H 
BRANCH  72  75
ATOM     75  C25 non d ame     -31.594  10.785  26.126  0.00  0.00    -0.001 C 
ATOM     76  C26 non d ame     -30.859  11.925  25.198  0.00  0.00    -0.035 C 
ATOM     77  C27 non d ame     -31.091  11.643  23.894  0.00  0.00     0.085 C 
ATOM     78  H38 non d ame     -31.343  12.891  25.339  0.00  0.00     0.036 H 
ATOM     79  H39 non d ame     -29.776  11.840  25.288  0.00  0.00     0.036 H 
ATOM     80  N5  non d ame     -32.187  10.604  23.856  0.00  0.00    -0.049 N 
ATOM     81  H40 non d ame     -31.464  12.570  23.457  0.00  0.00     0.075 H 
ATOM     82  H41 non d ame     -30.168  11.199  23.523  0.00  0.00     0.075 H 
ATOM     83  C28 non d ame     -32.305  10.028  25.359  0.00  0.00     0.193 C 
ATOM     84  H42 non d ame     -33.040  11.097  23.633  0.00  0.00     0.280 HD
ATOM     85  H43 non d ame     -31.858   9.865  23.251  0.00  0.00     0.280 HD
ATOM     86  H44 non d ame     -31.893   9.050  25.609  0.00  0.00     0.129 H 
ATOM     87  H37 non d ame     -30.961  10.001  26.543  0.00  0.00     0.046 H 
BRANCH  83  88
ATOM     88  O6  non d ame     -33.674   9.982  25.764  0.00  0.00    -0.369 OA
ATOM     89  H45 non d ame     -34.197   9.559  25.078  0.00  0.00     0.212 HD
ENDBRANCH  83  88
ENDBRANCH  72  75
ENDBRANCH  47  72
ENDBRANCH  45  47
ENDBRANCH   1  43
BRANCH   1  90
ATOM     90  C16 non d ame     -34.719   8.516  31.399  0.00  0.00    -0.035 C 
ATOM     91  H21 non d ame     -34.858   7.456  31.606  0.00  0.00     0.037 H 
ATOM     92  H22 non d ame     -33.738   8.974  31.528  0.00  0.00     0.037 H 
BRANCH  90  93
ATOM     93  C17 non d ame     -35.693   9.281  32.352  0.00  0.00    -0.059 C 
ATOM     94  H23 non d ame     -35.738   8.729  33.290  0.00  0.00     0.038 H 
BRANCH  93  95
ATOM     95  C18 non d ame     -35.189  10.725  32.673  0.00  0.00    -0.073 C 
ATOM     96  H24 non d ame     -35.932  11.451  32.343  0.00  0.00     0.028 H 
ATOM     97  H25 non d ame     -35.037  10.825  33.747  0.00  0.00     0.028 H 
ATOM     98  H26 non d ame     -34.249  10.906  32.153  0.00  0.00     0.028 H 
ENDBRANCH  93  95
BRANCH  93  99
ATOM     99  C19 non d ame     -37.110   9.315  31.773  0.00  0.00    -0.073 C 
ATOM    100  H27 non d ame     -37.378  10.344  31.530  0.00  0.00     0.028 H 
ATOM    101  H28 non d ame     -37.149   8.707  30.869  0.00  0.00     0.028 H 
ATOM    102  H29 non d ame     -37.811   8.920  32.508  0.00  0.00     0.028 H 
ENDBRANCH  93  99
ENDBRANCH  90  93
ENDBRANCH   1  90
TORSDOF 26
ENDMDL
MODEL 15
REMARK VINA RESULT:      -6.2      1.684      2.934
REMARK  26 active torsions:
REMARK  status: ('A' for Active; 'I' for Inactive)
REMARK    1  A    between atoms: C2_2  and  C3_3 
REMARK    2  A    between atoms: C4_6  and  C5_7 
REMARK       I    between atoms: C5_7  and  N2_9 
REMARK    3  A    between atoms: N2_9  and  C6_10 
REMARK    4  A    between atoms: C6_10  and  C7_11 
REMARK    5  A    between atoms: C6_10  and  C8_13 
REMARK       I    between atoms: C7_11  and  N3_14 
REMARK    6  A    between atoms: N3_14  and  C9_15 
REMARK    7  A    between atoms: C9_15  and  C10_16 
REMARK    8  A    between atoms: C9_15  and  C11_18 
REMARK       I    between atoms: C10_16  and  N4_21 
REMARK    9  A    between atoms: C11_18  and  C12_19 
REMARK   10  A    between atoms: C11_18  and  C13_20 
REMARK   11  A    between atoms: N4_21  and  C14_22 
REMARK   12  A    between atoms: C14_22  and  C15_23 
REMARK   13  A    between atoms: C14_22  and  C16_25 
REMARK       I    between atoms: C15_23  and  N6_40 
REMARK   14  A    between atoms: C16_25  and  C17_26 
REMARK   15  A    between atoms: C17_26  and  C18_27 
REMARK   16  A    between atoms: C17_26  and  C19_28 
REMARK   17  A    between atoms: C20_29  and  C21_30 
REMARK   18  A    between atoms: C20_29  and  C24_33 
REMARK   19  A    between atoms: C20_29  and  N6_40 
REMARK   20  A    between atoms: C21_30  and  C22_31 
REMARK   21  A    between atoms: C22_31  and  C23_32 
REMARK   22  A    between atoms: C23_32  and  O8_43 
REMARK   23  A    between atoms: C24_33  and  C25_34 
REMARK   24  A    between atoms: C28_38  and  O6_39 
REMARK   25  A    between atoms: C29_42  and  O8_43 
REMARK   26  A    between atoms: C29_42  and  C35_49 
ROOT
ATOM      1  C14 non d ame     -33.209  10.717  26.043  0.00  0.00     0.089 C 
ATOM      2  H20 non d ame     -33.960  10.798  25.257  0.00  0.00     0.087 H 
ENDROOT
BRANCH   1   3
ATOM      3  N4  non d ame     -32.678   9.363  26.004  0.00  0.00    -0.346 N 
ATOM      4  C10 non d ame     -32.754   8.551  24.737  0.00  0.00     0.241 C 
ATOM      5  O4  non d ame     -33.249   9.007  23.759  0.00  0.00    -0.271 OA
ATOM      6  H19 non d ame     -32.264   8.992  26.847  0.00  0.00     0.163 HD
BRANCH   4   7
ATOM      7  C9  non d ame     -32.195   7.152  24.714  0.00  0.00     0.092 C 
ATOM      8  H11 non d ame     -31.219   7.147  25.198  0.00  0.00     0.088 H 
BRANCH   7   9
ATOM      9  N3  non d ame     -33.068   6.264  25.488  0.00  0.00    -0.346 N 
ATOM     10  C7  non d ame     -32.758   5.972  26.866  0.00  0.00     0.240 C 
ATOM     11  O3  non d ame     -31.811   6.443  27.368  0.00  0.00    -0.271 OA
ATOM     12  H10 non d ame     -33.888   5.850  25.069  0.00  0.00     0.163 HD
BRANCH  10  13
ATOM     13  C6  non d ame     -33.689   5.024  27.685  0.00  0.00     0.086 C 
ATOM     14  H6  non d ame     -33.279   4.772  28.663  0.00  0.00     0.086 H 
BRANCH  13  15
ATOM     15  N2  non d ame     -34.954   5.698  27.926  0.00  0.00    -0.343 N 
ATOM     16  C5  non d ame     -35.279   6.161  29.276  0.00  0.00     0.273 C 
ATOM     17  O2  non d ame     -34.518   5.986  30.163  0.00  0.00    -0.266 OA
ATOM     18  H5  non d ame     -35.600   5.841  27.163  0.00  0.00     0.163 HD
BRANCH  16  19
ATOM     19  C4  non d ame     -36.613   6.875  29.544  0.00  0.00     0.154 A 
ATOM     20  C1  non d ame     -36.981   7.608  30.717  0.00  0.00    -0.017 A 
ATOM     21  C2  non d ame     -38.296   8.060  30.465  0.00  0.00     0.077 A 
ATOM     22  H1  non d ame     -36.386   7.786  31.612  0.00  0.00     0.091 H 
ATOM     23  O1  non d ame     -38.634   7.632  29.284  0.00  0.00    -0.218 OA
ATOM     24  N1  non d ame     -37.668   6.938  28.727  0.00  0.00    -0.123 NA
BRANCH  21  25
ATOM     25  C3  non d ame     -39.158   8.894  31.403  0.00  0.00    -0.029 C 
ATOM     26  H2  non d ame     -38.812   8.763  32.428  0.00  0.00     0.036 H 
ATOM     27  H3  non d ame     -39.081   9.946  31.128  0.00  0.00     0.036 H 
ATOM     28  H4  non d ame     -40.196   8.573  31.326  0.00  0.00     0.036 H 
ENDBRANCH  21  25
ENDBRANCH  16  19
ENDBRANCH  13  15
BRANCH  13  29
ATOM     29  C8  non d ame     -33.920   3.751  26.911  0.00  0.00    -0.049 C 
ATOM     30  H7  non d ame     -32.969   3.241  26.759  0.00  0.00     0.030 H 
ATOM     31  H8  non d ame     -34.594   3.103  27.471  0.00  0.00     0.030 H 
ATOM     32  H9  non d ame     -34.363   3.990  25.944  0.00  0.00     0.030 H 
ENDBRANCH  13  29
ENDBRANCH  10  13
ENDBRANCH   7   9
BRANCH   7  33
ATOM     33  C11 non d ame     -32.122   6.647  23.242  0.00  0.00    -0.033 C 
ATOM     34  H12 non d ame     -32.818   7.246  22.655  0.00  0.00     0.042 H 
BRANCH  33  35
ATOM     35  C12 non d ame     -30.698   6.858  22.640  0.00  0.00    -0.071 C 
ATOM     36  H13 non d ame     -30.484   7.925  22.576  0.00  0.00     0.028 H 
ATOM     37  H14 non d ame     -29.958   6.377  23.280  0.00  0.00     0.028 H 
ATOM     38  H15 non d ame     -30.657   6.420  21.643  0.00  0.00     0.028 H 
ENDBRANCH  33  35
BRANCH  33  39
ATOM     39  C13 non d ame     -32.566   5.153  23.141  0.00  0.00    -0.071 C 
ATOM     40  H16 non d ame     -32.528   4.833  22.099  0.00  0.00     0.028 H 
ATOM     41  H17 non d ame     -31.896   4.533  23.737  0.00  0.00     0.028 H 
ATOM     42  H18 non d ame     -33.584   5.050  23.515  0.00  0.00     0.028 H 
ENDBRANCH  33  39
ENDBRANCH   7  33
ENDBRANCH   4   7
ENDBRANCH   1   3
BRANCH   1  43
ATOM     43  C15 non d ame     -32.033  11.716  25.835  0.00  0.00     0.240 C 
ATOM     44  O5  non d ame     -30.927  11.395  26.127  0.00  0.00    -0.271 OA
ATOM     45  N6  non d ame     -32.286  13.069  25.262  0.00  0.00    -0.355 N 
ATOM     46  H46 non d ame     -33.222  13.351  25.006  0.00  0.00     0.162 HD
BRANCH  45  47
ATOM     47  C20 non d ame     -31.158  14.006  25.070  0.00  0.00     0.013 C 
ATOM     48  H30 non d ame     -30.345  13.689  25.724  0.00  0.00     0.072 H 
BRANCH  47  49
ATOM     49  C21 non d ame     -31.601  15.404  25.436  0.00  0.00    -0.038 C 
ATOM     50  H31 non d ame     -30.871  16.073  24.980  0.00  0.00     0.036 H 
ATOM     51  H32 non d ame     -32.651  15.465  25.147  0.00  0.00     0.036 H 
BRANCH  49  52
ATOM     52  C22 non d ame     -31.550  15.671  26.956  0.00  0.00     0.018 C 
ATOM     53  H33 non d ame     -30.984  14.843  27.382  0.00  0.00     0.048 H 
ATOM     54  H34 non d ame     -31.186  16.693  27.063  0.00  0.00     0.048 H 
BRANCH  52  55
ATOM     55  C23 non d ame     -32.943  15.638  27.644  0.00  0.00     0.259 C 
ATOM     56  O7  non d ame     -33.648  14.688  27.531  0.00  0.00    -0.265 OA
BRANCH  55  57
ATOM     57  O8  non d ame     -33.373  16.763  28.402  0.00  0.00    -0.317 OA
BRANCH  57  58
ATOM     58  C29 non d ame     -32.887  18.016  27.911  0.00  0.00     0.052 C 
ATOM     59  H47 non d ame     -32.566  18.572  28.791  0.00  0.00     0.082 H 
ATOM     60  H48 non d ame     -32.170  17.769  27.130  0.00  0.00     0.082 H 
BRANCH  58  61
ATOM     61  C35 non d ame     -34.079  18.769  27.261  0.00  0.00    -0.034 A 
ATOM     62  C30 non d ame     -34.850  19.642  28.023  0.00  0.00    -0.075 A 
ATOM     63  C31 non d ame     -35.920  20.318  27.440  0.00  0.00    -0.082 A 
ATOM     64  H49 non d ame     -34.616  19.795  29.077  0.00  0.00     0.084 H 
ATOM     65  C32 non d ame     -36.220  20.118  26.090  0.00  0.00    -0.083 A 
ATOM     66  H50 non d ame     -36.522  21.003  28.039  0.00  0.00     0.083 H 
ATOM     67  C33 non d ame     -35.451  19.243  25.335  0.00  0.00    -0.082 A 
ATOM     68  H51 non d ame     -37.055  20.643  25.626  0.00  0.00     0.083 H 
ATOM     69  C34 non d ame     -34.379  18.566  25.913  0.00  0.00    -0.075 A 
ATOM     70  H52 non d ame     -35.689  19.087  24.282  0.00  0.00     0.083 H 
ATOM     71  H53 non d ame     -33.778  17.882  25.314  0.00  0.00     0.084 H 
ENDBRANCH  58  61
ENDBRANCH  57  58
ENDBRANCH  55  57
ENDBRANCH  52  55
ENDBRANCH  49  52
ENDBRANCH  47  49
BRANCH  47  72
ATOM     72  C24 non d ame     -30.706  13.978  23.612  0.00  0.00    -0.039 C 
ATOM     73  H35 non d ame     -29.779  13.403  23.606  0.00  0.00     0.036 H 
ATOM     74  H36 non d ame     -31.570  13.624  23.047  0.00  0.00     0.036 H 
BRANCH  72  75
ATOM     75  C25 non d ame     -30.356  15.444  23.071  0.00  0.00    -0.001 C 
ATOM     76  C26 non d ame     -31.378  15.848  21.848  0.00  0.00    -0.035 C 
ATOM     77  C27 non d ame     -30.646  16.269  20.788  0.00  0.00     0.085 C 
ATOM     78  H38 non d ame     -31.882  14.959  21.472  0.00  0.00     0.036 H 
ATOM     79  H39 non d ame     -31.959  16.730  22.121  0.00  0.00     0.036 H 
ATOM     80  N5  non d ame     -29.213  15.879  21.060  0.00  0.00    -0.049 N 
ATOM     81  H40 non d ame     -31.015  15.698  19.935  0.00  0.00     0.075 H 
ATOM     82  H41 non d ame     -30.725  17.355  20.792  0.00  0.00     0.075 H 
ATOM     83  C28 non d ame     -29.145  15.502  22.628  0.00  0.00     0.193 C 
ATOM     84  H42 non d ame     -29.036  15.044  20.521  0.00  0.00     0.280 HD
ATOM     85  H43 non d ame     -28.657  16.708  20.904  0.00  0.00     0.280 HD
ATOM     86  H44 non d ame     -28.705  16.196  23.345  0.00  0.00     0.129 H 
ATOM     87  H37 non d ame     -30.241  16.165  23.880  0.00  0.00     0.046 H 
BRANCH  83  88
ATOM     88  O6  non d ame     -28.445  14.269  22.809  0.00  0.00    -0.369 OA
ATOM     89  H45 non d ame     -27.915  14.084  22.029  0.00  0.00     0.212 HD
ENDBRANCH  83  88
ENDBRANCH  72  75
ENDBRANCH  47  72
ENDBRANCH  45  47
ENDBRANCH   1  43
BRANCH   1  90
ATOM     90  C16 non d ame     -33.853  10.961  27.398  0.00  0.00    -0.035 C 
ATOM     91  H21 non d ame     -33.960  12.042  27.476  0.00  0.00     0.037 H 
ATOM     92  H22 non d ame     -34.736  10.322  27.417  0.00  0.00     0.037 H 
BRANCH  90  93
ATOM     93  C17 non d ame     -32.962  10.520  28.603  0.00  0.00    -0.059 C 
ATOM     94  H23 non d ame     -32.085  10.016  28.197  0.00  0.00     0.038 H 
BRANCH  93  95
ATOM     95  C18 non d ame     -32.465  11.737  29.446  0.00  0.00    -0.073 C 
ATOM     96  H24 non d ame     -31.651  12.236  28.920  0.00  0.00     0.028 H 
ATOM     97  H25 non d ame     -33.286  12.439  29.590  0.00  0.00     0.028 H 
ATOM     98  H26 non d ame     -32.111  11.387  30.416  0.00  0.00     0.028 H 
ENDBRANCH  93  95
BRANCH  93  99
ATOM     99  C19 non d ame     -33.699   9.510  29.486  0.00  0.00    -0.073 C 
ATOM    100  H27 non d ame     -33.418   8.497  29.193  0.00  0.00     0.028 H 
ATOM    101  H28 non d ame     -33.429   9.673  30.530  0.00  0.00     0.028 H 
ATOM    102  H29 non d ame     -34.775   9.638  29.366  0.00  0.00     0.028 H 
ENDBRANCH  93  99
ENDBRANCH  90  93
ENDBRANCH   1  90
TORSDOF 26
ENDMDL
MODEL 16
REMARK VINA RESULT:      -6.2      2.323      5.327
REMARK  26 active torsions:
REMARK  status: ('A' for Active; 'I' for Inactive)
REMARK    1  A    between atoms: C2_2  and  C3_3 
REMARK    2  A    between atoms: C4_6  and  C5_7 
REMARK       I    between atoms: C5_7  and  N2_9 
REMARK    3  A    between atoms: N2_9  and  C6_10 
REMARK    4  A    between atoms: C6_10  and  C7_11 
REMARK    5  A    between atoms: C6_10  and  C8_13 
REMARK       I    between atoms: C7_11  and  N3_14 
REMARK    6  A    between atoms: N3_14  and  C9_15 
REMARK    7  A    between atoms: C9_15  and  C10_16 
REMARK    8  A    between atoms: C9_15  and  C11_18 
REMARK       I    between atoms: C10_16  and  N4_21 
REMARK    9  A    between atoms: C11_18  and  C12_19 
REMARK   10  A    between atoms: C11_18  and  C13_20 
REMARK   11  A    between atoms: N4_21  and  C14_22 
REMARK   12  A    between atoms: C14_22  and  C15_23 
REMARK   13  A    between atoms: C14_22  and  C16_25 
REMARK       I    between atoms: C15_23  and  N6_40 
REMARK   14  A    between atoms: C16_25  and  C17_26 
REMARK   15  A    between atoms: C17_26  and  C18_27 
REMARK   16  A    between atoms: C17_26  and  C19_28 
REMARK   17  A    between atoms: C20_29  and  C21_30 
REMARK   18  A    between atoms: C20_29  and  C24_33 
REMARK   19  A    between atoms: C20_29  and  N6_40 
REMARK   20  A    between atoms: C21_30  and  C22_31 
REMARK   21  A    between atoms: C22_31  and  C23_32 
REMARK   22  A    between atoms: C23_32  and  O8_43 
REMARK   23  A    between atoms: C24_33  and  C25_34 
REMARK   24  A    between atoms: C28_38  and  O6_39 
REMARK   25  A    between atoms: C29_42  and  O8_43 
REMARK   26  A    between atoms: C29_42  and  C35_49 
ROOT
ATOM      1  C14 non d ame     -32.838   8.334  24.811  0.00  0.00     0.089 C 
ATOM      2  H20 non d ame     -31.770   8.123  24.859  0.00  0.00     0.087 H 
ENDROOT
BRANCH   1   3
ATOM      3  N4  non d ame     -33.523   7.072  24.570  0.00  0.00    -0.346 N 
ATOM      4  C10 non d ame     -32.750   5.779  24.539  0.00  0.00     0.241 C 
ATOM      5  O4  non d ame     -31.575   5.777  24.709  0.00  0.00    -0.271 OA
ATOM      6  H19 non d ame     -34.523   7.095  24.425  0.00  0.00     0.163 HD
BRANCH   4   7
ATOM      7  C9  non d ame     -33.475   4.482  24.293  0.00  0.00     0.092 C 
ATOM      8  H11 non d ame     -32.802   3.650  24.497  0.00  0.00     0.088 H 
BRANCH   7   9
ATOM      9  N3  non d ame     -34.601   4.367  25.225  0.00  0.00    -0.346 N 
ATOM     10  C7  non d ame     -34.367   3.976  26.593  0.00  0.00     0.240 C 
ATOM     11  O3  non d ame     -33.279   3.749  26.961  0.00  0.00    -0.271 OA
ATOM     12  H10 non d ame     -35.545   4.558  24.921  0.00  0.00     0.163 HD
BRANCH  10  13
ATOM     13  C6  non d ame     -35.569   3.852  27.579  0.00  0.00     0.086 C 
ATOM     14  H6  non d ame     -35.344   3.225  28.442  0.00  0.00     0.086 H 
BRANCH  13  15
ATOM     15  N2  non d ame     -35.893   5.170  28.097  0.00  0.00    -0.343 N 
ATOM     16  C5  non d ame     -35.180   5.680  29.270  0.00  0.00     0.273 C 
ATOM     17  O2  non d ame     -34.350   5.019  29.793  0.00  0.00    -0.266 OA
ATOM     18  H5  non d ame     -36.605   5.727  27.647  0.00  0.00     0.163 HD
BRANCH  16  19
ATOM     19  C4  non d ame     -35.512   7.073  29.828  0.00  0.00     0.154 A 
ATOM     20  C1  non d ame     -36.618   7.906  29.471  0.00  0.00    -0.017 A 
ATOM     21  C2  non d ame     -36.467   9.068  30.260  0.00  0.00     0.077 A 
ATOM     22  H1  non d ame     -37.409   7.700  28.750  0.00  0.00     0.091 H 
ATOM     23  O1  non d ame     -35.399   8.910  30.984  0.00  0.00    -0.218 OA
ATOM     24  N1  non d ame     -34.823   7.753  30.749  0.00  0.00    -0.123 NA
BRANCH  21  25
ATOM     25  C3  non d ame     -37.388  10.281  30.265  0.00  0.00    -0.029 C 
ATOM     26  H2  non d ame     -38.390   9.978  29.962  0.00  0.00     0.036 H 
ATOM     27  H3  non d ame     -37.427  10.704  31.269  0.00  0.00     0.036 H 
ATOM     28  H4  non d ame     -37.009  11.029  29.569  0.00  0.00     0.036 H 
ENDBRANCH  21  25
ENDBRANCH  16  19
ENDBRANCH  13  15
BRANCH  13  29
ATOM     29  C8  non d ame     -36.759   3.275  26.856  0.00  0.00    -0.049 C 
ATOM     30  H7  non d ame     -36.653   2.193  26.786  0.00  0.00     0.030 H 
ATOM     31  H8  non d ame     -37.670   3.515  27.404  0.00  0.00     0.030 H 
ATOM     32  H9  non d ame     -36.815   3.700  25.852  0.00  0.00     0.030 H 
ENDBRANCH  13  29
ENDBRANCH  10  13
ENDBRANCH   7   9
BRANCH   7  33
ATOM     33  C11 non d ame     -34.011   4.458  22.831  0.00  0.00    -0.033 C 
ATOM     34  H12 non d ame     -34.208   5.489  22.536  0.00  0.00     0.042 H 
BRANCH  33  35
ATOM     35  C12 non d ame     -32.947   3.883  21.845  0.00  0.00    -0.071 C 
ATOM     36  H13 non d ame     -32.506   2.982  22.272  0.00  0.00     0.028 H 
ATOM     37  H14 non d ame     -33.423   3.641  20.896  0.00  0.00     0.028 H 
ATOM     38  H15 non d ame     -32.165   4.625  21.682  0.00  0.00     0.028 H 
ENDBRANCH  33  35
BRANCH  33  39
ATOM     39  C13 non d ame     -35.354   3.665  22.741  0.00  0.00    -0.071 C 
ATOM     40  H16 non d ame     -35.756   3.516  23.743  0.00  0.00     0.028 H 
ATOM     41  H17 non d ame     -36.070   4.228  22.141  0.00  0.00     0.028 H 
ATOM     42  H18 non d ame     -35.174   2.697  22.274  0.00  0.00     0.028 H 
ENDBRANCH  33  39
ENDBRANCH   7  33
ENDBRANCH   4   7
ENDBRANCH   1   3
BRANCH   1  43
ATOM     43  C15 non d ame     -33.376   8.943  26.139  0.00  0.00     0.240 C 
ATOM     44  O5  non d ame     -33.759   8.226  27.006  0.00  0.00    -0.271 OA
ATOM     45  N6  non d ame     -33.404  10.421  26.332  0.00  0.00    -0.355 N 
ATOM     46  H46 non d ame     -33.077  11.040  25.604  0.00  0.00     0.162 HD
BRANCH  45  47
ATOM     47  C20 non d ame     -33.917  10.984  27.600  0.00  0.00     0.013 C 
ATOM     48  H30 non d ame     -34.902  10.554  27.782  0.00  0.00     0.072 H 
BRANCH  47  49
ATOM     49  C21 non d ame     -34.024  12.487  27.473  0.00  0.00    -0.038 C 
ATOM     50  H31 non d ame     -35.082  12.695  27.317  0.00  0.00     0.036 H 
ATOM     51  H32 non d ame     -33.511  12.893  28.345  0.00  0.00     0.036 H 
BRANCH  49  52
ATOM     52  C22 non d ame     -33.282  13.037  26.235  0.00  0.00     0.018 C 
ATOM     53  H33 non d ame     -32.464  12.343  26.048  0.00  0.00     0.048 H 
ATOM     54  H34 non d ame     -34.050  13.193  25.477  0.00  0.00     0.048 H 
BRANCH  52  55
ATOM     55  C23 non d ame     -32.623  14.425  26.466  0.00  0.00     0.259 C 
ATOM     56  O7  non d ame     -33.082  15.187  27.255  0.00  0.00    -0.265 OA
BRANCH  55  57
ATOM     57  O8  non d ame     -31.469  14.783  25.715  0.00  0.00    -0.317 OA
BRANCH  57  58
ATOM     58  C29 non d ame     -31.027  13.769  24.807  0.00  0.00     0.052 C 
ATOM     59  H47 non d ame     -30.083  13.403  25.210  0.00  0.00     0.082 H 
ATOM     60  H48 non d ame     -31.871  13.089  24.691  0.00  0.00     0.082 H 
BRANCH  58  61
ATOM     61  C35 non d ame     -30.748  14.442  23.437  0.00  0.00    -0.034 A 
ATOM     62  C30 non d ame     -31.310  15.681  23.142  0.00  0.00    -0.075 A 
ATOM     63  C31 non d ame     -31.060  16.285  21.911  0.00  0.00    -0.082 A 
ATOM     64  H49 non d ame     -31.947  16.177  23.875  0.00  0.00     0.084 H 
ATOM     65  C32 non d ame     -30.246  15.646  20.972  0.00  0.00    -0.083 A 
ATOM     66  H50 non d ame     -31.501  17.257  21.684  0.00  0.00     0.083 H 
ATOM     67  C33 non d ame     -29.691  14.409  21.269  0.00  0.00    -0.082 A 
ATOM     68  H51 non d ame     -30.045  16.113  20.007  0.00  0.00     0.083 H 
ATOM     69  C34 non d ame     -29.937  13.802  22.499  0.00  0.00    -0.075 A 
ATOM     70  H52 non d ame     -29.058  13.912  20.533  0.00  0.00     0.083 H 
ATOM     71  H53 non d ame     -29.496  12.831  22.725  0.00  0.00     0.084 H 
ENDBRANCH  58  61
ENDBRANCH  57  58
ENDBRANCH  55  57
ENDBRANCH  52  55
ENDBRANCH  49  52
ENDBRANCH  47  49
BRANCH  47  72
ATOM     72  C24 non d ame     -32.966  10.634  28.742  0.00  0.00    -0.039 C 
ATOM     73  H35 non d ame     -33.534   9.976  29.401  0.00  0.00     0.036 H 
ATOM     74  H36 non d ame     -32.057  10.271  28.262  0.00  0.00     0.036 H 
BRANCH  72  75
ATOM     75  C25 non d ame     -32.565  11.928  29.597  0.00  0.00    -0.001 C 
ATOM     76  C26 non d ame     -31.072  12.452  29.152  0.00  0.00    -0.035 C 
ATOM     77  C27 non d ame     -30.311  12.600  30.263  0.00  0.00     0.085 C 
ATOM     78  H38 non d ame     -30.554  11.675  28.590  0.00  0.00     0.036 H 
ATOM     79  H39 non d ame     -31.134  13.464  28.750  0.00  0.00     0.036 H 
ATOM     80  N5  non d ame     -31.041  11.913  31.392  0.00  0.00    -0.049 N 
ATOM     81  H40 non d ame     -29.386  12.060  30.056  0.00  0.00     0.075 H 
ATOM     82  H41 non d ame     -30.284  13.671  30.457  0.00  0.00     0.075 H 
ATOM     83  C28 non d ame     -32.546  11.665  30.861  0.00  0.00     0.193 C 
ATOM     84  H42 non d ame     -30.594  11.017  31.518  0.00  0.00     0.280 HD
ATOM     85  H43 non d ame     -31.073  12.574  32.154  0.00  0.00     0.280 HD
ATOM     86  H44 non d ame     -33.365  12.297  31.207  0.00  0.00     0.129 H 
ATOM     87  H37 non d ame     -33.363  12.669  29.623  0.00  0.00     0.046 H 
BRANCH  83  88
ATOM     88  O6  non d ame     -32.952  10.324  31.139  0.00  0.00    -0.369 OA
ATOM     89  H45 non d ame     -32.436   9.716  30.605  0.00  0.00     0.212 HD
ENDBRANCH  83  88
ENDBRANCH  72  75
ENDBRANCH  47  72
ENDBRANCH  45  47
ENDBRANCH   1  43
BRANCH   1  90
ATOM     90  C16 non d ame     -33.125   9.284  23.660  0.00  0.00    -0.035 C 
ATOM     91  H21 non d ame     -33.833   8.757  23.021  0.00  0.00     0.037 H 
ATOM     92  H22 non d ame     -33.409  10.226  24.128  0.00  0.00     0.037 H 
BRANCH  90  93
ATOM     93  C17 non d ame     -31.875   9.588  22.774  0.00  0.00    -0.059 C 
ATOM     94  H23 non d ame     -32.179  10.303  22.009  0.00  0.00     0.038 H 
BRANCH  93  95
ATOM     95  C18 non d ame     -30.714  10.234  23.595  0.00  0.00    -0.073 C 
ATOM     96  H24 non d ame     -29.950   9.483  23.798  0.00  0.00     0.028 H 
ATOM     97  H25 non d ame     -30.275  11.050  23.022  0.00  0.00     0.028 H 
ATOM     98  H26 non d ame     -31.105  10.619  24.536  0.00  0.00     0.028 H 
ENDBRANCH  93  95
BRANCH  93  99
ATOM     99  C19 non d ame     -31.396   8.326  22.052  0.00  0.00    -0.073 C 
ATOM    100  H27 non d ame     -31.951   8.207  21.120  0.00  0.00     0.028 H 
ATOM    101  H28 non d ame     -30.332   8.414  21.832  0.00  0.00     0.028 H 
ATOM    102  H29 non d ame     -31.564   7.457  22.688  0.00  0.00     0.028 H 
ENDBRANCH  93  99
ENDBRANCH  90  93
ENDBRANCH   1  90
TORSDOF 26
ENDMDL
MODEL 17
REMARK VINA RESULT:      -6.2      3.014      9.630
REMARK  26 active torsions:
REMARK  status: ('A' for Active; 'I' for Inactive)
REMARK    1  A    between atoms: C2_2  and  C3_3 
REMARK    2  A    between atoms: C4_6  and  C5_7 
REMARK       I    between atoms: C5_7  and  N2_9 
REMARK    3  A    between atoms: N2_9  and  C6_10 
REMARK    4  A    between atoms: C6_10  and  C7_11 
REMARK    5  A    between atoms: C6_10  and  C8_13 
REMARK       I    between atoms: C7_11  and  N3_14 
REMARK    6  A    between atoms: N3_14  and  C9_15 
REMARK    7  A    between atoms: C9_15  and  C10_16 
REMARK    8  A    between atoms: C9_15  and  C11_18 
REMARK       I    between atoms: C10_16  and  N4_21 
REMARK    9  A    between atoms: C11_18  and  C12_19 
REMARK   10  A    between atoms: C11_18  and  C13_20 
REMARK   11  A    between atoms: N4_21  and  C14_22 
REMARK   12  A    between atoms: C14_22  and  C15_23 
REMARK   13  A    between atoms: C14_22  and  C16_25 
REMARK       I    between atoms: C15_23  and  N6_40 
REMARK   14  A    between atoms: C16_25  and  C17_26 
REMARK   15  A    between atoms: C17_26  and  C18_27 
REMARK   16  A    between atoms: C17_26  and  C19_28 
REMARK   17  A    between atoms: C20_29  and  C21_30 
REMARK   18  A    between atoms: C20_29  and  C24_33 
REMARK   19  A    between atoms: C20_29  and  N6_40 
REMARK   20  A    between atoms: C21_30  and  C22_31 
REMARK   21  A    between atoms: C22_31  and  C23_32 
REMARK   22  A    between atoms: C23_32  and  O8_43 
REMARK   23  A    between atoms: C24_33  and  C25_34 
REMARK   24  A    between atoms: C28_38  and  O6_39 
REMARK   25  A    between atoms: C29_42  and  O8_43 
REMARK   26  A    between atoms: C29_42  and  C35_49 
ROOT
ATOM      1  C14 non d ame     -32.999  10.115  27.704  0.00  0.00     0.089 C 
ATOM      2  H20 non d ame     -31.994  10.129  28.128  0.00  0.00     0.087 H 
ENDROOT
BRANCH   1   3
ATOM      3  N4  non d ame     -33.079  11.194  26.730  0.00  0.00    -0.346 N 
ATOM      4  C10 non d ame     -31.994  12.238  26.659  0.00  0.00     0.241 C 
ATOM      5  O4  non d ame     -31.065  12.191  27.396  0.00  0.00    -0.271 OA
ATOM      6  H19 non d ame     -33.879  11.218  26.114  0.00  0.00     0.163 HD
BRANCH   4   7
ATOM      7  C9  non d ame     -32.091  13.345  25.642  0.00  0.00     0.092 C 
ATOM      8  H11 non d ame     -33.088  13.341  25.202  0.00  0.00     0.088 H 
BRANCH   7   9
ATOM      9  N3  non d ame     -31.916  14.639  26.309  0.00  0.00    -0.346 N 
ATOM     10  C7  non d ame     -33.031  15.545  26.426  0.00  0.00     0.240 C 
ATOM     11  O3  non d ame     -34.076  15.251  25.989  0.00  0.00    -0.271 OA
ATOM     12  H10 non d ame     -31.020  14.907  26.689  0.00  0.00     0.163 HD
BRANCH  10  13
ATOM     13  C6  non d ame     -32.838  16.922  27.134  0.00  0.00     0.086 C 
ATOM     14  H6  non d ame     -32.021  17.505  26.708  0.00  0.00     0.086 H 
BRANCH  13  15
ATOM     15  N2  non d ame     -34.045  17.713  26.965  0.00  0.00    -0.343 N 
ATOM     16  C5  non d ame     -33.944  19.087  26.468  0.00  0.00     0.273 C 
ATOM     17  O2  non d ame     -32.887  19.548  26.210  0.00  0.00    -0.266 OA
ATOM     18  H5  non d ame     -34.944  17.312  27.191  0.00  0.00     0.163 HD
BRANCH  16  19
ATOM     19  C4  non d ame     -35.213  19.934  26.284  0.00  0.00     0.154 A 
ATOM     20  C1  non d ame     -36.297  19.684  25.385  0.00  0.00    -0.017 A 
ATOM     21  C2  non d ame     -37.202  20.746  25.602  0.00  0.00     0.077 A 
ATOM     22  H1  non d ame     -36.410  18.857  24.683  0.00  0.00     0.091 H 
ATOM     23  O1  non d ame     -36.690  21.510  26.521  0.00  0.00    -0.218 OA
ATOM     24  N1  non d ame     -35.529  21.057  26.935  0.00  0.00    -0.123 NA
BRANCH  21  25
ATOM     25  C3  non d ame     -38.533  20.956  24.893  0.00  0.00    -0.029 C 
ATOM     26  H2  non d ame     -38.352  21.292  23.872  0.00  0.00     0.036 H 
ATOM     27  H3  non d ame     -39.087  20.017  24.872  0.00  0.00     0.036 H 
ATOM     28  H4  non d ame     -39.115  21.708  25.425  0.00  0.00     0.036 H 
ENDBRANCH  21  25
ENDBRANCH  16  19
ENDBRANCH  13  15
BRANCH  13  29
ATOM     29  C8  non d ame     -32.564  16.702  28.600  0.00  0.00    -0.049 C 
ATOM     30  H7  non d ame     -33.246  17.311  29.193  0.00  0.00     0.030 H 
ATOM     31  H8  non d ame     -32.712  15.650  28.844  0.00  0.00     0.030 H 
ATOM     32  H9  non d ame     -31.535  16.987  28.825  0.00  0.00     0.030 H 
ENDBRANCH  13  29
ENDBRANCH  10  13
ENDBRANCH   7   9
BRANCH   7  33
ATOM     33  C11 non d ame     -30.977  13.162  24.569  0.00  0.00    -0.033 C 
ATOM     34  H12 non d ame     -30.016  13.220  25.081  0.00  0.00     0.042 H 
BRANCH  33  35
ATOM     35  C12 non d ame     -31.064  11.758  23.893  0.00  0.00    -0.071 C 
ATOM     36  H13 non d ame     -32.058  11.340  24.052  0.00  0.00     0.028 H 
ATOM     37  H14 non d ame     -30.878  11.857  22.825  0.00  0.00     0.028 H 
ATOM     38  H15 non d ame     -30.318  11.096  24.333  0.00  0.00     0.028 H 
ENDBRANCH  33  35
BRANCH  33  39
ATOM     39  C13 non d ame     -31.029  14.307  23.508  0.00  0.00    -0.071 C 
ATOM     40  H16 non d ame     -32.043  14.703  23.450  0.00  0.00     0.028 H 
ATOM     41  H17 non d ame     -30.343  15.104  23.797  0.00  0.00     0.028 H 
ATOM     42  H18 non d ame     -30.737  13.914  22.534  0.00  0.00     0.028 H 
ENDBRANCH  33  39
ENDBRANCH   7  33
ENDBRANCH   4   7
ENDBRANCH   1   3
BRANCH   1  43
ATOM     43  C15 non d ame     -33.312   8.773  26.983  0.00  0.00     0.240 C 
ATOM     44  O5  non d ame     -34.437   8.493  26.717  0.00  0.00    -0.271 OA
ATOM     45  N6  non d ame     -32.210   7.839  26.614  0.00  0.00    -0.355 N 
ATOM     46  H46 non d ame     -31.250   8.068  26.831  0.00  0.00     0.162 HD
BRANCH  45  47
ATOM     47  C20 non d ame     -32.525   6.568  25.928  0.00  0.00     0.013 C 
ATOM     48  H30 non d ame     -33.587   6.576  25.680  0.00  0.00     0.072 H 
BRANCH  47  49
ATOM     49  C21 non d ame     -32.218   5.411  26.853  0.00  0.00    -0.038 C 
ATOM     50  H31 non d ame     -32.373   4.510  26.258  0.00  0.00     0.036 H 
ATOM     51  H32 non d ame     -31.236   5.624  27.274  0.00  0.00     0.036 H 
BRANCH  49  52
ATOM     52  C22 non d ame     -33.195   5.322  28.045  0.00  0.00     0.018 C 
ATOM     53  H33 non d ame     -32.622   4.890  28.865  0.00  0.00     0.048 H 
ATOM     54  H34 non d ame     -33.628   6.317  28.147  0.00  0.00     0.048 H 
BRANCH  52  55
ATOM     55  C23 non d ame     -34.390   4.358  27.805  0.00  0.00     0.259 C 
ATOM     56  O7  non d ame     -34.257   3.389  27.129  0.00  0.00    -0.265 OA
BRANCH  55  57
ATOM     57  O8  non d ame     -35.653   4.653  28.390  0.00  0.00    -0.317 OA
BRANCH  57  58
ATOM     58  C29 non d ame     -36.291   5.811  27.845  0.00  0.00     0.052 C 
ATOM     59  H47 non d ame     -35.490   6.421  27.429  0.00  0.00     0.082 H 
ATOM     60  H48 non d ame     -37.083   5.435  27.198  0.00  0.00     0.082 H 
BRANCH  58  61
ATOM     61  C35 non d ame     -36.946   6.592  29.016  0.00  0.00    -0.034 A 
ATOM     62  C30 non d ame     -37.210   5.948  30.221  0.00  0.00    -0.075 A 
ATOM     63  C31 non d ame     -37.798   6.649  31.273  0.00  0.00    -0.082 A 
ATOM     64  H49 non d ame     -36.957   4.895  30.341  0.00  0.00     0.084 H 
ATOM     65  C32 non d ame     -38.124   7.999  31.116  0.00  0.00    -0.083 A 
ATOM     66  H50 non d ame     -38.002   6.142  32.217  0.00  0.00     0.083 H 
ATOM     67  C33 non d ame     -37.862   8.636  29.911  0.00  0.00    -0.082 A 
ATOM     68  H51 non d ame     -38.583   8.555  31.934  0.00  0.00     0.083 H 
ATOM     69  C34 non d ame     -37.273   7.940  28.858  0.00  0.00    -0.075 A 
ATOM     70  H52 non d ame     -38.120   9.689  29.791  0.00  0.00     0.083 H 
ATOM     71  H53 non d ame     -37.069   8.448  27.915  0.00  0.00     0.084 H 
ENDBRANCH  58  61
ENDBRANCH  57  58
ENDBRANCH  55  57
ENDBRANCH  52  55
ENDBRANCH  49  52
ENDBRANCH  47  49
BRANCH  47  72
ATOM     72  C24 non d ame     -31.685   6.444  24.659  0.00  0.00    -0.039 C 
ATOM     73  H35 non d ame     -30.648   6.515  24.990  0.00  0.00     0.036 H 
ATOM     74  H36 non d ame     -32.037   5.539  24.165  0.00  0.00     0.036 H 
BRANCH  72  75
ATOM     75  C25 non d ame     -31.945   7.664  23.654  0.00  0.00    -0.001 C 
ATOM     76  C26 non d ame     -33.041   7.222  22.511  0.00  0.00    -0.035 C 
ATOM     77  C27 non d ame     -32.534   7.507  21.287  0.00  0.00     0.085 C 
ATOM     78  H38 non d ame     -33.149   6.138  22.495  0.00  0.00     0.036 H 
ATOM     79  H39 non d ame     -33.925   7.857  22.574  0.00  0.00     0.036 H 
ATOM     80  N5  non d ame     -31.064   7.799  21.476  0.00  0.00    -0.049 N 
ATOM     81  H40 non d ame     -32.644   6.592  20.706  0.00  0.00     0.075 H 
ATOM     82  H41 non d ame     -33.039   8.418  20.968  0.00  0.00     0.075 H 
ATOM     83  C28 non d ame     -30.856   8.021  23.061  0.00  0.00     0.193 C 
ATOM     84  H42 non d ame     -30.570   6.963  21.200  0.00  0.00     0.280 HD
ATOM     85  H43 non d ame     -30.884   8.673  21.001  0.00  0.00     0.280 HD
ATOM     86  H44 non d ame     -30.729   9.025  23.467  0.00  0.00     0.129 H 
ATOM     87  H37 non d ame     -32.128   8.600  24.180  0.00  0.00     0.046 H 
BRANCH  83  88
ATOM     88  O6  non d ame     -29.724   7.278  23.518  0.00  0.00    -0.369 OA
ATOM     89  H45 non d ame     -29.583   6.522  22.942  0.00  0.00     0.212 HD
ENDBRANCH  83  88
ENDBRANCH  72  75
ENDBRANCH  47  72
ENDBRANCH  45  47
ENDBRANCH   1  43
BRANCH   1  90
ATOM     90  C16 non d ame     -34.023  10.358  28.801  0.00  0.00    -0.035 C 
ATOM     91  H21 non d ame     -34.246  11.422  28.757  0.00  0.00     0.037 H 
ATOM     92  H22 non d ame     -34.812   9.627  28.624  0.00  0.00     0.037 H 
BRANCH  90  93
ATOM     93  C17 non d ame     -33.478  10.081  30.239  0.00  0.00    -0.059 C 
ATOM     94  H23 non d ame     -32.541   9.534  30.137  0.00  0.00     0.038 H 
BRANCH  93  95
ATOM     95  C18 non d ame     -33.177  11.400  31.019  0.00  0.00    -0.073 C 
ATOM     96  H24 non d ame     -32.833  12.165  30.323  0.00  0.00     0.028 H 
ATOM     97  H25 non d ame     -34.085  11.744  31.515  0.00  0.00     0.028 H 
ATOM     98  H26 non d ame     -32.404  11.213  31.765  0.00  0.00     0.028 H 
ENDBRANCH  93  95
BRANCH  93  99
ATOM     99  C19 non d ame     -34.442   9.190  31.027  0.00  0.00    -0.073 C 
ATOM    100  H27 non d ame     -34.256   9.309  32.095  0.00  0.00     0.028 H 
ATOM    101  H28 non d ame     -35.469   9.477  30.803  0.00  0.00     0.028 H 
ATOM    102  H29 non d ame     -34.287   8.148  30.745  0.00  0.00     0.028 H 
ENDBRANCH  93  99
ENDBRANCH  90  93
ENDBRANCH   1  90
TORSDOF 26
ENDMDL
MODEL 18
REMARK VINA RESULT:      -6.1      2.048      3.441
REMARK  26 active torsions:
REMARK  status: ('A' for Active; 'I' for Inactive)
REMARK    1  A    between atoms: C2_2  and  C3_3 
REMARK    2  A    between atoms: C4_6  and  C5_7 
REMARK       I    between atoms: C5_7  and  N2_9 
REMARK    3  A    between atoms: N2_9  and  C6_10 
REMARK    4  A    between atoms: C6_10  and  C7_11 
REMARK    5  A    between atoms: C6_10  and  C8_13 
REMARK       I    between atoms: C7_11  and  N3_14 
REMARK    6  A    between atoms: N3_14  and  C9_15 
REMARK    7  A    between atoms: C9_15  and  C10_16 
REMARK    8  A    between atoms: C9_15  and  C11_18 
REMARK       I    between atoms: C10_16  and  N4_21 
REMARK    9  A    between atoms: C11_18  and  C12_19 
REMARK   10  A    between atoms: C11_18  and  C13_20 
REMARK   11  A    between atoms: N4_21  and  C14_22 
REMARK   12  A    between atoms: C14_22  and  C15_23 
REMARK   13  A    between atoms: C14_22  and  C16_25 
REMARK       I    between atoms: C15_23  and  N6_40 
REMARK   14  A    between atoms: C16_25  and  C17_26 
REMARK   15  A    between atoms: C17_26  and  C18_27 
REMARK   16  A    between atoms: C17_26  and  C19_28 
REMARK   17  A    between atoms: C20_29  and  C21_30 
REMARK   18  A    between atoms: C20_29  and  C24_33 
REMARK   19  A    between atoms: C20_29  and  N6_40 
REMARK   20  A    between atoms: C21_30  and  C22_31 
REMARK   21  A    between atoms: C22_31  and  C23_32 
REMARK   22  A    between atoms: C23_32  and  O8_43 
REMARK   23  A    between atoms: C24_33  and  C25_34 
REMARK   24  A    between atoms: C28_38  and  O6_39 
REMARK   25  A    between atoms: C29_42  and  O8_43 
REMARK   26  A    between atoms: C29_42  and  C35_49 
ROOT
ATOM      1  C14 non d ame     -32.044  12.339  27.320  0.00  0.00     0.089 C 
ATOM      2  H20 non d ame     -33.045  12.248  27.742  0.00  0.00     0.087 H 
ENDROOT
BRANCH   1   3
ATOM      3  N4  non d ame     -31.830  11.196  26.445  0.00  0.00    -0.346 N 
ATOM      4  C10 non d ame     -32.825  10.063  26.415  0.00  0.00     0.241 C 
ATOM      5  O4  non d ame     -33.790  10.093  27.106  0.00  0.00    -0.271 OA
ATOM      6  H19 non d ame     -31.002  11.188  25.868  0.00  0.00     0.163 HD
BRANCH   4   7
ATOM      7  C9  non d ame     -32.590   8.889  25.501  0.00  0.00     0.092 C 
ATOM      8  H11 non d ame     -31.552   8.570  25.587  0.00  0.00     0.088 H 
BRANCH   7   9
ATOM      9  N3  non d ame     -33.427   7.763  25.927  0.00  0.00    -0.346 N 
ATOM     10  C7  non d ame     -32.905   6.789  26.855  0.00  0.00     0.240 C 
ATOM     11  O3  non d ame     -31.816   6.896  27.268  0.00  0.00    -0.271 OA
ATOM     12  H10 non d ame     -34.368   7.657  25.578  0.00  0.00     0.163 HD
BRANCH  10  13
ATOM     13  C6  non d ame     -33.799   5.591  27.302  0.00  0.00     0.086 C 
ATOM     14  H6  non d ame     -33.290   4.921  27.995  0.00  0.00     0.086 H 
BRANCH  13  15
ATOM     15  N2  non d ame     -34.963   6.106  28.003  0.00  0.00    -0.343 N 
ATOM     16  C5  non d ame     -35.180   5.745  29.405  0.00  0.00     0.273 C 
ATOM     17  O2  non d ame     -34.414   5.037  29.960  0.00  0.00    -0.266 OA
ATOM     18  H5  non d ame     -35.615   6.708  27.520  0.00  0.00     0.163 HD
BRANCH  16  19
ATOM     19  C4  non d ame     -36.407   6.284  30.158  0.00  0.00     0.154 A 
ATOM     20  C1  non d ame     -36.868   7.637  30.203  0.00  0.00    -0.017 A 
ATOM     21  C2  non d ame     -38.019   7.601  31.022  0.00  0.00     0.077 A 
ATOM     22  H1  non d ame     -36.434   8.511  29.717  0.00  0.00     0.091 H 
ATOM     23  O1  non d ame     -38.191   6.368  31.395  0.00  0.00    -0.218 OA
ATOM     24  N1  non d ame     -37.262   5.580  30.904  0.00  0.00    -0.123 NA
BRANCH  21  25
ATOM     25  C3  non d ame     -38.897   8.788  31.395  0.00  0.00    -0.029 C 
ATOM     26  H2  non d ame     -38.330   9.711  31.276  0.00  0.00     0.036 H 
ATOM     27  H3  non d ame     -39.770   8.814  30.743  0.00  0.00     0.036 H 
ATOM     28  H4  non d ame     -39.220   8.691  32.431  0.00  0.00     0.036 H 
ENDBRANCH  21  25
ENDBRANCH  16  19
ENDBRANCH  13  15
BRANCH  13  29
ATOM     29  C8  non d ame     -34.230   4.803  26.092  0.00  0.00    -0.049 C 
ATOM     30  H7  non d ame     -34.354   3.755  26.364  0.00  0.00     0.030 H 
ATOM     31  H8  non d ame     -35.177   5.195  25.721  0.00  0.00     0.030 H 
ATOM     32  H9  non d ame     -33.472   4.889  25.313  0.00  0.00     0.030 H 
ENDBRANCH  13  29
ENDBRANCH  10  13
ENDBRANCH   7   9
BRANCH   7  33
ATOM     33  C11 non d ame     -32.964   9.286  24.042  0.00  0.00    -0.033 C 
ATOM     34  H12 non d ame     -33.511  10.227  24.088  0.00  0.00     0.042 H 
BRANCH  33  35
ATOM     35  C12 non d ame     -31.689   9.526  23.175  0.00  0.00    -0.071 C 
ATOM     36  H13 non d ame     -31.280   8.566  22.858  0.00  0.00     0.028 H 
ATOM     37  H14 non d ame     -31.951  10.117  22.299  0.00  0.00     0.028 H 
ATOM     38  H15 non d ame     -30.943  10.059  23.765  0.00  0.00     0.028 H 
ENDBRANCH  33  35
BRANCH  33  39
ATOM     39  C13 non d ame     -33.898   8.215  23.394  0.00  0.00    -0.071 C 
ATOM     40  H16 non d ame     -34.847   8.188  23.929  0.00  0.00     0.028 H 
ATOM     41  H17 non d ame     -34.076   8.472  22.349  0.00  0.00     0.028 H 
ATOM     42  H18 non d ame     -33.422   7.236  23.449  0.00  0.00     0.028 H 
ENDBRANCH  33  39
ENDBRANCH   7  33
ENDBRANCH   4   7
ENDBRANCH   1   3
BRANCH   1  43
ATOM     43  C15 non d ame     -31.878  13.640  26.482  0.00  0.00     0.240 C 
ATOM     44  O5  non d ame     -30.814  14.166  26.412  0.00  0.00    -0.271 OA
ATOM     45  N6  non d ame     -33.043  14.226  25.760  0.00  0.00    -0.355 N 
ATOM     46  H46 non d ame     -33.951  13.785  25.808  0.00  0.00     0.162 HD
BRANCH  45  47
ATOM     47  C20 non d ame     -32.868  15.462  24.968  0.00  0.00     0.013 C 
ATOM     48  H30 non d ame     -32.047  16.028  25.408  0.00  0.00     0.072 H 
BRANCH  47  49
ATOM     49  C21 non d ame     -34.142  16.274  25.019  0.00  0.00    -0.038 C 
ATOM     50  H31 non d ame     -33.964  17.054  25.760  0.00  0.00     0.036 H 
ATOM     51  H32 non d ame     -34.361  16.544  23.986  0.00  0.00     0.036 H 
BRANCH  49  52
ATOM     52  C22 non d ame     -35.352  15.458  25.524  0.00  0.00     0.018 C 
ATOM     53  H33 non d ame     -35.872  15.119  24.629  0.00  0.00     0.048 H 
ATOM     54  H34 non d ame     -34.945  14.732  26.227  0.00  0.00     0.048 H 
BRANCH  52  55
ATOM     55  C23 non d ame     -36.384  16.299  26.326  0.00  0.00     0.259 C 
ATOM     56  O7  non d ame     -36.957  15.826  27.253  0.00  0.00    -0.265 OA
BRANCH  55  57
ATOM     57  O8  non d ame     -36.647  17.641  25.930  0.00  0.00    -0.317 OA
BRANCH  57  58
ATOM     58  C29 non d ame     -36.427  18.606  26.962  0.00  0.00     0.052 C 
ATOM     59  H47 non d ame     -36.974  19.497  26.654  0.00  0.00     0.082 H 
ATOM     60  H48 non d ame     -36.682  18.105  27.895  0.00  0.00     0.082 H 
BRANCH  58  61
ATOM     61  C35 non d ame     -34.912  18.944  26.986  0.00  0.00    -0.034 A 
ATOM     62  C30 non d ame     -34.357  19.725  25.977  0.00  0.00    -0.075 A 
ATOM     63  C31 non d ame     -32.996  20.028  25.998  0.00  0.00    -0.082 A 
ATOM     64  H49 non d ame     -34.987  20.099  25.170  0.00  0.00     0.084 H 
ATOM     65  C32 non d ame     -32.190  19.546  27.032  0.00  0.00    -0.083 A 
ATOM     66  H50 non d ame     -32.564  20.642  25.206  0.00  0.00     0.083 H 
ATOM     67  C33 non d ame     -32.747  18.764  28.034  0.00  0.00    -0.082 A 
ATOM     68  H51 non d ame     -31.124  19.779  27.056  0.00  0.00     0.083 H 
ATOM     69  C34 non d ame     -34.107  18.460  28.018  0.00  0.00    -0.075 A 
ATOM     70  H52 non d ame     -32.114  18.387  28.838  0.00  0.00     0.083 H 
ATOM     71  H53 non d ame     -34.538  17.847  28.810  0.00  0.00     0.084 H 
ENDBRANCH  58  61
ENDBRANCH  57  58
ENDBRANCH  55  57
ENDBRANCH  52  55
ENDBRANCH  49  52
ENDBRANCH  47  49
BRANCH  47  72
ATOM     72  C24 non d ame     -32.548  15.105  23.517  0.00  0.00    -0.039 C 
ATOM     73  H35 non d ame     -32.600  14.017  23.469  0.00  0.00     0.036 H 
ATOM     74  H36 non d ame     -33.224  15.710  22.914  0.00  0.00     0.036 H 
BRANCH  72  75
ATOM     75  C25 non d ame     -31.054  15.525  23.119  0.00  0.00    -0.001 C 
ATOM     76  C26 non d ame     -31.056  16.278  21.658  0.00  0.00    -0.035 C 
ATOM     77  C27 non d ame     -30.134  15.687  20.860  0.00  0.00     0.085 C 
ATOM     78  H38 non d ame     -31.997  16.092  21.141  0.00  0.00     0.036 H 
ATOM     79  H39 non d ame     -30.685  17.298  21.762  0.00  0.00     0.036 H 
ATOM     80  N5  non d ame     -29.737  14.393  21.530  0.00  0.00    -0.049 N 
ATOM     81  H40 non d ame     -30.657  15.460  19.930  0.00  0.00     0.075 H 
ATOM     82  H41 non d ame     -29.279  16.361  20.854  0.00  0.00     0.075 H 
ATOM     83  C28 non d ame     -30.283  14.492  23.046  0.00  0.00     0.193 C 
ATOM     84  H42 non d ame     -30.241  13.659  21.055  0.00  0.00     0.280 HD
ATOM     85  H43 non d ame     -28.727  14.381  21.551  0.00  0.00     0.280 HD
ATOM     86  H44 non d ame     -29.597  14.700  23.868  0.00  0.00     0.129 H 
ATOM     87  H37 non d ame     -30.535  16.027  23.935  0.00  0.00     0.046 H 
BRANCH  83  88
ATOM     88  O6  non d ame     -30.959  13.287  23.407  0.00  0.00    -0.369 OA
ATOM     89  H45 non d ame     -31.303  13.367  24.300  0.00  0.00     0.212 HD
ENDBRANCH  83  88
ENDBRANCH  72  75
ENDBRANCH  47  72
ENDBRANCH  45  47
ENDBRANCH   1  43
BRANCH   1  90
ATOM     90  C16 non d ame     -31.011  12.314  28.434  0.00  0.00    -0.035 C 
ATOM     91  H21 non d ame     -30.834  11.259  28.640  0.00  0.00     0.037 H 
ATOM     92  H22 non d ame     -30.194  12.946  28.085  0.00  0.00     0.037 H 
BRANCH  90  93
ATOM     93  C17 non d ame     -31.516  12.944  29.771  0.00  0.00    -0.059 C 
ATOM     94  H23 non d ame     -32.606  12.945  29.744  0.00  0.00     0.038 H 
BRANCH  93  95
ATOM     95  C18 non d ame     -31.073  12.115  31.019  0.00  0.00    -0.073 C 
ATOM     96  H24 non d ame     -31.794  12.255  31.824  0.00  0.00     0.028 H 
ATOM     97  H25 non d ame     -31.025  11.059  30.755  0.00  0.00     0.028 H 
ATOM     98  H26 non d ame     -30.090  12.452  31.348  0.00  0.00     0.028 H 
ENDBRANCH  93  95
BRANCH  93  99
ATOM     99  C19 non d ame     -31.062  14.401  29.895  0.00  0.00    -0.073 C 
ATOM    100  H27 non d ame     -30.732  14.762  28.921  0.00  0.00     0.028 H 
ATOM    101  H28 non d ame     -31.893  15.013  30.247  0.00  0.00     0.028 H 
ATOM    102  H29 non d ame     -30.238  14.465  30.605  0.00  0.00     0.028 H 
ENDBRANCH  93  99
ENDBRANCH  90  93
ENDBRANCH   1  90
TORSDOF 26
ENDMDL
MODEL 19
REMARK VINA RESULT:      -6.1      2.847     10.327
REMARK  26 active torsions:
REMARK  status: ('A' for Active; 'I' for Inactive)
REMARK    1  A    between atoms: C2_2  and  C3_3 
REMARK    2  A    between atoms: C4_6  and  C5_7 
REMARK       I    between atoms: C5_7  and  N2_9 
REMARK    3  A    between atoms: N2_9  and  C6_10 
REMARK    4  A    between atoms: C6_10  and  C7_11 
REMARK    5  A    between atoms: C6_10  and  C8_13 
REMARK       I    between atoms: C7_11  and  N3_14 
REMARK    6  A    between atoms: N3_14  and  C9_15 
REMARK    7  A    between atoms: C9_15  and  C10_16 
REMARK    8  A    between atoms: C9_15  and  C11_18 
REMARK       I    between atoms: C10_16  and  N4_21 
REMARK    9  A    between atoms: C11_18  and  C12_19 
REMARK   10  A    between atoms: C11_18  and  C13_20 
REMARK   11  A    between atoms: N4_21  and  C14_22 
REMARK   12  A    between atoms: C14_22  and  C15_23 
REMARK   13  A    between atoms: C14_22  and  C16_25 
REMARK       I    between atoms: C15_23  and  N6_40 
REMARK   14  A    between atoms: C16_25  and  C17_26 
REMARK   15  A    between atoms: C17_26  and  C18_27 
REMARK   16  A    between atoms: C17_26  and  C19_28 
REMARK   17  A    between atoms: C20_29  and  C21_30 
REMARK   18  A    between atoms: C20_29  and  C24_33 
REMARK   19  A    between atoms: C20_29  and  N6_40 
REMARK   20  A    between atoms: C21_30  and  C22_31 
REMARK   21  A    between atoms: C22_31  and  C23_32 
REMARK   22  A    between atoms: C23_32  and  O8_43 
REMARK   23  A    between atoms: C24_33  and  C25_34 
REMARK   24  A    between atoms: C28_38  and  O6_39 
REMARK   25  A    between atoms: C29_42  and  O8_43 
REMARK   26  A    between atoms: C29_42  and  C35_49 
ROOT
ATOM      1  C14 non d ame     -34.627   8.676  31.035  0.00  0.00     0.089 C 
ATOM      2  H20 non d ame     -33.721   8.956  31.572  0.00  0.00     0.087 H 
ENDROOT
BRANCH   1   3
ATOM      3  N4  non d ame     -34.565   9.293  29.718  0.00  0.00    -0.346 N 
ATOM      4  C10 non d ame     -33.441  10.235  29.371  0.00  0.00     0.241 C 
ATOM      5  O4  non d ame     -32.597  10.484  30.168  0.00  0.00    -0.271 OA
ATOM      6  H19 non d ame     -35.293   9.071  29.055  0.00  0.00     0.163 HD
BRANCH   4   7
ATOM      7  C9  non d ame     -33.389  10.861  28.002  0.00  0.00     0.092 C 
ATOM      8  H11 non d ame     -34.342  11.347  27.794  0.00  0.00     0.088 H 
BRANCH   7   9
ATOM      9  N3  non d ame     -32.357  11.903  27.980  0.00  0.00    -0.346 N 
ATOM     10  C7  non d ame     -32.706  13.254  27.616  0.00  0.00     0.240 C 
ATOM     11  O3  non d ame     -33.811  13.521  27.337  0.00  0.00    -0.271 OA
ATOM     12  H10 non d ame     -31.399  11.687  28.216  0.00  0.00     0.163 HD
BRANCH  10  13
ATOM     13  C6  non d ame     -31.603  14.358  27.590  0.00  0.00     0.086 C 
ATOM     14  H6  non d ame     -31.026  14.356  26.666  0.00  0.00     0.086 H 
BRANCH  13  15
ATOM     15  N2  non d ame     -32.239  15.662  27.681  0.00  0.00    -0.343 N 
ATOM     16  C5  non d ame     -32.139  16.593  26.556  0.00  0.00     0.273 C 
ATOM     17  O2  non d ame     -31.542  16.286  25.583  0.00  0.00    -0.266 OA
ATOM     18  H5  non d ame     -32.744  15.917  28.517  0.00  0.00     0.163 HD
BRANCH  16  19
ATOM     19  C4  non d ame     -32.807  17.975  26.638  0.00  0.00     0.154 A 
ATOM     20  C1  non d ame     -34.207  18.254  26.733  0.00  0.00    -0.017 A 
ATOM     21  C2  non d ame     -34.293  19.663  26.781  0.00  0.00     0.077 A 
ATOM     22  H1  non d ame     -35.032  17.544  26.764  0.00  0.00     0.091 H 
ATOM     23  O1  non d ame     -33.081  20.129  26.721  0.00  0.00    -0.218 OA
ATOM     24  N1  non d ame     -32.195  19.162  26.637  0.00  0.00    -0.123 NA
BRANCH  21  25
ATOM     25  C3  non d ame     -35.571  20.485  26.884  0.00  0.00    -0.029 C 
ATOM     26  H2  non d ame     -36.428  19.817  26.961  0.00  0.00     0.036 H 
ATOM     27  H3  non d ame     -35.526  21.118  27.771  0.00  0.00     0.036 H 
ATOM     28  H4  non d ame     -35.676  21.110  25.998  0.00  0.00     0.036 H 
ENDBRANCH  21  25
ENDBRANCH  16  19
ENDBRANCH  13  15
BRANCH  13  29
ATOM     29  C8  non d ame     -30.663  14.159  28.751  0.00  0.00    -0.049 C 
ATOM     30  H7  non d ame     -29.637  14.126  28.387  0.00  0.00     0.030 H 
ATOM     31  H8  non d ame     -30.771  14.986  29.453  0.00  0.00     0.030 H 
ATOM     32  H9  non d ame     -30.900  13.221  29.255  0.00  0.00     0.030 H 
ENDBRANCH  13  29
ENDBRANCH  10  13
ENDBRANCH   7   9
BRANCH   7  33
ATOM     33  C11 non d ame     -33.043   9.770  26.946  0.00  0.00    -0.033 C 
ATOM     34  H12 non d ame     -32.759   8.868  27.487  0.00  0.00     0.042 H 
BRANCH  33  35
ATOM     35  C12 non d ame     -34.283   9.419  26.066  0.00  0.00    -0.071 C 
ATOM     36  H13 non d ame     -34.301   8.345  25.876  0.00  0.00     0.028 H 
ATOM     37  H14 non d ame     -35.194   9.711  26.588  0.00  0.00     0.028 H 
ATOM     38  H15 non d ame     -34.219   9.953  25.118  0.00  0.00     0.028 H 
ENDBRANCH  33  35
BRANCH  33  39
ATOM     39  C13 non d ame     -31.830  10.209  26.066  0.00  0.00    -0.071 C 
ATOM     40  H16 non d ame     -32.180  10.851  25.257  0.00  0.00     0.028 H 
ATOM     41  H17 non d ame     -31.113  10.755  26.680  0.00  0.00     0.028 H 
ATOM     42  H18 non d ame     -31.347   9.326  25.645  0.00  0.00     0.028 H 
ENDBRANCH  33  39
ENDBRANCH   7  33
ENDBRANCH   4   7
ENDBRANCH   1   3
BRANCH   1  43
ATOM     43  C15 non d ame     -34.750   7.135  30.854  0.00  0.00     0.240 C 
ATOM     44  O5  non d ame     -35.097   6.459  31.767  0.00  0.00    -0.271 OA
ATOM     45  N6  non d ame     -34.443   6.504  29.539  0.00  0.00    -0.355 N 
ATOM     46  H46 non d ame     -34.152   7.069  28.754  0.00  0.00     0.162 HD
BRANCH  45  47
ATOM     47  C20 non d ame     -34.565   5.038  29.384  0.00  0.00     0.013 C 
ATOM     48  H30 non d ame     -34.754   4.612  30.369  0.00  0.00     0.072 H 
BRANCH  47  49
ATOM     49  C21 non d ame     -33.276   4.486  28.819  0.00  0.00    -0.038 C 
ATOM     50  H31 non d ame     -32.489   5.151  29.177  0.00  0.00     0.036 H 
ATOM     51  H32 non d ame     -33.264   3.430  29.092  0.00  0.00     0.036 H 
BRANCH  49  52
ATOM     52  C22 non d ame     -33.226   4.539  27.276  0.00  0.00     0.018 C 
ATOM     53  H33 non d ame     -32.556   3.735  26.976  0.00  0.00     0.048 H 
ATOM     54  H34 non d ame     -34.265   4.535  26.948  0.00  0.00     0.048 H 
BRANCH  52  55
ATOM     55  C23 non d ame     -32.605   5.848  26.715  0.00  0.00     0.259 C 
ATOM     56  O7  non d ame     -31.893   6.516  27.393  0.00  0.00    -0.265 OA
BRANCH  55  57
ATOM     57  O8  non d ame     -32.908   6.248  25.384  0.00  0.00    -0.317 OA
BRANCH  57  58
ATOM     58  C29 non d ame     -31.784   6.225  24.499  0.00  0.00     0.052 C 
ATOM     59  H47 non d ame     -31.116   7.011  24.850  0.00  0.00     0.082 H 
ATOM     60  H48 non d ame     -31.445   5.190  24.478  0.00  0.00     0.082 H 
BRANCH  58  61
ATOM     61  C35 non d ame     -32.286   6.604  23.079  0.00  0.00    -0.034 A 
ATOM     62  C30 non d ame     -32.910   7.829  22.866  0.00  0.00    -0.075 A 
ATOM     63  C31 non d ame     -33.362   8.170  21.592  0.00  0.00    -0.082 A 
ATOM     64  H49 non d ame     -33.048   8.522  23.697  0.00  0.00     0.084 H 
ATOM     65  C32 non d ame     -33.187   7.280  20.528  0.00  0.00    -0.083 A 
ATOM     66  H50 non d ame     -33.849   9.132  21.427  0.00  0.00     0.083 H 
ATOM     67  C33 non d ame     -32.567   6.057  20.747  0.00  0.00    -0.082 A 
ATOM     68  H51 non d ame     -33.536   7.539  19.528  0.00  0.00     0.083 H 
ATOM     69  C34 non d ame     -32.113   5.714  22.019  0.00  0.00    -0.075 A 
ATOM     70  H52 non d ame     -32.435   5.364  19.916  0.00  0.00     0.083 H 
ATOM     71  H53 non d ame     -31.625   4.752  22.182  0.00  0.00     0.084 H 
ENDBRANCH  58  61
ENDBRANCH  57  58
ENDBRANCH  55  57
ENDBRANCH  52  55
ENDBRANCH  49  52
ENDBRANCH  47  49
BRANCH  47  72
ATOM     72  C24 non d ame     -35.718   4.714  28.436  0.00  0.00    -0.039 C 
ATOM     73  H35 non d ame     -35.317   4.856  27.432  0.00  0.00     0.036 H 
ATOM     74  H36 non d ame     -36.080   3.732  28.744  0.00  0.00     0.036 H 
BRANCH  72  75
ATOM     75  C25 non d ame     -36.935   5.741  28.609  0.00  0.00    -0.001 C 
ATOM     76  C26 non d ame     -38.153   5.029  29.453  0.00  0.00    -0.035 C 
ATOM     77  C27 non d ame     -39.310   5.183  28.764  0.00  0.00     0.085 C 
ATOM     78  H38 non d ame     -38.011   3.949  29.476  0.00  0.00     0.036 H 
ATOM     79  H39 non d ame     -38.334   5.574  30.380  0.00  0.00     0.036 H 
ATOM     80  N5  non d ame     -38.938   5.645  27.376  0.00  0.00    -0.049 N 
ATOM     81  H40 non d ame     -39.746   4.185  28.703  0.00  0.00     0.075 H 
ATOM     82  H41 non d ame     -39.847   5.982  29.273  0.00  0.00     0.075 H 
ATOM     83  C28 non d ame     -37.396   6.116  27.462  0.00  0.00     0.193 C 
ATOM     84  H42 non d ame     -38.993   4.833  26.780  0.00  0.00     0.280 HD
ATOM     85  H43 non d ame     -39.511   6.454  27.182  0.00  0.00     0.280 HD
ATOM     86  H44 non d ame     -37.142   7.176  27.484  0.00  0.00     0.129 H 
ATOM     87  H37 non d ame     -36.602   6.721  28.950  0.00  0.00     0.046 H 
BRANCH  83  88
ATOM     88  O6  non d ame     -36.651   5.566  26.375  0.00  0.00    -0.369 OA
ATOM     89  H45 non d ame     -37.056   4.742  26.093  0.00  0.00     0.212 HD
ENDBRANCH  83  88
ENDBRANCH  72  75
ENDBRANCH  47  72
ENDBRANCH  45  47
ENDBRANCH   1  43
BRANCH   1  90
ATOM     90  C16 non d ame     -35.847   9.202  31.773  0.00  0.00    -0.035 C 
ATOM     91  H21 non d ame     -36.027   8.490  32.577  0.00  0.00     0.037 H 
ATOM     92  H22 non d ame     -35.617  10.242  32.006  0.00  0.00     0.037 H 
BRANCH  90  93
ATOM     93  C17 non d ame     -37.145   9.220  30.904  0.00  0.00    -0.059 C 
ATOM     94  H23 non d ame     -36.863   8.958  29.884  0.00  0.00     0.038 H 
BRANCH  93  95
ATOM     95  C18 non d ame     -38.196   8.173  31.392  0.00  0.00    -0.073 C 
ATOM     96  H24 non d ame     -38.150   8.089  32.478  0.00  0.00     0.028 H 
ATOM     97  H25 non d ame     -39.195   8.495  31.096  0.00  0.00     0.028 H 
ATOM     98  H26 non d ame     -37.979   7.204  30.943  0.00  0.00     0.028 H 
ENDBRANCH  93  95
BRANCH  93  99
ATOM     99  C19 non d ame     -37.755  10.624  30.862  0.00  0.00    -0.073 C 
ATOM    100  H27 non d ame     -37.949  10.904  29.825  0.00  0.00     0.028 H 
ATOM    101  H28 non d ame     -38.691  10.632  31.420  0.00  0.00     0.028 H 
ATOM    102  H29 non d ame     -37.060  11.336  31.307  0.00  0.00     0.028 H 
ENDBRANCH  93  99
ENDBRANCH  90  93
ENDBRANCH   1  90
TORSDOF 26
ENDMDL
MODEL 20
REMARK VINA RESULT:      -6.1      2.955      4.946
REMARK  26 active torsions:
REMARK  status: ('A' for Active; 'I' for Inactive)
REMARK    1  A    between atoms: C2_2  and  C3_3 
REMARK    2  A    between atoms: C4_6  and  C5_7 
REMARK       I    between atoms: C5_7  and  N2_9 
REMARK    3  A    between atoms: N2_9  and  C6_10 
REMARK    4  A    between atoms: C6_10  and  C7_11 
REMARK    5  A    between atoms: C6_10  and  C8_13 
REMARK       I    between atoms: C7_11  and  N3_14 
REMARK    6  A    between atoms: N3_14  and  C9_15 
REMARK    7  A    between atoms: C9_15  and  C10_16 
REMARK    8  A    between atoms: C9_15  and  C11_18 
REMARK       I    between atoms: C10_16  and  N4_21 
REMARK    9  A    between atoms: C11_18  and  C12_19 
REMARK   10  A    between atoms: C11_18  and  C13_20 
REMARK   11  A    between atoms: N4_21  and  C14_22 
REMARK   12  A    between atoms: C14_22  and  C15_23 
REMARK   13  A    between atoms: C14_22  and  C16_25 
REMARK       I    between atoms: C15_23  and  N6_40 
REMARK   14  A    between atoms: C16_25  and  C17_26 
REMARK   15  A    between atoms: C17_26  and  C18_27 
REMARK   16  A    between atoms: C17_26  and  C19_28 
REMARK   17  A    between atoms: C20_29  and  C21_30 
REMARK   18  A    between atoms: C20_29  and  C24_33 
REMARK   19  A    between atoms: C20_29  and  N6_40 
REMARK   20  A    between atoms: C21_30  and  C22_31 
REMARK   21  A    between atoms: C22_31  and  C23_32 
REMARK   22  A    between atoms: C23_32  and  O8_43 
REMARK   23  A    between atoms: C24_33  and  C25_34 
REMARK   24  A    between atoms: C28_38  and  O6_39 
REMARK   25  A    between atoms: C29_42  and  O8_43 
REMARK   26  A    between atoms: C29_42  and  C35_49 
ROOT
ATOM      1  C14 non d ame     -34.927   9.962  24.373  0.00  0.00     0.089 C 
ATOM      2  H20 non d ame     -34.501  10.312  23.433  0.00  0.00     0.087 H 
ENDROOT
BRANCH   1   3
ATOM      3  N4  non d ame     -34.364   8.649  24.648  0.00  0.00    -0.346 N 
ATOM      4  C10 non d ame     -32.919   8.358  24.330  0.00  0.00     0.241 C 
ATOM      5  O4  non d ame     -32.229   9.197  23.851  0.00  0.00    -0.271 OA
ATOM      6  H19 non d ame     -34.968   7.949  25.053  0.00  0.00     0.163 HD
BRANCH   4   7
ATOM      7  C9  non d ame     -32.351   6.995  24.626  0.00  0.00     0.092 C 
ATOM      8  H11 non d ame     -31.363   7.107  25.071  0.00  0.00     0.088 H 
BRANCH   7   9
ATOM      9  N3  non d ame     -33.197   6.316  25.612  0.00  0.00    -0.346 N 
ATOM     10  C7  non d ame     -32.744   6.174  26.974  0.00  0.00     0.240 C 
ATOM     11  O3  non d ame     -31.702   6.601  27.293  0.00  0.00    -0.271 OA
ATOM     12  H10 non d ame     -34.097   5.941  25.350  0.00  0.00     0.163 HD
BRANCH  10  13
ATOM     13  C6  non d ame     -33.647   5.448  28.018  0.00  0.00     0.086 C 
ATOM     14  H6  non d ame     -33.124   4.649  28.544  0.00  0.00     0.086 H 
BRANCH  13  15
ATOM     15  N2  non d ame     -34.065   6.406  29.028  0.00  0.00    -0.343 N 
ATOM     16  C5  non d ame     -34.785   7.614  28.621  0.00  0.00     0.273 C 
ATOM     17  O2  non d ame     -35.021   7.808  27.480  0.00  0.00    -0.266 OA
ATOM     18  H5  non d ame     -33.857   6.233  30.001  0.00  0.00     0.163 HD
BRANCH  16  19
ATOM     19  C4  non d ame     -35.234   8.635  29.679  0.00  0.00     0.154 A 
ATOM     20  C1  non d ame     -34.624   8.891  30.947  0.00  0.00    -0.017 A 
ATOM     21  C2  non d ame     -35.411   9.909  31.530  0.00  0.00     0.077 A 
ATOM     22  H1  non d ame     -33.744   8.413  31.378  0.00  0.00     0.091 H 
ATOM     23  O1  non d ame     -36.359  10.197  30.688  0.00  0.00    -0.218 OA
ATOM     24  N1  non d ame     -36.277   9.466  29.599  0.00  0.00    -0.123 NA
BRANCH  21  25
ATOM     25  C3  non d ame     -35.190  10.551  32.893  0.00  0.00    -0.029 C 
ATOM     26  H2  non d ame     -35.439  11.611  32.840  0.00  0.00     0.036 H 
ATOM     27  H3  non d ame     -35.828  10.066  33.632  0.00  0.00     0.036 H 
ATOM     28  H4  non d ame     -34.146  10.437  33.184  0.00  0.00     0.036 H 
ENDBRANCH  21  25
ENDBRANCH  16  19
ENDBRANCH  13  15
BRANCH  13  29
ATOM     29  C8  non d ame     -34.853   4.866  27.326  0.00  0.00    -0.049 C 
ATOM     30  H7  non d ame     -35.082   3.890  27.752  0.00  0.00     0.030 H 
ATOM     31  H8  non d ame     -35.706   5.530  27.463  0.00  0.00     0.030 H 
ATOM     32  H9  non d ame     -34.643   4.758  26.261  0.00  0.00     0.030 H 
ENDBRANCH  13  29
ENDBRANCH  10  13
ENDBRANCH   7   9
BRANCH   7  33
ATOM     33  C11 non d ame     -32.312   6.155  23.315  0.00  0.00    -0.033 C 
ATOM     34  H12 non d ame     -32.228   5.106  23.598  0.00  0.00     0.042 H 
BRANCH  33  35
ATOM     35  C12 non d ame     -33.632   6.316  22.498  0.00  0.00    -0.071 C 
ATOM     36  H13 non d ame     -33.768   5.448  21.852  0.00  0.00     0.028 H 
ATOM     37  H14 non d ame     -34.475   6.396  23.182  0.00  0.00     0.028 H 
ATOM     38  H15 non d ame     -33.573   7.216  21.886  0.00  0.00     0.028 H 
ENDBRANCH  33  35
BRANCH  33  39
ATOM     39  C13 non d ame     -31.063   6.524  22.452  0.00  0.00    -0.071 C 
ATOM     40  H16 non d ame     -30.770   5.663  21.849  0.00  0.00     0.028 H 
ATOM     41  H17 non d ame     -31.306   7.361  21.797  0.00  0.00     0.028 H 
ATOM     42  H18 non d ame     -30.238   6.805  23.107  0.00  0.00     0.028 H 
ENDBRANCH  33  39
ENDBRANCH   7  33
ENDBRANCH   4   7
ENDBRANCH   1   3
BRANCH   1  43
ATOM     43  C15 non d ame     -34.583  10.907  25.561  0.00  0.00     0.240 C 
ATOM     44  O5  non d ame     -35.261  10.901  26.537  0.00  0.00    -0.271 OA
ATOM     45  N6  non d ame     -33.402  11.814  25.485  0.00  0.00    -0.355 N 
ATOM     46  H46 non d ame     -32.816  11.825  24.662  0.00  0.00     0.162 HD
BRANCH  45  47
ATOM     47  C20 non d ame     -33.088  12.705  26.622  0.00  0.00     0.013 C 
ATOM     48  H30 non d ame     -33.687  12.383  27.474  0.00  0.00     0.072 H 
BRANCH  47  49
ATOM     49  C21 non d ame     -33.436  14.129  26.253  0.00  0.00    -0.038 C 
ATOM     50  H31 non d ame     -32.501  14.686  26.314  0.00  0.00     0.036 H 
ATOM     51  H32 non d ame     -33.971  14.065  25.305  0.00  0.00     0.036 H 
BRANCH  49  52
ATOM     52  C22 non d ame     -34.406  14.789  27.257  0.00  0.00     0.018 C 
ATOM     53  H33 non d ame     -35.115  15.354  26.655  0.00  0.00     0.048 H 
ATOM     54  H34 non d ame     -34.757  13.982  27.901  0.00  0.00     0.048 H 
BRANCH  52  55
ATOM     55  C23 non d ame     -33.725  15.821  28.198  0.00  0.00     0.259 C 
ATOM     56  O7  non d ame     -32.713  15.549  28.760  0.00  0.00    -0.265 OA
BRANCH  55  57
ATOM     57  O8  non d ame     -34.332  17.093  28.393  0.00  0.00    -0.317 OA
BRANCH  57  58
ATOM     58  C29 non d ame     -33.727  18.149  27.641  0.00  0.00     0.052 C 
ATOM     59  H47 non d ame     -33.318  18.839  28.378  0.00  0.00     0.082 H 
ATOM     60  H48 non d ame     -33.068  17.661  26.924  0.00  0.00     0.082 H 
BRANCH  58  61
ATOM     61  C35 non d ame     -34.849  18.879  26.854  0.00  0.00    -0.034 A 
ATOM     62  C30 non d ame     -35.304  20.122  27.284  0.00  0.00    -0.075 A 
ATOM     63  C31 non d ame     -36.312  20.778  26.578  0.00  0.00    -0.082 A 
ATOM     64  H49 non d ame     -34.873  20.582  28.173  0.00  0.00     0.084 H 
ATOM     65  C32 non d ame     -36.866  20.186  25.440  0.00  0.00    -0.083 A 
ATOM     66  H50 non d ame     -36.666  21.753  26.916  0.00  0.00     0.083 H 
ATOM     67  C33 non d ame     -36.411  18.944  25.018  0.00  0.00    -0.082 A 
ATOM     68  H51 non d ame     -37.654  20.693  24.882  0.00  0.00     0.083 H 
ATOM     69  C34 non d ame     -35.403  18.286  25.719  0.00  0.00    -0.075 A 
ATOM     70  H52 non d ame     -36.847  18.483  24.130  0.00  0.00     0.083 H 
ATOM     71  H53 non d ame     -35.050  17.312  25.380  0.00  0.00     0.084 H 
ENDBRANCH  58  61
ENDBRANCH  57  58
ENDBRANCH  55  57
ENDBRANCH  52  55
ENDBRANCH  49  52
ENDBRANCH  47  49
BRANCH  47  72
ATOM     72  C24 non d ame     -31.600  12.612  26.955  0.00  0.00    -0.039 C 
ATOM     73  H35 non d ame     -31.190  11.888  26.250  0.00  0.00     0.036 H 
ATOM     74  H36 non d ame     -31.238  13.641  26.951  0.00  0.00     0.036 H 
BRANCH  72  75
ATOM     75  C25 non d ame     -31.357  12.030  28.427  0.00  0.00    -0.001 C 
ATOM     76  C26 non d ame     -32.799  11.738  29.159  0.00  0.00    -0.035 C 
ATOM     77  C27 non d ame     -32.800  12.332  30.376  0.00  0.00     0.085 C 
ATOM     78  H38 non d ame     -33.600  12.249  28.625  0.00  0.00     0.036 H 
ATOM     79  H39 non d ame     -32.892  10.677  29.393  0.00  0.00     0.036 H 
ATOM     80  N5  non d ame     -31.621  13.275  30.407  0.00  0.00    -0.049 N 
ATOM     81  H40 non d ame     -33.722  12.913  30.416  0.00  0.00     0.075 H 
ATOM     82  H41 non d ame     -32.631  11.529  31.092  0.00  0.00     0.075 H 
ATOM     83  C28 non d ame     -30.690  12.863  29.154  0.00  0.00     0.193 C 
ATOM     84  H42 non d ame     -31.990  14.200  30.242  0.00  0.00     0.280 HD
ATOM     85  H43 non d ame     -31.119  13.076  31.261  0.00  0.00     0.280 HD
ATOM     86  H44 non d ame     -29.771  12.297  29.311  0.00  0.00     0.129 H 
ATOM     87  H37 non d ame     -30.624  11.224  28.435  0.00  0.00     0.046 H 
BRANCH  83  88
ATOM     88  O6  non d ame     -30.303  14.028  28.423  0.00  0.00    -0.369 OA
ATOM     89  H45 non d ame     -30.347  14.796  28.998  0.00  0.00     0.212 HD
ENDBRANCH  83  88
ENDBRANCH  72  75
ENDBRANCH  47  72
ENDBRANCH  45  47
ENDBRANCH   1  43
BRANCH   1  90
ATOM     90  C16 non d ame     -36.437   9.838  24.240  0.00  0.00    -0.035 C 
ATOM     91  H21 non d ame     -36.847  10.405  25.074  0.00  0.00     0.037 H 
ATOM     92  H22 non d ame     -36.661  10.134  23.215  0.00  0.00     0.037 H 
BRANCH  90  93
ATOM     93  C17 non d ame     -36.961   8.375  24.402  0.00  0.00    -0.059 C 
ATOM     94  H23 non d ame     -36.102   7.739  24.617  0.00  0.00     0.038 H 
BRANCH  93  95
ATOM     95  C18 non d ame     -37.964   8.237  25.591  0.00  0.00    -0.073 C 
ATOM     96  H24 non d ame     -38.142   9.217  26.034  0.00  0.00     0.028 H 
ATOM     97  H25 non d ame     -38.907   7.829  25.226  0.00  0.00     0.028 H 
ATOM     98  H26 non d ame     -37.546   7.569  26.344  0.00  0.00     0.028 H 
ENDBRANCH  93  95
BRANCH  93  99
ATOM     99  C19 non d ame     -37.588   7.871  23.100  0.00  0.00    -0.073 C 
ATOM    100  H27 non d ame     -37.848   8.723  22.469  0.00  0.00     0.028 H 
ATOM    101  H28 non d ame     -36.875   7.236  22.574  0.00  0.00     0.028 H 
ATOM    102  H29 non d ame     -38.487   7.299  23.327  0.00  0.00     0.028 H 
ENDBRANCH  93  99
ENDBRANCH  90  93
ENDBRANCH   1  90
TORSDOF 26
ENDMDL
