MODEL 1
REMARK VINA RESULT:      -6.8      0.000      0.000
REMARK  26 active torsions:
REMARK  status: ('A' for Active; 'I' for Inactive)
REMARK    1  A    between atoms: C2_2  and  C3_3 
REMARK    2  A    between atoms: C4_6  and  C5_7 
REMARK       I    between atoms: C5_7  and  N2_9 
REMARK    3  A    between atoms: N2_9  and  C6_10 
REMARK    4  A    between atoms: C6_10  and  C7_11 
REMARK    5  A    between atoms: C6_10  and  C8_13 
REMARK       I    between atoms: C7_11  and  N3_14 
REMARK    6  A    between atoms: N3_14  and  C9_15 
REMARK    7  A    between atoms: C9_15  and  C10_16 
REMARK    8  A    between atoms: C9_15  and  C11_18 
REMARK       I    between atoms: C10_16  and  N4_21 
REMARK    9  A    between atoms: C11_18  and  C12_19 
REMARK   10  A    between atoms: C11_18  and  C13_20 
REMARK   11  A    between atoms: N4_21  and  C14_22 
REMARK   12  A    between atoms: C14_22  and  C15_23 
REMARK   13  A    between atoms: C14_22  and  C16_25 
REMARK       I    between atoms: C15_23  and  N6_40 
REMARK   14  A    between atoms: C16_25  and  C17_26 
REMARK   15  A    between atoms: C17_26  and  C18_27 
REMARK   16  A    between atoms: C17_26  and  C19_28 
REMARK   17  A    between atoms: C20_29  and  C21_30 
REMARK   18  A    between atoms: C20_29  and  C24_33 
REMARK   19  A    between atoms: C20_29  and  N6_40 
REMARK   20  A    between atoms: C21_30  and  C22_31 
REMARK   21  A    between atoms: C22_31  and  C23_32 
REMARK   22  A    between atoms: C23_32  and  O8_43 
REMARK   23  A    between atoms: C24_33  and  C25_34 
REMARK   24  A    between atoms: C28_38  and  O6_39 
REMARK   25  A    between atoms: C29_42  and  O8_43 
REMARK   26  A    between atoms: C29_42  and  C35_49 
ROOT
ATOM      1  C14 non d ame     -33.858   9.833  24.964  0.00  0.00     0.089 C 
ATOM      2  H20 non d ame     -34.270   9.092  24.278  0.00  0.00     0.087 H 
ENDROOT
BRANCH   1   3
ATOM      3  N4  non d ame     -34.743  10.987  24.947  0.00  0.00    -0.346 N 
ATOM      4  C10 non d ame     -36.205  10.822  24.619  0.00  0.00     0.241 C 
ATOM      5  O4  non d ame     -36.647   9.749  24.370  0.00  0.00    -0.271 OA
ATOM      6  H19 non d ame     -34.347  11.892  25.159  0.00  0.00     0.163 HD
BRANCH   4   7
ATOM      7  C9  non d ame     -37.108  12.027  24.611  0.00  0.00     0.092 C 
ATOM      8  H11 non d ame     -37.668  12.063  25.545  0.00  0.00     0.088 H 
BRANCH   7   9
ATOM      9  N3  non d ame     -36.296  13.246  24.545  0.00  0.00    -0.346 N 
ATOM     10  C7  non d ame     -36.230  14.130  25.682  0.00  0.00     0.240 C 
ATOM     11  O3  non d ame     -36.824  13.876  26.658  0.00  0.00    -0.271 OA
ATOM     12  H10 non d ame     -35.779  13.479  23.709  0.00  0.00     0.163 HD
BRANCH  10  13
ATOM     13  C6  non d ame     -35.367  15.428  25.606  0.00  0.00     0.086 C 
ATOM     14  H6  non d ame     -34.964  15.723  26.574  0.00  0.00     0.086 H 
BRANCH  13  15
ATOM     15  N2  non d ame     -34.227  15.185  24.737  0.00  0.00    -0.343 N 
ATOM     16  C5  non d ame     -32.892  15.607  25.165  0.00  0.00     0.273 C 
ATOM     17  O2  non d ame     -32.745  16.144  26.208  0.00  0.00    -0.266 OA
ATOM     18  H5  non d ame     -34.362  14.729  23.846  0.00  0.00     0.163 HD
BRANCH  16  19
ATOM     19  C4  non d ame     -31.678  15.357  24.256  0.00  0.00     0.154 A 
ATOM     20  C1  non d ame     -31.357  16.032  23.036  0.00  0.00    -0.017 A 
ATOM     21  C2  non d ame     -30.154  15.435  22.597  0.00  0.00     0.077 A 
ATOM     22  H1  non d ame     -31.911  16.832  22.546  0.00  0.00     0.091 H 
ATOM     23  O1  non d ame     -29.831  14.526  23.469  0.00  0.00    -0.218 OA
ATOM     24  N1  non d ame     -30.705  14.462  24.447  0.00  0.00    -0.123 NA
BRANCH  21  25
ATOM     25  C3  non d ame     -29.380  15.791  21.335  0.00  0.00    -0.029 C 
ATOM     26  H2  non d ame     -28.318  15.603  21.495  0.00  0.00     0.036 H 
ATOM     27  H3  non d ame     -29.734  15.180  20.505  0.00  0.00     0.036 H 
ATOM     28  H4  non d ame     -29.530  16.844  21.100  0.00  0.00     0.036 H 
ENDBRANCH  21  25
ENDBRANCH  16  19
ENDBRANCH  13  15
BRANCH  13  29
ATOM     29  C8  non d ame     -36.202  16.558  25.060  0.00  0.00    -0.049 C 
ATOM     30  H7  non d ame     -36.893  16.172  24.312  0.00  0.00     0.030 H 
ATOM     31  H8  non d ame     -36.766  17.018  25.872  0.00  0.00     0.030 H 
ATOM     32  H9  non d ame     -35.550  17.303  24.603  0.00  0.00     0.030 H 
ENDBRANCH  13  29
ENDBRANCH  10  13
ENDBRANCH   7   9
BRANCH   7  33
ATOM     33  C11 non d ame     -38.045  11.964  23.368  0.00  0.00    -0.033 C 
ATOM     34  H12 non d ame     -37.736  11.109  22.767  0.00  0.00     0.042 H 
BRANCH  33  35
ATOM     35  C12 non d ame     -39.530  11.731  23.788  0.00  0.00    -0.071 C 
ATOM     36  H13 non d ame     -39.842  12.522  24.471  0.00  0.00     0.028 H 
ATOM     37  H14 non d ame     -40.164  11.743  22.903  0.00  0.00     0.028 H 
ATOM     38  H15 non d ame     -39.619  10.766  24.287  0.00  0.00     0.028 H 
ENDBRANCH  33  35
BRANCH  33  39
ATOM     39  C13 non d ame     -37.898  13.249  22.492  0.00  0.00    -0.071 C 
ATOM     40  H16 non d ame     -38.286  13.053  21.492  0.00  0.00     0.028 H 
ATOM     41  H17 non d ame     -38.459  14.066  22.946  0.00  0.00     0.028 H 
ATOM     42  H18 non d ame     -36.846  13.525  22.425  0.00  0.00     0.028 H 
ENDBRANCH  33  39
ENDBRANCH   7  33
ENDBRANCH   4   7
ENDBRANCH   1   3
BRANCH   1  43
ATOM     43  C15 non d ame     -33.770   9.297  26.422  0.00  0.00     0.240 C 
ATOM     44  O5  non d ame     -33.210   8.272  26.643  0.00  0.00    -0.271 OA
ATOM     45  N6  non d ame     -34.377  10.066  27.546  0.00  0.00    -0.355 N 
ATOM     46  H46 non d ame     -34.852  10.941  27.371  0.00  0.00     0.162 HD
BRANCH  45  47
ATOM     47  C20 non d ame     -34.284   9.544  28.926  0.00  0.00     0.013 C 
ATOM     48  H30 non d ame     -34.286   8.455  28.872  0.00  0.00     0.072 H 
BRANCH  47  49
ATOM     49  C21 non d ame     -35.475  10.025  29.724  0.00  0.00    -0.038 C 
ATOM     50  H31 non d ame     -35.076  10.738  30.447  0.00  0.00     0.036 H 
ATOM     51  H32 non d ame     -36.211  10.349  28.988  0.00  0.00     0.036 H 
BRANCH  49  52
ATOM     52  C22 non d ame     -36.143   8.899  30.543  0.00  0.00     0.018 C 
ATOM     53  H33 non d ame     -37.021   9.349  31.002  0.00  0.00     0.048 H 
ATOM     54  H34 non d ame     -36.255   8.061  29.854  0.00  0.00     0.048 H 
BRANCH  52  55
ATOM     55  C23 non d ame     -35.268   8.374  31.715  0.00  0.00     0.259 C 
ATOM     56  O7  non d ame     -34.921   9.108  32.584  0.00  0.00    -0.265 OA
BRANCH  55  57
ATOM     57  O8  non d ame     -34.872   7.008  31.733  0.00  0.00    -0.317 OA
BRANCH  57  58
ATOM     58  C29 non d ame     -35.708   6.149  30.951  0.00  0.00     0.052 C 
ATOM     59  H47 non d ame     -36.101   5.407  31.645  0.00  0.00     0.082 H 
ATOM     60  H48 non d ame     -36.388   6.809  30.414  0.00  0.00     0.082 H 
BRANCH  58  61
ATOM     61  C35 non d ame     -34.809   5.424  29.913  0.00  0.00    -0.034 A 
ATOM     62  C30 non d ame     -33.714   4.680  30.341  0.00  0.00    -0.075 A 
ATOM     63  C31 non d ame     -32.906   4.028  29.409  0.00  0.00    -0.082 A 
ATOM     64  H49 non d ame     -33.487   4.607  31.404  0.00  0.00     0.084 H 
ATOM     65  C32 non d ame     -33.196   4.125  28.046  0.00  0.00    -0.083 A 
ATOM     66  H50 non d ame     -32.050   3.444  29.747  0.00  0.00     0.083 H 
ATOM     67  C33 non d ame     -34.288   4.872  27.624  0.00  0.00    -0.082 A 
ATOM     68  H51 non d ame     -32.570   3.618  27.311  0.00  0.00     0.083 H 
ATOM     69  C34 non d ame     -35.098   5.523  28.551  0.00  0.00    -0.075 A 
ATOM     70  H52 non d ame     -34.510   4.947  26.559  0.00  0.00     0.083 H 
ATOM     71  H53 non d ame     -35.955   6.106  28.213  0.00  0.00     0.084 H 
ENDBRANCH  58  61
ENDBRANCH  57  58
ENDBRANCH  55  57
ENDBRANCH  52  55
ENDBRANCH  49  52
ENDBRANCH  47  49
BRANCH  47  72
ATOM     72  C24 non d ame     -32.997  10.040  29.580  0.00  0.00    -0.039 C 
ATOM     73  H35 non d ame     -33.078   9.757  30.631  0.00  0.00     0.036 H 
ATOM     74  H36 non d ame     -32.188   9.639  28.970  0.00  0.00     0.036 H 
BRANCH  72  75
ATOM     75  C25 non d ame     -32.882  11.637  29.528  0.00  0.00    -0.001 C 
ATOM     76  C26 non d ame     -31.574  12.075  28.633  0.00  0.00    -0.035 C 
ATOM     77  C27 non d ame     -30.828  12.950  29.349  0.00  0.00     0.085 C 
ATOM     78  H38 non d ame     -30.909  11.222  28.500  0.00  0.00     0.036 H 
ATOM     79  H39 non d ame     -31.891  12.658  27.768  0.00  0.00     0.036 H 
ATOM     80  N5  non d ame     -31.331  12.897  30.772  0.00  0.00    -0.049 N 
ATOM     81  H40 non d ame     -29.811  12.560  29.316  0.00  0.00     0.075 H 
ATOM     82  H41 non d ame     -31.049  13.931  28.930  0.00  0.00     0.075 H 
ATOM     83  C28 non d ame     -32.753  12.135  30.712  0.00  0.00     0.193 C 
ATOM     84  H42 non d ame     -30.679  12.321  31.284  0.00  0.00     0.280 HD
ATOM     85  H43 non d ame     -31.490  13.854  31.053  0.00  0.00     0.280 HD
ATOM     86  H44 non d ame     -33.684  12.695  30.794  0.00  0.00     0.129 H 
ATOM     87  H37 non d ame     -33.832  12.111  29.283  0.00  0.00     0.046 H 
BRANCH  83  88
ATOM     88  O6  non d ame     -32.818  11.133  31.729  0.00  0.00    -0.369 OA
ATOM     89  H45 non d ame     -32.446  10.313  31.395  0.00  0.00     0.212 HD
ENDBRANCH  83  88
ENDBRANCH  72  75
ENDBRANCH  47  72
ENDBRANCH  45  47
ENDBRANCH   1  43
BRANCH   1  90
ATOM     90  C16 non d ame     -32.477  10.258  24.493  0.00  0.00    -0.035 C 
ATOM     91  H21 non d ame     -32.629  11.198  23.965  0.00  0.00     0.037 H 
ATOM     92  H22 non d ame     -31.846  10.226  25.381  0.00  0.00     0.037 H 
BRANCH  90  93
ATOM     93  C17 non d ame     -31.837   9.273  23.462  0.00  0.00    -0.059 C 
ATOM     94  H23 non d ame     -31.465   8.411  24.016  0.00  0.00     0.038 H 
BRANCH  93  95
ATOM     95  C18 non d ame     -32.876   8.755  22.418  0.00  0.00    -0.073 C 
ATOM     96  H24 non d ame     -32.958   7.671  22.492  0.00  0.00     0.028 H 
ATOM     97  H25 non d ame     -33.848   9.206  22.618  0.00  0.00     0.028 H 
ATOM     98  H26 non d ame     -32.550   9.027  21.414  0.00  0.00     0.028 H 
ENDBRANCH  93  95
BRANCH  93  99
ATOM     99  C19 non d ame     -30.637   9.918  22.762  0.00  0.00    -0.073 C 
ATOM    100  H27 non d ame     -30.716   9.758  21.686  0.00  0.00     0.028 H 
ATOM    101  H28 non d ame     -30.626  10.988  22.969  0.00  0.00     0.028 H 
ATOM    102  H29 non d ame     -29.716   9.467  23.130  0.00  0.00     0.028 H 
ENDBRANCH  93  99
ENDBRANCH  90  93
ENDBRANCH   1  90
TORSDOF 26
ENDMDL
MODEL 2
REMARK VINA RESULT:      -6.8      2.699      7.969
REMARK  26 active torsions:
REMARK  status: ('A' for Active; 'I' for Inactive)
REMARK    1  A    between atoms: C2_2  and  C3_3 
REMARK    2  A    between atoms: C4_6  and  C5_7 
REMARK       I    between atoms: C5_7  and  N2_9 
REMARK    3  A    between atoms: N2_9  and  C6_10 
REMARK    4  A    between atoms: C6_10  and  C7_11 
REMARK    5  A    between atoms: C6_10  and  C8_13 
REMARK       I    between atoms: C7_11  and  N3_14 
REMARK    6  A    between atoms: N3_14  and  C9_15 
REMARK    7  A    between atoms: C9_15  and  C10_16 
REMARK    8  A    between atoms: C9_15  and  C11_18 
REMARK       I    between atoms: C10_16  and  N4_21 
REMARK    9  A    between atoms: C11_18  and  C12_19 
REMARK   10  A    between atoms: C11_18  and  C13_20 
REMARK   11  A    between atoms: N4_21  and  C14_22 
REMARK   12  A    between atoms: C14_22  and  C15_23 
REMARK   13  A    between atoms: C14_22  and  C16_25 
REMARK       I    between atoms: C15_23  and  N6_40 
REMARK   14  A    between atoms: C16_25  and  C17_26 
REMARK   15  A    between atoms: C17_26  and  C18_27 
REMARK   16  A    between atoms: C17_26  and  C19_28 
REMARK   17  A    between atoms: C20_29  and  C21_30 
REMARK   18  A    between atoms: C20_29  and  C24_33 
REMARK   19  A    between atoms: C20_29  and  N6_40 
REMARK   20  A    between atoms: C21_30  and  C22_31 
REMARK   21  A    between atoms: C22_31  and  C23_32 
REMARK   22  A    between atoms: C23_32  and  O8_43 
REMARK   23  A    between atoms: C24_33  and  C25_34 
REMARK   24  A    between atoms: C28_38  and  O6_39 
REMARK   25  A    between atoms: C29_42  and  O8_43 
REMARK   26  A    between atoms: C29_42  and  C35_49 
ROOT
ATOM      1  C14 non d ame     -31.712   9.517  24.878  0.00  0.00     0.089 C 
ATOM      2  H20 non d ame     -30.863   8.841  24.985  0.00  0.00     0.087 H 
ENDROOT
BRANCH   1   3
ATOM      3  N4  non d ame     -32.915   8.703  24.801  0.00  0.00    -0.346 N 
ATOM      4  C10 non d ame     -32.828   7.250  24.408  0.00  0.00     0.241 C 
ATOM      5  O4  non d ame     -31.778   6.758  24.155  0.00  0.00    -0.271 OA
ATOM      6  H19 non d ame     -33.799   9.141  25.017  0.00  0.00     0.163 HD
BRANCH   4   7
ATOM      7  C9  non d ame     -34.083   6.420  24.338  0.00  0.00     0.092 C 
ATOM      8  H11 non d ame     -33.834   5.423  23.976  0.00  0.00     0.088 H 
BRANCH   7   9
ATOM      9  N3  non d ame     -34.642   6.265  25.685  0.00  0.00    -0.346 N 
ATOM     10  C7  non d ame     -34.589   4.984  26.344  0.00  0.00     0.240 C 
ATOM     11  O3  non d ame     -34.100   4.067  25.805  0.00  0.00    -0.271 OA
ATOM     12  H10 non d ame     -35.069   7.047  26.160  0.00  0.00     0.163 HD
BRANCH  10  13
ATOM     13  C6  non d ame     -35.188   4.824  27.775  0.00  0.00     0.086 C 
ATOM     14  H6  non d ame     -34.522   4.292  28.454  0.00  0.00     0.086 H 
BRANCH  13  15
ATOM     15  N2  non d ame     -35.400   6.143  28.348  0.00  0.00    -0.343 N 
ATOM     16  C5  non d ame     -35.199   6.346  29.784  0.00  0.00     0.273 C 
ATOM     17  O2  non d ame     -34.870   5.441  30.471  0.00  0.00    -0.266 OA
ATOM     18  H5  non d ame     -35.683   6.909  27.755  0.00  0.00     0.163 HD
BRANCH  16  19
ATOM     19  C4  non d ame     -35.418   7.735  30.404  0.00  0.00     0.154 A 
ATOM     20  C1  non d ame     -35.028   8.171  31.709  0.00  0.00    -0.017 A 
ATOM     21  C2  non d ame     -35.456   9.515  31.786  0.00  0.00     0.077 A 
ATOM     22  H1  non d ame     -34.514   7.600  32.482  0.00  0.00     0.091 H 
ATOM     23  O1  non d ame     -36.022   9.808  30.652  0.00  0.00    -0.218 OA
ATOM     24  N1  non d ame     -36.012   8.784  29.829  0.00  0.00    -0.123 NA
BRANCH  21  25
ATOM     25  C3  non d ame     -35.284  10.450  32.976  0.00  0.00    -0.029 C 
ATOM     26  H2  non d ame     -35.146   9.862  33.883  0.00  0.00     0.036 H 
ATOM     27  H3  non d ame     -34.410  11.082  32.818  0.00  0.00     0.036 H 
ATOM     28  H4  non d ame     -36.170  11.075  33.079  0.00  0.00     0.036 H 
ENDBRANCH  21  25
ENDBRANCH  16  19
ENDBRANCH  13  15
BRANCH  13  29
ATOM     29  C8  non d ame     -36.497   4.080  27.694  0.00  0.00    -0.049 C 
ATOM     30  H7  non d ame     -36.542   3.336  28.489  0.00  0.00     0.030 H 
ATOM     31  H8  non d ame     -37.322   4.782  27.808  0.00  0.00     0.030 H 
ATOM     32  H9  non d ame     -36.573   3.582  26.726  0.00  0.00     0.030 H 
ENDBRANCH  13  29
ENDBRANCH  10  13
ENDBRANCH   7   9
BRANCH   7  33
ATOM     33  C11 non d ame     -35.125   7.133  23.426  0.00  0.00    -0.033 C 
ATOM     34  H12 non d ame     -34.673   8.059  23.071  0.00  0.00     0.042 H 
BRANCH  33  35
ATOM     35  C12 non d ame     -35.467   6.268  22.173  0.00  0.00    -0.071 C 
ATOM     36  H13 non d ame     -35.080   5.258  22.311  0.00  0.00     0.028 H 
ATOM     37  H14 non d ame     -36.548   6.228  22.042  0.00  0.00     0.028 H 
ATOM     38  H15 non d ame     -35.010   6.713  21.289  0.00  0.00     0.028 H 
ENDBRANCH  33  35
BRANCH  33  39
ATOM     39  C13 non d ame     -36.413   7.501  24.230  0.00  0.00    -0.071 C 
ATOM     40  H16 non d ame     -36.260   8.447  24.748  0.00  0.00     0.028 H 
ATOM     41  H17 non d ame     -37.256   7.593  23.544  0.00  0.00     0.028 H 
ATOM     42  H18 non d ame     -36.623   6.717  24.958  0.00  0.00     0.028 H 
ENDBRANCH  33  39
ENDBRANCH   7  33
ENDBRANCH   4   7
ENDBRANCH   1   3
BRANCH   1  43
ATOM     43  C15 non d ame     -31.845  10.486  26.089  0.00  0.00     0.240 C 
ATOM     44  O5  non d ame     -31.065  11.371  26.226  0.00  0.00    -0.271 OA
ATOM     45  N6  non d ame     -32.953  10.316  27.071  0.00  0.00    -0.355 N 
ATOM     46  H46 non d ame     -33.626   9.570  26.962  0.00  0.00     0.162 HD
BRANCH  45  47
ATOM     47  C20 non d ame     -33.067  11.245  28.215  0.00  0.00     0.013 C 
ATOM     48  H30 non d ame     -32.356  12.056  28.060  0.00  0.00     0.072 H 
BRANCH  47  49
ATOM     49  C21 non d ame     -32.739  10.507  29.494  0.00  0.00    -0.038 C 
ATOM     50  H31 non d ame     -33.619   9.904  29.719  0.00  0.00     0.036 H 
ATOM     51  H32 non d ame     -31.778  10.024  29.316  0.00  0.00     0.036 H 
BRANCH  49  52
ATOM     52  C22 non d ame     -32.536  11.454  30.697  0.00  0.00     0.018 C 
ATOM     53  H33 non d ame     -33.308  12.216  30.605  0.00  0.00     0.048 H 
ATOM     54  H34 non d ame     -32.507  10.810  31.576  0.00  0.00     0.048 H 
BRANCH  52  55
ATOM     55  C23 non d ame     -31.180  12.212  30.676  0.00  0.00     0.259 C 
ATOM     56  O7  non d ame     -30.178  11.663  31.004  0.00  0.00    -0.265 OA
BRANCH  55  57
ATOM     57  O8  non d ame     -31.150  13.575  30.272  0.00  0.00    -0.317 OA
BRANCH  57  58
ATOM     58  C29 non d ame     -30.669  13.778  28.940  0.00  0.00     0.052 C 
ATOM     59  H47 non d ame     -29.767  14.381  29.041  0.00  0.00     0.082 H 
ATOM     60  H48 non d ame     -30.617  12.787  28.491  0.00  0.00     0.082 H 
BRANCH  58  61
ATOM     61  C35 non d ame     -31.731  14.609  28.170  0.00  0.00    -0.034 A 
ATOM     62  C30 non d ame     -31.569  14.855  26.809  0.00  0.00    -0.075 A 
ATOM     63  C31 non d ame     -32.522  15.602  26.118  0.00  0.00    -0.082 A 
ATOM     64  H49 non d ame     -30.696  14.465  26.286  0.00  0.00     0.084 H 
ATOM     65  C32 non d ame     -33.639  16.104  26.791  0.00  0.00    -0.083 A 
ATOM     66  H50 non d ame     -32.394  15.792  25.051  0.00  0.00     0.083 H 
ATOM     67  C33 non d ame     -33.793  15.858  28.149  0.00  0.00    -0.082 A 
ATOM     68  H51 non d ame     -34.389  16.688  26.257  0.00  0.00     0.083 H 
ATOM     69  C34 non d ame     -32.845  15.112  28.844  0.00  0.00    -0.075 A 
ATOM     70  H52 non d ame     -34.665  16.254  28.672  0.00  0.00     0.083 H 
ATOM     71  H53 non d ame     -32.974  14.922  29.909  0.00  0.00     0.084 H 
ENDBRANCH  58  61
ENDBRANCH  57  58
ENDBRANCH  55  57
ENDBRANCH  52  55
ENDBRANCH  49  52
ENDBRANCH  47  49
BRANCH  47  72
ATOM     72  C24 non d ame     -34.490  11.795  28.294  0.00  0.00    -0.039 C 
ATOM     73  H35 non d ame     -34.992  11.191  29.050  0.00  0.00     0.036 H 
ATOM     74  H36 non d ame     -34.377  12.870  28.442  0.00  0.00     0.036 H 
BRANCH  72  75
ATOM     75  C25 non d ame     -35.283  11.587  26.918  0.00  0.00    -0.001 C 
ATOM     76  C26 non d ame     -35.045  12.882  25.934  0.00  0.00    -0.035 C 
ATOM     77  C27 non d ame     -36.250  13.335  25.509  0.00  0.00     0.085 C 
ATOM     78  H38 non d ame     -34.646  13.719  26.506  0.00  0.00     0.036 H 
ATOM     79  H39 non d ame     -34.553  12.567  25.013  0.00  0.00     0.036 H 
ATOM     80  N5  non d ame     -37.298  12.673  26.371  0.00  0.00    -0.049 N 
ATOM     81  H40 non d ame     -36.246  14.406  25.711  0.00  0.00     0.075 H 
ATOM     82  H41 non d ame     -36.352  12.974  24.486  0.00  0.00     0.075 H 
ATOM     83  C28 non d ame     -36.551  11.458  27.125  0.00  0.00     0.193 C 
ATOM     84  H42 non d ame     -37.574  13.358  27.060  0.00  0.00     0.280 HD
ATOM     85  H43 non d ame     -37.985  12.287  25.739  0.00  0.00     0.280 HD
ATOM     86  H44 non d ame     -36.701  10.428  26.798  0.00  0.00     0.129 H 
ATOM     87  H37 non d ame     -35.113  10.600  26.489  0.00  0.00     0.046 H 
BRANCH  83  88
ATOM     88  O6  non d ame     -36.874  11.467  28.517  0.00  0.00    -0.369 OA
ATOM     89  H45 non d ame     -37.678  10.963  28.663  0.00  0.00     0.212 HD
ENDBRANCH  83  88
ENDBRANCH  72  75
ENDBRANCH  47  72
ENDBRANCH  45  47
ENDBRANCH   1  43
BRANCH   1  90
ATOM     90  C16 non d ame     -31.572  10.320  23.595  0.00  0.00    -0.035 C 
ATOM     91  H21 non d ame     -32.177   9.794  22.858  0.00  0.00     0.037 H 
ATOM     92  H22 non d ame     -31.815  11.347  23.869  0.00  0.00     0.037 H 
BRANCH  90  93
ATOM     93  C17 non d ame     -30.116  10.348  23.029  0.00  0.00    -0.059 C 
ATOM     94  H23 non d ame     -29.432  10.249  23.872  0.00  0.00     0.038 H 
BRANCH  93  95
ATOM     95  C18 non d ame     -29.840   9.161  22.052  0.00  0.00    -0.073 C 
ATOM     96  H24 non d ame     -29.291   9.524  21.183  0.00  0.00     0.028 H 
ATOM     97  H25 non d ame     -29.249   8.400  22.561  0.00  0.00     0.028 H 
ATOM     98  H26 non d ame     -30.787   8.729  21.728  0.00  0.00     0.028 H 
ENDBRANCH  93  95
BRANCH  93  99
ATOM     99  C19 non d ame     -29.816  11.689  22.355  0.00  0.00    -0.073 C 
ATOM    100  H27 non d ame     -30.397  11.771  21.435  0.00  0.00     0.028 H 
ATOM    101  H28 non d ame     -30.086  12.503  23.027  0.00  0.00     0.028 H 
ATOM    102  H29 non d ame     -28.754  11.748  22.120  0.00  0.00     0.028 H 
ENDBRANCH  93  99
ENDBRANCH  90  93
ENDBRANCH   1  90
TORSDOF 26
ENDMDL
MODEL 3
REMARK VINA RESULT:      -6.7      2.516      5.798
REMARK  26 active torsions:
REMARK  status: ('A' for Active; 'I' for Inactive)
REMARK    1  A    between atoms: C2_2  and  C3_3 
REMARK    2  A    between atoms: C4_6  and  C5_7 
REMARK       I    between atoms: C5_7  and  N2_9 
REMARK    3  A    between atoms: N2_9  and  C6_10 
REMARK    4  A    between atoms: C6_10  and  C7_11 
REMARK    5  A    between atoms: C6_10  and  C8_13 
REMARK       I    between atoms: C7_11  and  N3_14 
REMARK    6  A    between atoms: N3_14  and  C9_15 
REMARK    7  A    between atoms: C9_15  and  C10_16 
REMARK    8  A    between atoms: C9_15  and  C11_18 
REMARK       I    between atoms: C10_16  and  N4_21 
REMARK    9  A    between atoms: C11_18  and  C12_19 
REMARK   10  A    between atoms: C11_18  and  C13_20 
REMARK   11  A    between atoms: N4_21  and  C14_22 
REMARK   12  A    between atoms: C14_22  and  C15_23 
REMARK   13  A    between atoms: C14_22  and  C16_25 
REMARK       I    between atoms: C15_23  and  N6_40 
REMARK   14  A    between atoms: C16_25  and  C17_26 
REMARK   15  A    between atoms: C17_26  and  C18_27 
REMARK   16  A    between atoms: C17_26  and  C19_28 
REMARK   17  A    between atoms: C20_29  and  C21_30 
REMARK   18  A    between atoms: C20_29  and  C24_33 
REMARK   19  A    between atoms: C20_29  and  N6_40 
REMARK   20  A    between atoms: C21_30  and  C22_31 
REMARK   21  A    between atoms: C22_31  and  C23_32 
REMARK   22  A    between atoms: C23_32  and  O8_43 
REMARK   23  A    between atoms: C24_33  and  C25_34 
REMARK   24  A    between atoms: C28_38  and  O6_39 
REMARK   25  A    between atoms: C29_42  and  O8_43 
REMARK   26  A    between atoms: C29_42  and  C35_49 
ROOT
ATOM      1  C14 non d ame     -35.248   8.923  26.125  0.00  0.00     0.089 C 
ATOM      2  H20 non d ame     -35.500   8.109  26.805  0.00  0.00     0.087 H 
ENDROOT
BRANCH   1   3
ATOM      3  N4  non d ame     -34.500   9.914  26.885  0.00  0.00    -0.346 N 
ATOM      4  C10 non d ame     -33.410   9.483  27.832  0.00  0.00     0.241 C 
ATOM      5  O4  non d ame     -33.153   8.332  27.969  0.00  0.00    -0.271 OA
ATOM      6  H19 non d ame     -34.736  10.887  26.757  0.00  0.00     0.163 HD
BRANCH   4   7
ATOM      7  C9  non d ame     -32.643  10.522  28.608  0.00  0.00     0.092 C 
ATOM      8  H11 non d ame     -31.575  10.346  28.484  0.00  0.00     0.088 H 
BRANCH   7   9
ATOM      9  N3  non d ame     -32.930  11.851  28.060  0.00  0.00    -0.346 N 
ATOM     10  C7  non d ame     -31.970  12.498  27.199  0.00  0.00     0.240 C 
ATOM     11  O3  non d ame     -30.963  11.963  26.937  0.00  0.00    -0.271 OA
ATOM     12  H10 non d ame     -33.794  12.325  28.279  0.00  0.00     0.163 HD
BRANCH  10  13
ATOM     13  C6  non d ame     -32.279  13.914  26.622  0.00  0.00     0.086 C 
ATOM     14  H6  non d ame     -31.814  14.714  27.197  0.00  0.00     0.086 H 
BRANCH  13  15
ATOM     15  N2  non d ame     -31.740  14.002  25.275  0.00  0.00    -0.343 N 
ATOM     16  C5  non d ame     -31.160  15.264  24.812  0.00  0.00     0.273 C 
ATOM     17  O2  non d ame     -31.135  16.204  25.528  0.00  0.00    -0.266 OA
ATOM     18  H5  non d ame     -31.768  13.195  24.669  0.00  0.00     0.163 HD
BRANCH  16  19
ATOM     19  C4  non d ame     -30.586  15.371  23.390  0.00  0.00     0.154 A 
ATOM     20  C1  non d ame     -31.318  15.525  22.171  0.00  0.00    -0.017 A 
ATOM     21  C2  non d ame     -30.334  15.572  21.159  0.00  0.00     0.077 A 
ATOM     22  H1  non d ame     -32.399  15.593  22.040  0.00  0.00     0.091 H 
ATOM     23  O1  non d ame     -29.176  15.459  21.739  0.00  0.00    -0.218 OA
ATOM     24  N1  non d ame     -29.297  15.341  23.042  0.00  0.00    -0.123 NA
BRANCH  21  25
ATOM     25  C3  non d ame     -30.583  15.728  19.665  0.00  0.00    -0.029 C 
ATOM     26  H2  non d ame     -29.905  16.478  19.259  0.00  0.00     0.036 H 
ATOM     27  H3  non d ame     -30.408  14.775  19.165  0.00  0.00     0.036 H 
ATOM     28  H4  non d ame     -31.613  16.041  19.498  0.00  0.00     0.036 H 
ENDBRANCH  21  25
ENDBRANCH  16  19
ENDBRANCH  13  15
BRANCH  13  29
ATOM     29  C8  non d ame     -33.770  14.135  26.597  0.00  0.00    -0.049 C 
ATOM     30  H7  non d ame     -34.031  14.761  25.744  0.00  0.00     0.030 H 
ATOM     31  H8  non d ame     -34.279  13.175  26.512  0.00  0.00     0.030 H 
ATOM     32  H9  non d ame     -34.079  14.631  27.519  0.00  0.00     0.030 H 
ENDBRANCH  13  29
ENDBRANCH  10  13
ENDBRANCH   7   9
BRANCH   7  33
ATOM     33  C11 non d ame     -33.075  10.476  30.103  0.00  0.00    -0.033 C 
ATOM     34  H12 non d ame     -32.582   9.620  30.562  0.00  0.00     0.042 H 
BRANCH  33  35
ATOM     35  C12 non d ame     -32.608  11.753  30.869  0.00  0.00    -0.071 C 
ATOM     36  H13 non d ame     -32.603  11.553  31.940  0.00  0.00     0.028 H 
ATOM     37  H14 non d ame     -31.604  12.024  30.545  0.00  0.00     0.028 H 
ATOM     38  H15 non d ame     -33.293  12.575  30.657  0.00  0.00     0.028 H 
ENDBRANCH  33  35
BRANCH  33  39
ATOM     39  C13 non d ame     -34.618  10.270  30.233  0.00  0.00    -0.071 C 
ATOM     40  H16 non d ame     -34.848   9.205  30.196  0.00  0.00     0.028 H 
ATOM     41  H17 non d ame     -34.962  10.685  31.181  0.00  0.00     0.028 H 
ATOM     42  H18 non d ame     -35.123  10.779  29.412  0.00  0.00     0.028 H 
ENDBRANCH  33  39
ENDBRANCH   7  33
ENDBRANCH   4   7
ENDBRANCH   1   3
BRANCH   1  43
ATOM     43  C15 non d ame     -34.366   8.442  24.936  0.00  0.00     0.240 C 
ATOM     44  O5  non d ame     -34.342   9.069  23.927  0.00  0.00    -0.271 OA
ATOM     45  N6  non d ame     -33.544   7.205  25.060  0.00  0.00    -0.355 N 
ATOM     46  H46 non d ame     -33.553   6.666  25.914  0.00  0.00     0.162 HD
BRANCH  45  47
ATOM     47  C20 non d ame     -32.711   6.762  23.921  0.00  0.00     0.013 C 
ATOM     48  H30 non d ame     -33.232   7.028  23.002  0.00  0.00     0.072 H 
BRANCH  47  49
ATOM     49  C21 non d ame     -32.521   5.264  23.993  0.00  0.00    -0.038 C 
ATOM     50  H31 non d ame     -32.443   4.927  22.959  0.00  0.00     0.036 H 
ATOM     51  H32 non d ame     -31.692   5.105  24.683  0.00  0.00     0.036 H 
BRANCH  49  52
ATOM     52  C22 non d ame     -33.739   4.534  24.600  0.00  0.00     0.018 C 
ATOM     53  H33 non d ame     -34.523   5.286  24.684  0.00  0.00     0.048 H 
ATOM     54  H34 non d ame     -33.894   3.652  23.979  0.00  0.00     0.048 H 
BRANCH  52  55
ATOM     55  C23 non d ame     -33.498   4.005  26.041  0.00  0.00     0.259 C 
ATOM     56  O7  non d ame     -33.472   2.836  26.258  0.00  0.00    -0.265 OA
BRANCH  55  57
ATOM     57  O8  non d ame     -33.321   4.934  27.104  0.00  0.00    -0.317 OA
BRANCH  57  58
ATOM     58  C29 non d ame     -33.054   4.326  28.371  0.00  0.00     0.052 C 
ATOM     59  H47 non d ame     -33.252   3.263  28.236  0.00  0.00     0.082 H 
ATOM     60  H48 non d ame     -32.059   4.664  28.657  0.00  0.00     0.082 H 
BRANCH  58  61
ATOM     61  C35 non d ame     -34.076   4.889  29.396  0.00  0.00    -0.034 A 
ATOM     62  C30 non d ame     -35.223   5.538  28.950  0.00  0.00    -0.075 A 
ATOM     63  C31 non d ame     -36.140   6.044  29.871  0.00  0.00    -0.082 A 
ATOM     64  H49 non d ame     -35.404   5.651  27.881  0.00  0.00     0.084 H 
ATOM     65  C32 non d ame     -35.906   5.901  31.241  0.00  0.00    -0.083 A 
ATOM     66  H50 non d ame     -37.040   6.551  29.518  0.00  0.00     0.083 H 
ATOM     67  C33 non d ame     -34.758   5.256  31.680  0.00  0.00    -0.082 A 
ATOM     68  H51 non d ame     -36.619   6.293  31.967  0.00  0.00     0.083 H 
ATOM     69  C34 non d ame     -33.839   4.747  30.764  0.00  0.00    -0.075 A 
ATOM     70  H52 non d ame     -34.576   5.148  32.750  0.00  0.00     0.083 H 
ATOM     71  H53 non d ame     -32.941   4.240  31.117  0.00  0.00     0.084 H 
ENDBRANCH  58  61
ENDBRANCH  57  58
ENDBRANCH  55  57
ENDBRANCH  52  55
ENDBRANCH  49  52
ENDBRANCH  47  49
BRANCH  47  72
ATOM     72  C24 non d ame     -31.350   7.452  23.978  0.00  0.00    -0.039 C 
ATOM     73  H35 non d ame     -31.564   8.495  24.216  0.00  0.00     0.036 H 
ATOM     74  H36 non d ame     -30.748   6.851  24.660  0.00  0.00     0.036 H 
BRANCH  72  75
ATOM     75  C25 non d ame     -30.615   7.433  22.555  0.00  0.00    -0.001 C 
ATOM     76  C26 non d ame     -29.006   7.165  22.760  0.00  0.00    -0.035 C 
ATOM     77  C27 non d ame     -28.316   8.117  22.088  0.00  0.00     0.085 C 
ATOM     78  H38 non d ame     -28.728   7.335  23.800  0.00  0.00     0.036 H 
ATOM     79  H39 non d ame     -28.714   6.240  22.262  0.00  0.00     0.036 H 
ATOM     80  N5  non d ame     -29.303   9.198  21.716  0.00  0.00    -0.049 N 
ATOM     81  H40 non d ame     -27.601   8.520  22.806  0.00  0.00     0.075 H 
ATOM     82  H41 non d ame     -27.961   7.633  21.180  0.00  0.00     0.075 H 
ATOM     83  C28 non d ame     -30.768   8.556  21.936  0.00  0.00     0.193 C 
ATOM     84  H42 non d ame     -29.175   9.944  22.384  0.00  0.00     0.280 HD
ATOM     85  H43 non d ame     -29.173   9.375  20.730  0.00  0.00     0.280 HD
ATOM     86  H44 non d ame     -31.363   8.231  21.082  0.00  0.00     0.129 H 
ATOM     87  H37 non d ame     -31.134   6.806  21.831  0.00  0.00     0.046 H 
BRANCH  83  88
ATOM     88  O6  non d ame     -31.600   9.463  22.660  0.00  0.00    -0.369 OA
ATOM     89  H45 non d ame     -31.863   9.062  23.493  0.00  0.00     0.212 HD
ENDBRANCH  83  88
ENDBRANCH  72  75
ENDBRANCH  47  72
ENDBRANCH  45  47
ENDBRANCH   1  43
BRANCH   1  90
ATOM     90  C16 non d ame     -36.520   9.562  25.592  0.00  0.00    -0.035 C 
ATOM     91  H21 non d ame     -36.645  10.479  26.165  0.00  0.00     0.037 H 
ATOM     92  H22 non d ame     -36.388   9.608  24.510  0.00  0.00     0.037 H 
BRANCH  90  93
ATOM     93  C17 non d ame     -37.803   8.707  25.844  0.00  0.00    -0.059 C 
ATOM     94  H23 non d ame     -38.208   8.424  24.872  0.00  0.00     0.038 H 
BRANCH  93  95
ATOM     95  C18 non d ame     -37.491   7.393  26.630  0.00  0.00    -0.073 C 
ATOM     96  H24 non d ame     -36.417   7.319  26.804  0.00  0.00     0.028 H 
ATOM     97  H25 non d ame     -38.012   7.410  27.587  0.00  0.00     0.028 H 
ATOM     98  H26 non d ame     -37.825   6.534  26.049  0.00  0.00     0.028 H 
ENDBRANCH  93  95
BRANCH  93  99
ATOM     99  C19 non d ame     -38.876   9.529  26.563  0.00  0.00    -0.073 C 
ATOM    100  H27 non d ame     -39.864   9.170  26.272  0.00  0.00     0.028 H 
ATOM    101  H28 non d ame     -38.755   9.423  27.641  0.00  0.00     0.028 H 
ATOM    102  H29 non d ame     -38.775  10.579  26.287  0.00  0.00     0.028 H 
ENDBRANCH  93  99
ENDBRANCH  90  93
ENDBRANCH   1  90
TORSDOF 26
ENDMDL
MODEL 4
REMARK VINA RESULT:      -6.7      3.094      8.611
REMARK  26 active torsions:
REMARK  status: ('A' for Active; 'I' for Inactive)
REMARK    1  A    between atoms: C2_2  and  C3_3 
REMARK    2  A    between atoms: C4_6  and  C5_7 
REMARK       I    between atoms: C5_7  and  N2_9 
REMARK    3  A    between atoms: N2_9  and  C6_10 
REMARK    4  A    between atoms: C6_10  and  C7_11 
REMARK    5  A    between atoms: C6_10  and  C8_13 
REMARK       I    between atoms: C7_11  and  N3_14 
REMARK    6  A    between atoms: N3_14  and  C9_15 
REMARK    7  A    between atoms: C9_15  and  C10_16 
REMARK    8  A    between atoms: C9_15  and  C11_18 
REMARK       I    between atoms: C10_16  and  N4_21 
REMARK    9  A    between atoms: C11_18  and  C12_19 
REMARK   10  A    between atoms: C11_18  and  C13_20 
REMARK   11  A    between atoms: N4_21  and  C14_22 
REMARK   12  A    between atoms: C14_22  and  C15_23 
REMARK   13  A    between atoms: C14_22  and  C16_25 
REMARK       I    between atoms: C15_23  and  N6_40 
REMARK   14  A    between atoms: C16_25  and  C17_26 
REMARK   15  A    between atoms: C17_26  and  C18_27 
REMARK   16  A    between atoms: C17_26  and  C19_28 
REMARK   17  A    between atoms: C20_29  and  C21_30 
REMARK   18  A    between atoms: C20_29  and  C24_33 
REMARK   19  A    between atoms: C20_29  and  N6_40 
REMARK   20  A    between atoms: C21_30  and  C22_31 
REMARK   21  A    between atoms: C22_31  and  C23_32 
REMARK   22  A    between atoms: C23_32  and  O8_43 
REMARK   23  A    between atoms: C24_33  and  C25_34 
REMARK   24  A    between atoms: C28_38  and  O6_39 
REMARK   25  A    between atoms: C29_42  and  O8_43 
REMARK   26  A    between atoms: C29_42  and  C35_49 
ROOT
ATOM      1  C14 non d ame     -33.734   9.972  28.571  0.00  0.00     0.089 C 
ATOM      2  H20 non d ame     -34.729  10.391  28.421  0.00  0.00     0.087 H 
ENDROOT
BRANCH   1   3
ATOM      3  N4  non d ame     -33.764   8.593  28.107  0.00  0.00    -0.346 N 
ATOM      4  C10 non d ame     -35.076   7.929  27.777  0.00  0.00     0.241 C 
ATOM      5  O4  non d ame     -36.097   8.523  27.895  0.00  0.00    -0.271 OA
ATOM      6  H19 non d ame     -32.885   8.103  28.016  0.00  0.00     0.163 HD
BRANCH   4   7
ATOM      7  C9  non d ame     -35.089   6.502  27.294  0.00  0.00     0.092 C 
ATOM      8  H11 non d ame     -36.108   6.119  27.333  0.00  0.00     0.088 H 
BRANCH   7   9
ATOM      9  N3  non d ame     -34.662   6.457  25.892  0.00  0.00    -0.346 N 
ATOM     10  C7  non d ame     -35.648   6.433  24.839  0.00  0.00     0.240 C 
ATOM     11  O3  non d ame     -36.788   6.449  25.102  0.00  0.00    -0.271 OA
ATOM     12  H10 non d ame     -33.682   6.442  25.650  0.00  0.00     0.163 HD
BRANCH  10  13
ATOM     13  C6  non d ame     -35.188   6.382  23.349  0.00  0.00     0.086 C 
ATOM     14  H6  non d ame     -35.742   7.073  22.713  0.00  0.00     0.086 H 
BRANCH  13  15
ATOM     15  N2  non d ame     -33.792   6.777  23.272  0.00  0.00    -0.343 N 
ATOM     16  C5  non d ame     -33.444   8.110  22.776  0.00  0.00     0.273 C 
ATOM     17  O2  non d ame     -34.295   8.857  22.438  0.00  0.00    -0.266 OA
ATOM     18  H5  non d ame     -33.070   6.131  23.561  0.00  0.00     0.163 HD
BRANCH  16  19
ATOM     19  C4  non d ame     -31.971   8.540  22.691  0.00  0.00     0.154 A 
ATOM     20  C1  non d ame     -30.834   7.695  22.492  0.00  0.00    -0.017 A 
ATOM     21  C2  non d ame     -29.726   8.571  22.490  0.00  0.00     0.077 A 
ATOM     22  H1  non d ame     -30.816   6.612  22.367  0.00  0.00     0.091 H 
ATOM     23  O1  non d ame     -30.184   9.776  22.666  0.00  0.00    -0.218 OA
ATOM     24  N1  non d ame     -31.492   9.783  22.786  0.00  0.00    -0.123 NA
BRANCH  21  25
ATOM     25  C3  non d ame     -28.266   8.178  22.312  0.00  0.00    -0.029 C 
ATOM     26  H2  non d ame     -27.748   8.262  23.267  0.00  0.00     0.036 H 
ATOM     27  H3  non d ame     -28.207   7.149  21.958  0.00  0.00     0.036 H 
ATOM     28  H4  non d ame     -27.796   8.840  21.585  0.00  0.00     0.036 H 
ENDBRANCH  21  25
ENDBRANCH  16  19
ENDBRANCH  13  15
BRANCH  13  29
ATOM     29  C8  non d ame     -35.361   4.984  22.815  0.00  0.00    -0.049 C 
ATOM     30  H7  non d ame     -34.388   4.573  22.548  0.00  0.00     0.030 H 
ATOM     31  H8  non d ame     -35.821   4.357  23.578  0.00  0.00     0.030 H 
ATOM     32  H9  non d ame     -36.000   5.009  21.931  0.00  0.00     0.030 H 
ENDBRANCH  13  29
ENDBRANCH  10  13
ENDBRANCH   7   9
BRANCH   7  33
ATOM     33  C11 non d ame     -34.110   5.653  28.158  0.00  0.00    -0.033 C 
ATOM     34  H12 non d ame     -33.224   6.260  28.342  0.00  0.00     0.042 H 
BRANCH  33  35
ATOM     35  C12 non d ame     -34.735   5.304  29.544  0.00  0.00    -0.071 C 
ATOM     36  H13 non d ame     -34.237   4.425  29.956  0.00  0.00     0.028 H 
ATOM     37  H14 non d ame     -34.608   6.146  30.224  0.00  0.00     0.028 H 
ATOM     38  H15 non d ame     -35.797   5.092  29.421  0.00  0.00     0.028 H 
ENDBRANCH  33  35
BRANCH  33  39
ATOM     39  C13 non d ame     -33.665   4.365  27.395  0.00  0.00    -0.071 C 
ATOM     40  H16 non d ame     -33.675   4.556  26.322  0.00  0.00     0.028 H 
ATOM     41  H17 non d ame     -32.657   4.088  27.706  0.00  0.00     0.028 H 
ATOM     42  H18 non d ame     -34.351   3.550  27.626  0.00  0.00     0.028 H 
ENDBRANCH  33  39
ENDBRANCH   7  33
ENDBRANCH   4   7
ENDBRANCH   1   3
BRANCH   1  43
ATOM     43  C15 non d ame     -32.646  10.741  27.767  0.00  0.00     0.240 C 
ATOM     44  O5  non d ame     -32.058  10.192  26.893  0.00  0.00    -0.271 OA
ATOM     45  N6  non d ame     -32.343  12.166  28.082  0.00  0.00    -0.355 N 
ATOM     46  H46 non d ame     -32.839  12.645  28.820  0.00  0.00     0.162 HD
BRANCH  45  47
ATOM     47  C20 non d ame     -31.307  12.884  27.308  0.00  0.00     0.013 C 
ATOM     48  H30 non d ame     -30.550  12.158  27.010  0.00  0.00     0.072 H 
BRANCH  47  49
ATOM     49  C21 non d ame     -30.685  13.953  28.176  0.00  0.00    -0.038 C 
ATOM     50  H31 non d ame     -29.780  13.507  28.590  0.00  0.00     0.036 H 
ATOM     51  H32 non d ame     -30.616  14.841  27.546  0.00  0.00     0.036 H 
BRANCH  49  52
ATOM     52  C22 non d ame     -31.573  14.340  29.379  0.00  0.00     0.018 C 
ATOM     53  H33 non d ame     -32.317  13.550  29.462  0.00  0.00     0.048 H 
ATOM     54  H34 non d ame     -30.885  14.531  30.203  0.00  0.00     0.048 H 
BRANCH  52  55
ATOM     55  C23 non d ame     -32.368  15.659  29.172  0.00  0.00     0.259 C 
ATOM     56  O7  non d ame     -32.123  16.620  29.828  0.00  0.00    -0.265 OA
BRANCH  55  57
ATOM     57  O8  non d ame     -33.404  15.702  28.198  0.00  0.00    -0.317 OA
BRANCH  57  58
ATOM     58  C29 non d ame     -34.321  16.787  28.371  0.00  0.00     0.052 C 
ATOM     59  H47 non d ame     -35.281  16.421  28.008  0.00  0.00     0.082 H 
ATOM     60  H48 non d ame     -34.213  17.102  29.408  0.00  0.00     0.082 H 
BRANCH  58  61
ATOM     61  C35 non d ame     -33.860  17.952  27.454  0.00  0.00    -0.034 A 
ATOM     62  C30 non d ame     -33.688  17.738  26.090  0.00  0.00    -0.075 A 
ATOM     63  C31 non d ame     -33.274  18.785  25.267  0.00  0.00    -0.082 A 
ATOM     64  H49 non d ame     -33.875  16.752  25.666  0.00  0.00     0.084 H 
ATOM     65  C32 non d ame     -33.031  20.048  25.813  0.00  0.00    -0.083 A 
ATOM     66  H50 non d ame     -33.141  18.615  24.197  0.00  0.00     0.083 H 
ATOM     67  C33 non d ame     -33.201  20.255  27.175  0.00  0.00    -0.082 A 
ATOM     68  H51 non d ame     -32.708  20.872  25.176  0.00  0.00     0.083 H 
ATOM     69  C34 non d ame     -33.616  19.213  28.001  0.00  0.00    -0.075 A 
ATOM     70  H52 non d ame     -33.008  21.242  27.598  0.00  0.00     0.083 H 
ATOM     71  H53 non d ame     -33.749  19.384  29.069  0.00  0.00     0.084 H 
ENDBRANCH  58  61
ENDBRANCH  57  58
ENDBRANCH  55  57
ENDBRANCH  52  55
ENDBRANCH  49  52
ENDBRANCH  47  49
BRANCH  47  72
ATOM     72  C24 non d ame     -31.938  13.529  26.076  0.00  0.00    -0.039 C 
ATOM     73  H35 non d ame     -32.439  12.716  25.548  0.00  0.00     0.036 H 
ATOM     74  H36 non d ame     -32.517  14.371  26.454  0.00  0.00     0.036 H 
BRANCH  72  75
ATOM     75  C25 non d ame     -30.829  14.124  25.085  0.00  0.00    -0.001 C 
ATOM     76  C26 non d ame     -31.192  15.682  24.710  0.00  0.00    -0.035 C 
ATOM     77  C27 non d ame     -31.169  15.825  23.362  0.00  0.00     0.085 C 
ATOM     78  H38 non d ame     -32.228  15.899  24.970  0.00  0.00     0.036 H 
ATOM     79  H39 non d ame     -30.395  16.345  25.049  0.00  0.00     0.036 H 
ATOM     80  N5  non d ame     -31.146  14.435  22.773  0.00  0.00    -0.049 N 
ATOM     81  H40 non d ame     -32.112  16.306  23.104  0.00  0.00     0.075 H 
ATOM     82  H41 non d ame     -30.226  16.321  23.139  0.00  0.00     0.075 H 
ATOM     83  C28 non d ame     -30.768  13.443  23.989  0.00  0.00     0.193 C 
ATOM     84  H42 non d ame     -32.089  14.235  22.476  0.00  0.00     0.280 HD
ATOM     85  H43 non d ame     -30.391  14.423  22.101  0.00  0.00     0.280 HD
ATOM     86  H44 non d ame     -29.764  13.026  24.071  0.00  0.00     0.129 H 
ATOM     87  H37 non d ame     -29.816  13.920  25.429  0.00  0.00     0.046 H 
BRANCH  83  88
ATOM     88  O6  non d ame     -31.652  12.320  24.002  0.00  0.00    -0.369 OA
ATOM     89  H45 non d ame     -31.646  11.898  23.139  0.00  0.00     0.212 HD
ENDBRANCH  83  88
ENDBRANCH  72  75
ENDBRANCH  47  72
ENDBRANCH  45  47
ENDBRANCH   1  43
BRANCH   1  90
ATOM     90  C16 non d ame     -33.385   9.991  30.051  0.00  0.00    -0.035 C 
ATOM     91  H21 non d ame     -32.799   9.089  30.220  0.00  0.00     0.037 H 
ATOM     92  H22 non d ame     -32.942  10.971  30.230  0.00  0.00     0.037 H 
BRANCH  90  93
ATOM     93  C17 non d ame     -34.630   9.890  30.989  0.00  0.00    -0.059 C 
ATOM     94  H23 non d ame     -35.513  10.106  30.389  0.00  0.00     0.038 H 
BRANCH  93  95
ATOM     95  C18 non d ame     -34.801   8.458  31.589  0.00  0.00    -0.073 C 
ATOM     96  H24 non d ame     -34.908   7.734  30.780  0.00  0.00     0.028 H 
ATOM     97  H25 non d ame     -33.924   8.207  32.185  0.00  0.00     0.028 H 
ATOM     98  H26 non d ame     -35.689   8.432  32.220  0.00  0.00     0.028 H 
ENDBRANCH  93  95
BRANCH  93  99
ATOM     99  C19 non d ame     -34.564  10.941  32.100  0.00  0.00    -0.073 C 
ATOM    100  H27 non d ame     -34.769  11.927  31.679  0.00  0.00     0.028 H 
ATOM    101  H28 non d ame     -35.308  10.712  32.863  0.00  0.00     0.028 H 
ATOM    102  H29 non d ame     -33.571  10.936  32.547  0.00  0.00     0.028 H 
ENDBRANCH  93  99
ENDBRANCH  90  93
ENDBRANCH   1  90
TORSDOF 26
ENDMDL
MODEL 5
REMARK VINA RESULT:      -6.6      2.615      7.661
REMARK  26 active torsions:
REMARK  status: ('A' for Active; 'I' for Inactive)
REMARK    1  A    between atoms: C2_2  and  C3_3 
REMARK    2  A    between atoms: C4_6  and  C5_7 
REMARK       I    between atoms: C5_7  and  N2_9 
REMARK    3  A    between atoms: N2_9  and  C6_10 
REMARK    4  A    between atoms: C6_10  and  C7_11 
REMARK    5  A    between atoms: C6_10  and  C8_13 
REMARK       I    between atoms: C7_11  and  N3_14 
REMARK    6  A    between atoms: N3_14  and  C9_15 
REMARK    7  A    between atoms: C9_15  and  C10_16 
REMARK    8  A    between atoms: C9_15  and  C11_18 
REMARK       I    between atoms: C10_16  and  N4_21 
REMARK    9  A    between atoms: C11_18  and  C12_19 
REMARK   10  A    between atoms: C11_18  and  C13_20 
REMARK   11  A    between atoms: N4_21  and  C14_22 
REMARK   12  A    between atoms: C14_22  and  C15_23 
REMARK   13  A    between atoms: C14_22  and  C16_25 
REMARK       I    between atoms: C15_23  and  N6_40 
REMARK   14  A    between atoms: C16_25  and  C17_26 
REMARK   15  A    between atoms: C17_26  and  C18_27 
REMARK   16  A    between atoms: C17_26  and  C19_28 
REMARK   17  A    between atoms: C20_29  and  C21_30 
REMARK   18  A    between atoms: C20_29  and  C24_33 
REMARK   19  A    between atoms: C20_29  and  N6_40 
REMARK   20  A    between atoms: C21_30  and  C22_31 
REMARK   21  A    between atoms: C22_31  and  C23_32 
REMARK   22  A    between atoms: C23_32  and  O8_43 
REMARK   23  A    between atoms: C24_33  and  C25_34 
REMARK   24  A    between atoms: C28_38  and  O6_39 
REMARK   25  A    between atoms: C29_42  and  O8_43 
REMARK   26  A    between atoms: C29_42  and  C35_49 
ROOT
ATOM      1  C14 non d ame     -36.473  15.919  26.527  0.00  0.00     0.089 C 
ATOM      2  H20 non d ame     -37.087  16.500  27.216  0.00  0.00     0.087 H 
ENDROOT
BRANCH   1   3
ATOM      3  N4  non d ame     -35.085  16.077  26.937  0.00  0.00    -0.346 N 
ATOM      4  C10 non d ame     -34.680  17.221  27.831  0.00  0.00     0.241 C 
ATOM      5  O4  non d ame     -35.488  18.005  28.207  0.00  0.00    -0.271 OA
ATOM      6  H19 non d ame     -34.412  15.402  26.604  0.00  0.00     0.163 HD
BRANCH   4   7
ATOM      7  C9  non d ame     -33.240  17.367  28.249  0.00  0.00     0.092 C 
ATOM      8  H11 non d ame     -33.197  17.851  29.224  0.00  0.00     0.088 H 
BRANCH   7   9
ATOM      9  N3  non d ame     -32.637  16.039  28.397  0.00  0.00    -0.346 N 
ATOM     10  C7  non d ame     -31.780  15.758  29.521  0.00  0.00     0.240 C 
ATOM     11  O3  non d ame     -31.563  16.590  30.317  0.00  0.00    -0.271 OA
ATOM     12  H10 non d ame     -32.814  15.313  27.717  0.00  0.00     0.163 HD
BRANCH  10  13
ATOM     13  C6  non d ame     -31.138  14.344  29.672  0.00  0.00     0.086 C 
ATOM     14  H6  non d ame     -30.437  14.286  30.504  0.00  0.00     0.086 H 
BRANCH  13  15
ATOM     15  N2  non d ame     -32.187  13.376  29.944  0.00  0.00    -0.343 N 
ATOM     16  C5  non d ame     -31.864  12.145  30.668  0.00  0.00     0.273 C 
ATOM     17  O2  non d ame     -30.756  11.941  31.024  0.00  0.00    -0.266 OA
ATOM     18  H5  non d ame     -33.131  13.558  29.633  0.00  0.00     0.163 HD
BRANCH  16  19
ATOM     19  C4  non d ame     -32.965  11.114  30.963  0.00  0.00     0.154 A 
ATOM     20  C1  non d ame     -33.285   9.948  30.197  0.00  0.00    -0.017 A 
ATOM     21  C2  non d ame     -34.361   9.346  30.886  0.00  0.00     0.077 A 
ATOM     22  H1  non d ame     -32.808   9.594  29.283  0.00  0.00     0.091 H 
ATOM     23  O1  non d ame     -34.620  10.086  31.923  0.00  0.00    -0.218 OA
ATOM     24  N1  non d ame     -33.818  11.124  31.990  0.00  0.00    -0.123 NA
BRANCH  21  25
ATOM     25  C3  non d ame     -35.083   8.066  30.487  0.00  0.00    -0.029 C 
ATOM     26  H2  non d ame     -34.537   7.206  30.872  0.00  0.00     0.036 H 
ATOM     27  H3  non d ame     -36.090   8.072  30.904  0.00  0.00     0.036 H 
ATOM     28  H4  non d ame     -35.141   8.004  29.401  0.00  0.00     0.036 H 
ENDBRANCH  21  25
ENDBRANCH  16  19
ENDBRANCH  13  15
BRANCH  13  29
ATOM     29  C8  non d ame     -30.415  13.979  28.400  0.00  0.00    -0.049 C 
ATOM     30  H7  non d ame     -29.942  13.005  28.517  0.00  0.00     0.030 H 
ATOM     31  H8  non d ame     -31.127  13.940  27.576  0.00  0.00     0.030 H 
ATOM     32  H9  non d ame     -29.653  14.730  28.187  0.00  0.00     0.030 H 
ENDBRANCH  13  29
ENDBRANCH  10  13
ENDBRANCH   7   9
BRANCH   7  33
ATOM     33  C11 non d ame     -32.464  18.168  27.162  0.00  0.00    -0.033 C 
ATOM     34  H12 non d ame     -31.413  17.888  27.235  0.00  0.00     0.042 H 
BRANCH  33  35
ATOM     35  C12 non d ame     -32.950  17.795  25.727  0.00  0.00    -0.071 C 
ATOM     36  H13 non d ame     -32.421  16.905  25.384  0.00  0.00     0.028 H 
ATOM     37  H14 non d ame     -34.021  17.596  25.745  0.00  0.00     0.028 H 
ATOM     38  H15 non d ame     -32.745  18.622  25.047  0.00  0.00     0.028 H 
ENDBRANCH  33  35
BRANCH  33  39
ATOM     39  C13 non d ame     -32.573  19.705  27.416  0.00  0.00    -0.071 C 
ATOM     40  H16 non d ame     -32.757  20.217  26.471  0.00  0.00     0.028 H 
ATOM     41  H17 non d ame     -33.395  19.903  28.104  0.00  0.00     0.028 H 
ATOM     42  H18 non d ame     -31.642  20.069  27.850  0.00  0.00     0.028 H 
ENDBRANCH  33  39
ENDBRANCH   7  33
ENDBRANCH   4   7
ENDBRANCH   1   3
BRANCH   1  43
ATOM     43  C15 non d ame     -36.829  14.405  26.558  0.00  0.00     0.240 C 
ATOM     44  O5  non d ame     -37.951  14.066  26.753  0.00  0.00    -0.271 OA
ATOM     45  N6  non d ame     -35.773  13.377  26.334  0.00  0.00    -0.355 N 
ATOM     46  H46 non d ame     -34.816  13.654  26.162  0.00  0.00     0.162 HD
BRANCH  45  47
ATOM     47  C20 non d ame     -36.128  11.942  26.366  0.00  0.00     0.013 C 
ATOM     48  H30 non d ame     -37.093  11.848  26.864  0.00  0.00     0.072 H 
BRANCH  47  49
ATOM     49  C21 non d ame     -35.072  11.182  27.136  0.00  0.00    -0.038 C 
ATOM     50  H31 non d ame     -35.323  11.314  28.189  0.00  0.00     0.036 H 
ATOM     51  H32 non d ame     -35.053  10.183  26.701  0.00  0.00     0.036 H 
BRANCH  49  52
ATOM     52  C22 non d ame     -33.655  11.767  26.947  0.00  0.00     0.018 C 
ATOM     53  H33 non d ame     -33.711  12.393  26.057  0.00  0.00     0.048 H 
ATOM     54  H34 non d ame     -33.388  12.208  27.908  0.00  0.00     0.048 H 
BRANCH  52  55
ATOM     55  C23 non d ame     -32.570  10.696  26.650  0.00  0.00     0.259 C 
ATOM     56  O7  non d ame     -31.416  10.955  26.775  0.00  0.00    -0.265 OA
BRANCH  55  57
ATOM     57  O8  non d ame     -32.969   9.402  26.213  0.00  0.00    -0.317 OA
BRANCH  57  58
ATOM     58  C29 non d ame     -32.496   8.336  27.041  0.00  0.00     0.052 C 
ATOM     59  H47 non d ame     -31.688   7.864  26.482  0.00  0.00     0.082 H 
ATOM     60  H48 non d ame     -32.299   8.783  28.015  0.00  0.00     0.082 H 
BRANCH  58  61
ATOM     61  C35 non d ame     -33.648   7.307  27.200  0.00  0.00    -0.034 A 
ATOM     62  C30 non d ame     -34.921   7.609  26.725  0.00  0.00    -0.075 A 
ATOM     63  C31 non d ame     -35.956   6.685  26.868  0.00  0.00    -0.082 A 
ATOM     64  H49 non d ame     -35.108   8.568  26.242  0.00  0.00     0.084 H 
ATOM     65  C32 non d ame     -35.715   5.457  27.490  0.00  0.00    -0.083 A 
ATOM     66  H50 non d ame     -36.952   6.924  26.493  0.00  0.00     0.083 H 
ATOM     67  C33 non d ame     -34.444   5.163  27.965  0.00  0.00    -0.082 A 
ATOM     68  H51 non d ame     -36.519   4.729  27.605  0.00  0.00     0.083 H 
ATOM     69  C34 non d ame     -33.407   6.082  27.823  0.00  0.00    -0.075 A 
ATOM     70  H52 non d ame     -34.260   4.205  28.453  0.00  0.00     0.083 H 
ATOM     71  H53 non d ame     -32.411   5.843  28.198  0.00  0.00     0.084 H 
ENDBRANCH  58  61
ENDBRANCH  57  58
ENDBRANCH  55  57
ENDBRANCH  52  55
ENDBRANCH  49  52
ENDBRANCH  47  49
BRANCH  47  72
ATOM     72  C24 non d ame     -36.211  11.399  24.941  0.00  0.00    -0.039 C 
ATOM     73  H35 non d ame     -35.719  12.147  24.318  0.00  0.00     0.036 H 
ATOM     74  H36 non d ame     -35.814  10.386  24.993  0.00  0.00     0.036 H 
BRANCH  72  75
ATOM     75  C25 non d ame     -37.727  11.287  24.437  0.00  0.00    -0.001 C 
ATOM     76  C26 non d ame     -38.002   9.789  23.819  0.00  0.00    -0.035 C 
ATOM     77  C27 non d ame     -38.556   9.918  22.589  0.00  0.00     0.085 C 
ATOM     78  H38 non d ame     -37.056   9.287  23.620  0.00  0.00     0.036 H 
ATOM     79  H39 non d ame     -38.777   9.282  24.395  0.00  0.00     0.036 H 
ATOM     80  N5  non d ame     -38.383  11.361  22.177  0.00  0.00    -0.049 N 
ATOM     81  H40 non d ame     -37.958   9.286  21.932  0.00  0.00     0.075 H 
ATOM     82  H41 non d ame     -39.617   9.713  22.725  0.00  0.00     0.075 H 
ATOM     83  C28 non d ame     -37.980  12.161  23.520  0.00  0.00     0.193 C 
ATOM     84  H42 non d ame     -37.598  11.384  21.542  0.00  0.00     0.280 HD
ATOM     85  H43 non d ame     -39.291  11.681  21.871  0.00  0.00     0.280 HD
ATOM     86  H44 non d ame     -38.715  12.781  24.035  0.00  0.00     0.129 H 
ATOM     87  H37 non d ame     -38.437  11.656  25.177  0.00  0.00     0.046 H 
BRANCH  83  88
ATOM     88  O6  non d ame     -36.865  13.017  23.268  0.00  0.00    -0.369 OA
ATOM     89  H45 non d ame     -36.379  13.158  24.085  0.00  0.00     0.212 HD
ENDBRANCH  83  88
ENDBRANCH  72  75
ENDBRANCH  47  72
ENDBRANCH  45  47
ENDBRANCH   1  43
BRANCH   1  90
ATOM     90  C16 non d ame     -36.638  16.454  25.114  0.00  0.00    -0.035 C 
ATOM     91  H21 non d ame     -35.629  16.672  24.768  0.00  0.00     0.037 H 
ATOM     92  H22 non d ame     -37.245  15.712  24.594  0.00  0.00     0.037 H 
BRANCH  90  93
ATOM     93  C17 non d ame     -37.428  17.800  25.042  0.00  0.00    -0.059 C 
ATOM     94  H23 non d ame     -37.983  17.807  24.104  0.00  0.00     0.038 H 
BRANCH  93  95
ATOM     95  C18 non d ame     -38.460  17.940  26.206  0.00  0.00    -0.073 C 
ATOM     96  H24 non d ame     -38.214  17.233  26.998  0.00  0.00     0.028 H 
ATOM     97  H25 non d ame     -38.424  18.955  26.603  0.00  0.00     0.028 H 
ATOM     98  H26 non d ame     -39.462  17.732  25.831  0.00  0.00     0.028 H 
ENDBRANCH  93  95
BRANCH  93  99
ATOM     99  C19 non d ame     -36.472  18.995  25.015  0.00  0.00    -0.073 C 
ATOM    100  H27 non d ame     -35.445  18.640  25.113  0.00  0.00     0.028 H 
ATOM    101  H28 non d ame     -36.582  19.529  24.071  0.00  0.00     0.028 H 
ATOM    102  H29 non d ame     -36.705  19.666  25.842  0.00  0.00     0.028 H 
ENDBRANCH  93  99
ENDBRANCH  90  93
ENDBRANCH   1  90
TORSDOF 26
ENDMDL
MODEL 6
REMARK VINA RESULT:      -6.6      3.629      7.277
REMARK  26 active torsions:
REMARK  status: ('A' for Active; 'I' for Inactive)
REMARK    1  A    between atoms: C2_2  and  C3_3 
REMARK    2  A    between atoms: C4_6  and  C5_7 
REMARK       I    between atoms: C5_7  and  N2_9 
REMARK    3  A    between atoms: N2_9  and  C6_10 
REMARK    4  A    between atoms: C6_10  and  C7_11 
REMARK    5  A    between atoms: C6_10  and  C8_13 
REMARK       I    between atoms: C7_11  and  N3_14 
REMARK    6  A    between atoms: N3_14  and  C9_15 
REMARK    7  A    between atoms: C9_15  and  C10_16 
REMARK    8  A    between atoms: C9_15  and  C11_18 
REMARK       I    between atoms: C10_16  and  N4_21 
REMARK    9  A    between atoms: C11_18  and  C12_19 
REMARK   10  A    between atoms: C11_18  and  C13_20 
REMARK   11  A    between atoms: N4_21  and  C14_22 
REMARK   12  A    between atoms: C14_22  and  C15_23 
REMARK   13  A    between atoms: C14_22  and  C16_25 
REMARK       I    between atoms: C15_23  and  N6_40 
REMARK   14  A    between atoms: C16_25  and  C17_26 
REMARK   15  A    between atoms: C17_26  and  C18_27 
REMARK   16  A    between atoms: C17_26  and  C19_28 
REMARK   17  A    between atoms: C20_29  and  C21_30 
REMARK   18  A    between atoms: C20_29  and  C24_33 
REMARK   19  A    between atoms: C20_29  and  N6_40 
REMARK   20  A    between atoms: C21_30  and  C22_31 
REMARK   21  A    between atoms: C22_31  and  C23_32 
REMARK   22  A    between atoms: C23_32  and  O8_43 
REMARK   23  A    between atoms: C24_33  and  C25_34 
REMARK   24  A    between atoms: C28_38  and  O6_39 
REMARK   25  A    between atoms: C29_42  and  O8_43 
REMARK   26  A    between atoms: C29_42  and  C35_49 
ROOT
ATOM      1  C14 non d ame     -32.614  10.491  28.911  0.00  0.00     0.089 C 
ATOM      2  H20 non d ame     -31.630  10.038  29.039  0.00  0.00     0.087 H 
ENDROOT
BRANCH   1   3
ATOM      3  N4  non d ame     -33.117  10.084  27.607  0.00  0.00    -0.346 N 
ATOM      4  C10 non d ame     -32.244  10.199  26.384  0.00  0.00     0.241 C 
ATOM      5  O4  non d ame     -31.140  10.624  26.471  0.00  0.00    -0.271 OA
ATOM      6  H19 non d ame     -34.061   9.728  27.553  0.00  0.00     0.163 HD
BRANCH   4   7
ATOM      7  C9  non d ame     -32.780   9.768  25.043  0.00  0.00     0.092 C 
ATOM      8  H11 non d ame     -32.795  10.626  24.371  0.00  0.00     0.088 H 
BRANCH   7   9
ATOM      9  N3  non d ame     -31.881   8.771  24.454  0.00  0.00    -0.346 N 
ATOM     10  C7  non d ame     -31.063   9.120  23.320  0.00  0.00     0.240 C 
ATOM     11  O3  non d ame     -31.115  10.198  22.867  0.00  0.00    -0.271 OA
ATOM     12  H10 non d ame     -31.827   7.837  24.833  0.00  0.00     0.163 HD
BRANCH  10  13
ATOM     13  C6  non d ame     -30.110   8.053  22.695  0.00  0.00     0.086 C 
ATOM     14  H6  non d ame     -29.875   7.243  23.385  0.00  0.00     0.086 H 
BRANCH  13  15
ATOM     15  N2  non d ame     -30.767   7.447  21.550  0.00  0.00    -0.343 N 
ATOM     16  C5  non d ame     -31.649   6.295  21.751  0.00  0.00     0.273 C 
ATOM     17  O2  non d ame     -31.821   5.862  22.837  0.00  0.00    -0.266 OA
ATOM     18  H5  non d ame     -30.612   7.821  20.625  0.00  0.00     0.163 HD
BRANCH  16  19
ATOM     19  C4  non d ame     -32.351   5.644  20.548  0.00  0.00     0.154 A 
ATOM     20  C1  non d ame     -32.402   4.251  20.227  0.00  0.00    -0.017 A 
ATOM     21  C2  non d ame     -33.161   4.180  19.037  0.00  0.00     0.077 A 
ATOM     22  H1  non d ame     -31.958   3.419  20.774  0.00  0.00     0.091 H 
ATOM     23  O1  non d ame     -33.501   5.395  18.721  0.00  0.00    -0.218 OA
ATOM     24  N1  non d ame     -33.040   6.267  19.588  0.00  0.00    -0.123 NA
BRANCH  21  25
ATOM     25  C3  non d ame     -33.515   2.915  18.268  0.00  0.00    -0.029 C 
ATOM     26  H2  non d ame     -34.436   3.076  17.708  0.00  0.00     0.036 H 
ATOM     27  H3  non d ame     -32.709   2.672  17.575  0.00  0.00     0.036 H 
ATOM     28  H4  non d ame     -33.654   2.090  18.967  0.00  0.00     0.036 H 
ENDBRANCH  21  25
ENDBRANCH  16  19
ENDBRANCH  13  15
BRANCH  13  29
ATOM     29  C8  non d ame     -28.826   8.714  22.264  0.00  0.00    -0.049 C 
ATOM     30  H7  non d ame     -28.031   8.454  22.962  0.00  0.00     0.030 H 
ATOM     31  H8  non d ame     -28.558   8.371  21.265  0.00  0.00     0.030 H 
ATOM     32  H9  non d ame     -28.960   9.797  22.253  0.00  0.00     0.030 H 
ENDBRANCH  13  29
ENDBRANCH  10  13
ENDBRANCH   7   9
BRANCH   7  33
ATOM     33  C11 non d ame     -34.195   9.143  25.227  0.00  0.00    -0.033 C 
ATOM     34  H12 non d ame     -34.496   9.311  26.261  0.00  0.00     0.042 H 
BRANCH  33  35
ATOM     35  C12 non d ame     -35.247   9.842  24.312  0.00  0.00    -0.071 C 
ATOM     36  H13 non d ame     -34.740  10.524  23.629  0.00  0.00     0.028 H 
ATOM     37  H14 non d ame     -35.788   9.090  23.738  0.00  0.00     0.028 H 
ATOM     38  H15 non d ame     -35.949  10.404  24.928  0.00  0.00     0.028 H 
ENDBRANCH  33  35
BRANCH  33  39
ATOM     39  C13 non d ame     -34.161   7.601  24.978  0.00  0.00    -0.071 C 
ATOM     40  H16 non d ame     -33.368   7.153  25.577  0.00  0.00     0.028 H 
ATOM     41  H17 non d ame     -35.121   7.166  25.259  0.00  0.00     0.028 H 
ATOM     42  H18 non d ame     -33.971   7.408  23.922  0.00  0.00     0.028 H 
ENDBRANCH  33  39
ENDBRANCH   7  33
ENDBRANCH   4   7
ENDBRANCH   1   3
BRANCH   1  43
ATOM     43  C15 non d ame     -33.622  10.023  29.999  0.00  0.00     0.240 C 
ATOM     44  O5  non d ame     -33.918  10.757  30.886  0.00  0.00    -0.271 OA
ATOM     45  N6  non d ame     -34.227   8.662  29.931  0.00  0.00    -0.355 N 
ATOM     46  H46 non d ame     -33.987   8.031  29.180  0.00  0.00     0.162 HD
BRANCH  45  47
ATOM     47  C20 non d ame     -35.184   8.233  30.973  0.00  0.00     0.013 C 
ATOM     48  H30 non d ame     -35.008   8.841  31.860  0.00  0.00     0.072 H 
BRANCH  47  49
ATOM     49  C21 non d ame     -34.955   6.773  31.293  0.00  0.00    -0.038 C 
ATOM     50  H31 non d ame     -33.962   6.540  30.906  0.00  0.00     0.036 H 
ATOM     51  H32 non d ame     -35.164   6.668  32.358  0.00  0.00     0.036 H 
BRANCH  49  52
ATOM     52  C22 non d ame     -35.940   5.837  30.560  0.00  0.00     0.018 C 
ATOM     53  H33 non d ame     -35.994   4.933  31.165  0.00  0.00     0.048 H 
ATOM     54  H34 non d ame     -36.837   6.431  30.386  0.00  0.00     0.048 H 
BRANCH  52  55
ATOM     55  C23 non d ame     -35.448   5.385  29.157  0.00  0.00     0.259 C 
ATOM     56  O7  non d ame     -34.342   5.629  28.798  0.00  0.00    -0.265 OA
BRANCH  55  57
ATOM     57  O8  non d ame     -36.341   4.685  28.297  0.00  0.00    -0.317 OA
BRANCH  57  58
ATOM     58  C29 non d ame     -36.601   5.354  27.060  0.00  0.00     0.052 C 
ATOM     59  H47 non d ame     -35.648   5.781  26.749  0.00  0.00     0.082 H 
ATOM     60  H48 non d ame     -37.103   4.621  26.428  0.00  0.00     0.082 H 
BRANCH  58  61
ATOM     61  C35 non d ame     -37.591   6.516  27.343  0.00  0.00    -0.034 A 
ATOM     62  C30 non d ame     -37.307   7.799  26.885  0.00  0.00    -0.075 A 
ATOM     63  C31 non d ame     -38.196   8.843  27.140  0.00  0.00    -0.082 A 
ATOM     64  H49 non d ame     -36.389   7.987  26.329  0.00  0.00     0.084 H 
ATOM     65  C32 non d ame     -39.372   8.600  27.856  0.00  0.00    -0.083 A 
ATOM     66  H50 non d ame     -37.972   9.847  26.779  0.00  0.00     0.083 H 
ATOM     67  C33 non d ame     -39.648   7.318  28.313  0.00  0.00    -0.082 A 
ATOM     68  H51 non d ame     -40.072   9.410  28.058  0.00  0.00     0.083 H 
ATOM     69  C34 non d ame     -38.764   6.272  28.060  0.00  0.00    -0.075 A 
ATOM     70  H52 non d ame     -40.565   7.133  28.874  0.00  0.00     0.083 H 
ATOM     71  H53 non d ame     -38.989   5.268  28.420  0.00  0.00     0.084 H 
ENDBRANCH  58  61
ENDBRANCH  57  58
ENDBRANCH  55  57
ENDBRANCH  52  55
ENDBRANCH  49  52
ENDBRANCH  47  49
BRANCH  47  72
ATOM     72  C24 non d ame     -36.614   8.427  30.472  0.00  0.00    -0.039 C 
ATOM     73  H35 non d ame     -36.518   8.943  29.516  0.00  0.00     0.036 H 
ATOM     74  H36 non d ame     -37.073   7.439  30.515  0.00  0.00     0.036 H 
BRANCH  72  75
ATOM     75  C25 non d ame     -37.457   9.383  31.442  0.00  0.00    -0.001 C 
ATOM     76  C26 non d ame     -38.981   8.792  31.624  0.00  0.00    -0.035 C 
ATOM     77  C27 non d ame     -39.868   9.783  31.367  0.00  0.00     0.085 C 
ATOM     78  H38 non d ame     -39.191   8.054  30.850  0.00  0.00     0.036 H 
ATOM     79  H39 non d ame     -39.166   8.550  32.671  0.00  0.00     0.036 H 
ATOM     80  N5  non d ame     -39.098  10.903  30.708  0.00  0.00    -0.049 N 
ATOM     81  H40 non d ame     -40.572   9.364  30.647  0.00  0.00     0.075 H 
ATOM     82  H41 non d ame     -40.220  10.119  32.341  0.00  0.00     0.075 H 
ATOM     83  C28 non d ame     -37.537  10.580  30.964  0.00  0.00     0.193 C 
ATOM     84  H42 non d ame     -39.282  10.833  29.718  0.00  0.00     0.280 HD
ATOM     85  H43 non d ame     -39.339  11.747  31.209  0.00  0.00     0.280 HD
ATOM     86  H44 non d ame     -36.975  11.131  31.718  0.00  0.00     0.129 H 
ATOM     87  H37 non d ame     -36.911   9.634  32.351  0.00  0.00     0.046 H 
BRANCH  83  88
ATOM     88  O6  non d ame     -36.798  10.727  29.751  0.00  0.00    -0.369 OA
ATOM     89  H45 non d ame     -37.190  10.177  29.068  0.00  0.00     0.212 HD
ENDBRANCH  83  88
ENDBRANCH  72  75
ENDBRANCH  47  72
ENDBRANCH  45  47
ENDBRANCH   1  43
BRANCH   1  90
ATOM     90  C16 non d ame     -32.491  12.006  28.946  0.00  0.00    -0.035 C 
ATOM     91  H21 non d ame     -32.651  12.332  27.919  0.00  0.00     0.037 H 
ATOM     92  H22 non d ame     -33.170  12.332  29.734  0.00  0.00     0.037 H 
BRANCH  90  93
ATOM     93  C17 non d ame     -31.069  12.510  29.352  0.00  0.00    -0.059 C 
ATOM     94  H23 non d ame     -30.362  11.709  29.136  0.00  0.00     0.038 H 
BRANCH  93  95
ATOM     95  C18 non d ame     -30.632  13.765  28.532  0.00  0.00    -0.073 C 
ATOM     96  H24 non d ame     -29.808  13.499  27.869  0.00  0.00     0.028 H 
ATOM     97  H25 non d ame     -31.473  14.122  27.937  0.00  0.00     0.028 H 
ATOM     98  H26 non d ame     -30.310  14.551  29.214  0.00  0.00     0.028 H 
ENDBRANCH  93  95
BRANCH  93  99
ATOM     99  C19 non d ame     -30.996  12.789  30.855  0.00  0.00    -0.073 C 
ATOM    100  H27 non d ame     -29.952  12.875  31.158  0.00  0.00     0.028 H 
ATOM    101  H28 non d ame     -31.517  13.721  31.078  0.00  0.00     0.028 H 
ATOM    102  H29 non d ame     -31.467  11.971  31.400  0.00  0.00     0.028 H 
ENDBRANCH  93  99
ENDBRANCH  90  93
ENDBRANCH   1  90
TORSDOF 26
ENDMDL
MODEL 7
REMARK VINA RESULT:      -6.5      2.629      7.756
REMARK  26 active torsions:
REMARK  status: ('A' for Active; 'I' for Inactive)
REMARK    1  A    between atoms: C2_2  and  C3_3 
REMARK    2  A    between atoms: C4_6  and  C5_7 
REMARK       I    between atoms: C5_7  and  N2_9 
REMARK    3  A    between atoms: N2_9  and  C6_10 
REMARK    4  A    between atoms: C6_10  and  C7_11 
REMARK    5  A    between atoms: C6_10  and  C8_13 
REMARK       I    between atoms: C7_11  and  N3_14 
REMARK    6  A    between atoms: N3_14  and  C9_15 
REMARK    7  A    between atoms: C9_15  and  C10_16 
REMARK    8  A    between atoms: C9_15  and  C11_18 
REMARK       I    between atoms: C10_16  and  N4_21 
REMARK    9  A    between atoms: C11_18  and  C12_19 
REMARK   10  A    between atoms: C11_18  and  C13_20 
REMARK   11  A    between atoms: N4_21  and  C14_22 
REMARK   12  A    between atoms: C14_22  and  C15_23 
REMARK   13  A    between atoms: C14_22  and  C16_25 
REMARK       I    between atoms: C15_23  and  N6_40 
REMARK   14  A    between atoms: C16_25  and  C17_26 
REMARK   15  A    between atoms: C17_26  and  C18_27 
REMARK   16  A    between atoms: C17_26  and  C19_28 
REMARK   17  A    between atoms: C20_29  and  C21_30 
REMARK   18  A    between atoms: C20_29  and  C24_33 
REMARK   19  A    between atoms: C20_29  and  N6_40 
REMARK   20  A    between atoms: C21_30  and  C22_31 
REMARK   21  A    between atoms: C22_31  and  C23_32 
REMARK   22  A    between atoms: C23_32  and  O8_43 
REMARK   23  A    between atoms: C24_33  and  C25_34 
REMARK   24  A    between atoms: C28_38  and  O6_39 
REMARK   25  A    between atoms: C29_42  and  O8_43 
REMARK   26  A    between atoms: C29_42  and  C35_49 
ROOT
ATOM      1  C14 non d ame     -35.692  12.596  26.687  0.00  0.00     0.089 C 
ATOM      2  H20 non d ame     -35.570  11.901  25.855  0.00  0.00     0.087 H 
ENDROOT
BRANCH   1   3
ATOM      3  N4  non d ame     -35.610  11.824  27.918  0.00  0.00    -0.346 N 
ATOM      4  C10 non d ame     -35.933  10.352  27.917  0.00  0.00     0.241 C 
ATOM      5  O4  non d ame     -36.258   9.808  26.913  0.00  0.00    -0.271 OA
ATOM      6  H19 non d ame     -35.335  12.305  28.762  0.00  0.00     0.163 HD
BRANCH   4   7
ATOM      7  C9  non d ame     -35.839   9.567  29.200  0.00  0.00     0.092 C 
ATOM      8  H11 non d ame     -36.844   9.329  29.548  0.00  0.00     0.088 H 
BRANCH   7   9
ATOM      9  N3  non d ame     -35.154   8.296  28.947  0.00  0.00    -0.346 N 
ATOM     10  C7  non d ame     -35.816   7.050  29.244  0.00  0.00     0.240 C 
ATOM     11  O3  non d ame     -36.899   7.051  29.687  0.00  0.00    -0.271 OA
ATOM     12  H10 non d ame     -34.219   8.280  28.566  0.00  0.00     0.163 HD
BRANCH  10  13
ATOM     13  C6  non d ame     -35.081   5.700  28.976  0.00  0.00     0.086 C 
ATOM     14  H6  non d ame     -35.743   4.931  28.579  0.00  0.00     0.086 H 
BRANCH  13  15
ATOM     15  N2  non d ame     -34.048   5.916  27.976  0.00  0.00    -0.343 N 
ATOM     16  C5  non d ame     -34.306   5.549  26.582  0.00  0.00     0.273 C 
ATOM     17  O2  non d ame     -35.346   5.078  26.275  0.00  0.00    -0.266 OA
ATOM     18  H5  non d ame     -33.161   6.316  28.247  0.00  0.00     0.163 HD
BRANCH  16  19
ATOM     19  C4  non d ame     -33.223   5.772  25.514  0.00  0.00     0.154 A 
ATOM     20  C1  non d ame     -33.384   5.713  24.094  0.00  0.00    -0.017 A 
ATOM     21  C2  non d ame     -32.101   5.990  23.571  0.00  0.00     0.077 A 
ATOM     22  H1  non d ame     -34.292   5.502  23.529  0.00  0.00     0.091 H 
ATOM     23  O1  non d ame     -31.305   6.185  24.581  0.00  0.00    -0.218 OA
ATOM     24  N1  non d ame     -31.937   6.063  25.725  0.00  0.00    -0.123 NA
BRANCH  21  25
ATOM     25  C3  non d ame     -31.722   6.050  22.098  0.00  0.00    -0.029 C 
ATOM     26  H2  non d ame     -30.638   5.990  21.999  0.00  0.00     0.036 H 
ATOM     27  H3  non d ame     -32.180   5.213  21.570  0.00  0.00     0.036 H 
ATOM     28  H4  non d ame     -32.075   6.987  21.669  0.00  0.00     0.036 H 
ENDBRANCH  21  25
ENDBRANCH  16  19
ENDBRANCH  13  15
BRANCH  13  29
ATOM     29  C8  non d ame     -34.464   5.198  30.256  0.00  0.00    -0.049 C 
ATOM     30  H7  non d ame     -34.370   6.022  30.962  0.00  0.00     0.030 H 
ATOM     31  H8  non d ame     -35.098   4.422  30.686  0.00  0.00     0.030 H 
ATOM     32  H9  non d ame     -33.476   4.785  30.046  0.00  0.00     0.030 H 
ENDBRANCH  13  29
ENDBRANCH  10  13
ENDBRANCH   7   9
BRANCH   7  33
ATOM     33  C11 non d ame     -35.034  10.387  30.250  0.00  0.00    -0.033 C 
ATOM     34  H12 non d ame     -35.095  11.437  29.965  0.00  0.00     0.042 H 
BRANCH  33  35
ATOM     35  C12 non d ame     -35.656  10.251  31.675  0.00  0.00    -0.071 C 
ATOM     36  H13 non d ame     -36.304  11.106  31.871  0.00  0.00     0.028 H 
ATOM     37  H14 non d ame     -36.239   9.333  31.731  0.00  0.00     0.028 H 
ATOM     38  H15 non d ame     -34.860  10.223  32.419  0.00  0.00     0.028 H 
ENDBRANCH  33  35
BRANCH  33  39
ATOM     39  C13 non d ame     -33.528   9.972  30.248  0.00  0.00    -0.071 C 
ATOM     40  H16 non d ame     -33.265   9.553  31.219  0.00  0.00     0.028 H 
ATOM     41  H17 non d ame     -33.357   9.227  29.471  0.00  0.00     0.028 H 
ATOM     42  H18 non d ame     -32.910  10.848  30.051  0.00  0.00     0.028 H 
ENDBRANCH  33  39
ENDBRANCH   7  33
ENDBRANCH   4   7
ENDBRANCH   1   3
BRANCH   1  43
ATOM     43  C15 non d ame     -34.579  13.684  26.710  0.00  0.00     0.240 C 
ATOM     44  O5  non d ame     -34.071  14.031  25.693  0.00  0.00    -0.271 OA
ATOM     45  N6  non d ame     -34.156  14.301  27.999  0.00  0.00    -0.355 N 
ATOM     46  H46 non d ame     -34.584  14.018  28.869  0.00  0.00     0.162 HD
BRANCH  45  47
ATOM     47  C20 non d ame     -33.098  15.335  28.003  0.00  0.00     0.013 C 
ATOM     48  H30 non d ame     -32.421  15.124  27.175  0.00  0.00     0.072 H 
BRANCH  47  49
ATOM     49  C21 non d ame     -32.347  15.276  29.314  0.00  0.00    -0.038 C 
ATOM     50  H31 non d ame     -32.104  16.310  29.561  0.00  0.00     0.036 H 
ATOM     51  H32 non d ame     -32.973  14.688  29.986  0.00  0.00     0.036 H 
BRANCH  49  52
ATOM     52  C22 non d ame     -31.002  14.525  29.201  0.00  0.00     0.018 C 
ATOM     53  H33 non d ame     -30.728  14.568  28.148  0.00  0.00     0.048 H 
ATOM     54  H34 non d ame     -30.351  14.972  29.953  0.00  0.00     0.048 H 
BRANCH  52  55
ATOM     55  C23 non d ame     -31.096  13.016  29.559  0.00  0.00     0.259 C 
ATOM     56  O7  non d ame     -31.250  12.672  30.687  0.00  0.00    -0.265 OA
BRANCH  55  57
ATOM     57  O8  non d ame     -30.982  12.046  28.525  0.00  0.00    -0.317 OA
BRANCH  57  58
ATOM     58  C29 non d ame     -31.035  12.593  27.204  0.00  0.00     0.052 C 
ATOM     59  H47 non d ame     -31.763  13.403  27.249  0.00  0.00     0.082 H 
ATOM     60  H48 non d ame     -30.002  12.804  26.930  0.00  0.00     0.082 H 
BRANCH  58  61
ATOM     61  C35 non d ame     -31.580  11.494  26.252  0.00  0.00    -0.034 A 
ATOM     62  C30 non d ame     -31.261  11.526  24.898  0.00  0.00    -0.075 A 
ATOM     63  C31 non d ame     -31.751  10.540  24.043  0.00  0.00    -0.082 A 
ATOM     64  H49 non d ame     -30.630  12.324  24.506  0.00  0.00     0.084 H 
ATOM     65  C32 non d ame     -32.563   9.520  24.546  0.00  0.00    -0.083 A 
ATOM     66  H50 non d ame     -31.498  10.566  22.982  0.00  0.00     0.083 H 
ATOM     67  C33 non d ame     -32.881   9.495  25.897  0.00  0.00    -0.082 A 
ATOM     68  H51 non d ame     -32.949   8.744  23.884  0.00  0.00     0.083 H 
ATOM     69  C34 non d ame     -32.392  10.478  26.756  0.00  0.00    -0.075 A 
ATOM     70  H52 non d ame     -33.517   8.699  26.287  0.00  0.00     0.083 H 
ATOM     71  H53 non d ame     -32.645  10.450  27.816  0.00  0.00     0.084 H 
ENDBRANCH  58  61
ENDBRANCH  57  58
ENDBRANCH  55  57
ENDBRANCH  52  55
ENDBRANCH  49  52
ENDBRANCH  47  49
BRANCH  47  72
ATOM     72  C24 non d ame     -33.726  16.717  27.836  0.00  0.00    -0.039 C 
ATOM     73  H35 non d ame     -34.601  16.562  27.203  0.00  0.00     0.036 H 
ATOM     74  H36 non d ame     -33.847  17.105  28.847  0.00  0.00     0.036 H 
BRANCH  72  75
ATOM     75  C25 non d ame     -32.751  17.721  27.058  0.00  0.00    -0.001 C 
ATOM     76  C26 non d ame     -32.742  19.185  27.806  0.00  0.00    -0.035 C 
ATOM     77  C27 non d ame     -32.986  20.148  26.886  0.00  0.00     0.085 C 
ATOM     78  H38 non d ame     -33.589  19.262  28.487  0.00  0.00     0.036 H 
ATOM     79  H39 non d ame     -31.737  19.419  28.159  0.00  0.00     0.036 H 
ATOM     80  N5  non d ame     -33.485  19.452  25.641  0.00  0.00    -0.049 N 
ATOM     81  H40 non d ame     -33.792  20.752  27.303  0.00  0.00     0.075 H 
ATOM     82  H41 non d ame     -32.019  20.602  26.675  0.00  0.00     0.075 H 
ATOM     83  C28 non d ame     -33.132  17.889  25.835  0.00  0.00     0.193 C 
ATOM     84  H42 non d ame     -34.489  19.557  25.638  0.00  0.00     0.280 HD
ATOM     85  H43 non d ame     -32.936  19.813  24.874  0.00  0.00     0.280 HD
ATOM     86  H44 non d ame     -32.292  17.441  25.303  0.00  0.00     0.129 H 
ATOM     87  H37 non d ame     -31.783  17.270  26.839  0.00  0.00     0.046 H 
BRANCH  83  88
ATOM     88  O6  non d ame     -34.266  17.083  25.508  0.00  0.00    -0.369 OA
ATOM     89  H45 non d ame     -33.969  16.248  25.137  0.00  0.00     0.212 HD
ENDBRANCH  83  88
ENDBRANCH  72  75
ENDBRANCH  47  72
ENDBRANCH  45  47
ENDBRANCH   1  43
BRANCH   1  90
ATOM     90  C16 non d ame     -37.056  13.261  26.606  0.00  0.00    -0.035 C 
ATOM     91  H21 non d ame     -37.627  12.849  27.436  0.00  0.00     0.037 H 
ATOM     92  H22 non d ame     -36.852  14.331  26.560  0.00  0.00     0.037 H 
BRANCH  90  93
ATOM     93  C17 non d ame     -37.849  12.907  25.307  0.00  0.00    -0.059 C 
ATOM     94  H23 non d ame     -38.706  12.300  25.599  0.00  0.00     0.038 H 
BRANCH  93  95
ATOM     95  C18 non d ame     -38.392  14.180  24.582  0.00  0.00    -0.073 C 
ATOM     96  H24 non d ame     -38.852  14.846  25.312  0.00  0.00     0.028 H 
ATOM     97  H25 non d ame     -37.568  14.696  24.090  0.00  0.00     0.028 H 
ATOM     98  H26 non d ame     -39.133  13.886  23.840  0.00  0.00     0.028 H 
ENDBRANCH  93  95
BRANCH  93  99
ATOM     99  C19 non d ame     -36.995  12.063  24.358  0.00  0.00    -0.073 C 
ATOM    100  H27 non d ame     -37.392  11.048  24.317  0.00  0.00     0.028 H 
ATOM    101  H28 non d ame     -37.017  12.501  23.360  0.00  0.00     0.028 H 
ATOM    102  H29 non d ame     -35.967  12.036  24.720  0.00  0.00     0.028 H 
ENDBRANCH  93  99
ENDBRANCH  90  93
ENDBRANCH   1  90
TORSDOF 26
ENDMDL
MODEL 8
REMARK VINA RESULT:      -6.5      2.659      8.405
REMARK  26 active torsions:
REMARK  status: ('A' for Active; 'I' for Inactive)
REMARK    1  A    between atoms: C2_2  and  C3_3 
REMARK    2  A    between atoms: C4_6  and  C5_7 
REMARK       I    between atoms: C5_7  and  N2_9 
REMARK    3  A    between atoms: N2_9  and  C6_10 
REMARK    4  A    between atoms: C6_10  and  C7_11 
REMARK    5  A    between atoms: C6_10  and  C8_13 
REMARK       I    between atoms: C7_11  and  N3_14 
REMARK    6  A    between atoms: N3_14  and  C9_15 
REMARK    7  A    between atoms: C9_15  and  C10_16 
REMARK    8  A    between atoms: C9_15  and  C11_18 
REMARK       I    between atoms: C10_16  and  N4_21 
REMARK    9  A    between atoms: C11_18  and  C12_19 
REMARK   10  A    between atoms: C11_18  and  C13_20 
REMARK   11  A    between atoms: N4_21  and  C14_22 
REMARK   12  A    between atoms: C14_22  and  C15_23 
REMARK   13  A    between atoms: C14_22  and  C16_25 
REMARK       I    between atoms: C15_23  and  N6_40 
REMARK   14  A    between atoms: C16_25  and  C17_26 
REMARK   15  A    between atoms: C17_26  and  C18_27 
REMARK   16  A    between atoms: C17_26  and  C19_28 
REMARK   17  A    between atoms: C20_29  and  C21_30 
REMARK   18  A    between atoms: C20_29  and  C24_33 
REMARK   19  A    between atoms: C20_29  and  N6_40 
REMARK   20  A    between atoms: C21_30  and  C22_31 
REMARK   21  A    between atoms: C22_31  and  C23_32 
REMARK   22  A    between atoms: C23_32  and  O8_43 
REMARK   23  A    between atoms: C24_33  and  C25_34 
REMARK   24  A    between atoms: C28_38  and  O6_39 
REMARK   25  A    between atoms: C29_42  and  O8_43 
REMARK   26  A    between atoms: C29_42  and  C35_49 
ROOT
ATOM      1  C14 non d ame     -34.772   4.495  25.600  0.00  0.00     0.089 C 
ATOM      2  H20 non d ame     -33.861   4.176  26.107  0.00  0.00     0.087 H 
ENDROOT
BRANCH   1   3
ATOM      3  N4  non d ame     -35.707   4.947  26.619  0.00  0.00    -0.346 N 
ATOM      4  C10 non d ame     -35.288   5.003  28.066  0.00  0.00     0.241 C 
ATOM      5  O4  non d ame     -34.193   4.677  28.388  0.00  0.00    -0.271 OA
ATOM      6  H19 non d ame     -36.635   5.217  26.326  0.00  0.00     0.163 HD
BRANCH   4   7
ATOM      7  C9  non d ame     -36.267   5.477  29.108  0.00  0.00     0.092 C 
ATOM      8  H11 non d ame     -36.232   4.806  29.966  0.00  0.00     0.088 H 
BRANCH   7   9
ATOM      9  N3  non d ame     -35.871   6.807  29.581  0.00  0.00    -0.346 N 
ATOM     10  C7  non d ame     -35.203   6.951  30.851  0.00  0.00     0.240 C 
ATOM     11  O3  non d ame     -34.976   6.007  31.505  0.00  0.00    -0.271 OA
ATOM     12  H10 non d ame     -36.062   7.631  29.028  0.00  0.00     0.163 HD
BRANCH  10  13
ATOM     13  C6  non d ame     -34.787   8.369  31.351  0.00  0.00     0.086 C 
ATOM     14  H6  non d ame     -34.088   8.333  32.187  0.00  0.00     0.086 H 
BRANCH  13  15
ATOM     15  N2  non d ame     -34.109   9.069  30.273  0.00  0.00    -0.343 N 
ATOM     16  C5  non d ame     -33.372  10.300  30.564  0.00  0.00     0.273 C 
ATOM     17  O2  non d ame     -33.332  10.721  31.668  0.00  0.00    -0.266 OA
ATOM     18  H5  non d ame     -34.151   8.704  29.332  0.00  0.00     0.163 HD
BRANCH  16  19
ATOM     19  C4  non d ame     -32.650  11.051  29.433  0.00  0.00     0.154 A 
ATOM     20  C1  non d ame     -32.021  12.333  29.510  0.00  0.00    -0.017 A 
ATOM     21  C2  non d ame     -31.513  12.567  28.213  0.00  0.00     0.077 A 
ATOM     22  H1  non d ame     -31.945  12.993  30.375  0.00  0.00     0.091 H 
ATOM     23  O1  non d ame     -31.817  11.534  27.485  0.00  0.00    -0.218 OA
ATOM     24  N1  non d ame     -32.482  10.635  28.175  0.00  0.00    -0.123 NA
BRANCH  21  25
ATOM     25  C3  non d ame     -30.747  13.800  27.754  0.00  0.00    -0.029 C 
ATOM     26  H2  non d ame     -31.082  14.669  28.321  0.00  0.00     0.036 H 
ATOM     27  H3  non d ame     -29.680  13.650  27.921  0.00  0.00     0.036 H 
ATOM     28  H4  non d ame     -30.928  13.968  26.693  0.00  0.00     0.036 H 
ENDBRANCH  21  25
ENDBRANCH  16  19
ENDBRANCH  13  15
BRANCH  13  29
ATOM     29  C8  non d ame     -36.014   9.135  31.775  0.00  0.00    -0.049 C 
ATOM     30  H7  non d ame     -36.680   8.477  32.332  0.00  0.00     0.030 H 
ATOM     31  H8  non d ame     -35.719   9.972  32.408  0.00  0.00     0.030 H 
ATOM     32  H9  non d ame     -36.531   9.511  30.891  0.00  0.00     0.030 H 
ENDBRANCH  13  29
ENDBRANCH  10  13
ENDBRANCH   7   9
BRANCH   7  33
ATOM     33  C11 non d ame     -37.691   5.555  28.483  0.00  0.00    -0.033 C 
ATOM     34  H12 non d ame     -37.621   5.189  27.459  0.00  0.00     0.042 H 
BRANCH  33  35
ATOM     35  C12 non d ame     -38.696   4.634  29.243  0.00  0.00    -0.071 C 
ATOM     36  H13 non d ame     -38.998   5.116  30.173  0.00  0.00     0.028 H 
ATOM     37  H14 non d ame     -39.574   4.462  28.621  0.00  0.00     0.028 H 
ATOM     38  H15 non d ame     -38.217   3.681  29.468  0.00  0.00     0.028 H 
ENDBRANCH  33  35
BRANCH  33  39
ATOM     39  C13 non d ame     -38.201   7.031  28.434  0.00  0.00    -0.071 C 
ATOM     40  H16 non d ame     -39.008   7.113  27.706  0.00  0.00     0.028 H 
ATOM     41  H17 non d ame     -38.567   7.323  29.419  0.00  0.00     0.028 H 
ATOM     42  H18 non d ame     -37.382   7.689  28.144  0.00  0.00     0.028 H 
ENDBRANCH  33  39
ENDBRANCH   7  33
ENDBRANCH   4   7
ENDBRANCH   1   3
BRANCH   1  43
ATOM     43  C15 non d ame     -34.512   5.668  24.611  0.00  0.00     0.240 C 
ATOM     44  O5  non d ame     -35.110   5.720  23.585  0.00  0.00    -0.271 OA
ATOM     45  N6  non d ame     -33.525   6.734  24.948  0.00  0.00    -0.355 N 
ATOM     46  H46 non d ame     -33.015   6.703  25.819  0.00  0.00     0.162 HD
BRANCH  45  47
ATOM     47  C20 non d ame     -33.291   7.842  23.998  0.00  0.00     0.013 C 
ATOM     48  H30 non d ame     -34.100   7.834  23.268  0.00  0.00     0.072 H 
BRANCH  47  49
ATOM     49  C21 non d ame     -31.965   7.633  23.303  0.00  0.00    -0.038 C 
ATOM     50  H31 non d ame     -31.210   7.685  24.088  0.00  0.00     0.036 H 
ATOM     51  H32 non d ame     -32.080   6.721  22.717  0.00  0.00     0.036 H 
BRANCH  49  52
ATOM     52  C22 non d ame     -31.630   8.758  22.299  0.00  0.00     0.018 C 
ATOM     53  H33 non d ame     -31.732   8.312  21.311  0.00  0.00     0.048 H 
ATOM     54  H34 non d ame     -32.258   9.603  22.584  0.00  0.00     0.048 H 
BRANCH  52  55
ATOM     55  C23 non d ame     -30.164   9.264  22.392  0.00  0.00     0.259 C 
ATOM     56  O7  non d ame     -29.267   8.494  22.518  0.00  0.00    -0.265 OA
BRANCH  55  57
ATOM     57  O8  non d ame     -29.904  10.662  22.339  0.00  0.00    -0.317 OA
BRANCH  57  58
ATOM     58  C29 non d ame     -30.496  11.406  23.408  0.00  0.00     0.052 C 
ATOM     59  H47 non d ame     -31.559  11.167  23.380  0.00  0.00     0.082 H 
ATOM     60  H48 non d ame     -29.907  11.170  24.293  0.00  0.00     0.082 H 
BRANCH  58  61
ATOM     61  C35 non d ame     -30.324  12.916  23.092  0.00  0.00    -0.034 A 
ATOM     62  C30 non d ame     -30.939  13.870  23.898  0.00  0.00    -0.075 A 
ATOM     63  C31 non d ame     -30.785  15.226  23.614  0.00  0.00    -0.082 A 
ATOM     64  H49 non d ame     -31.543  13.555  24.749  0.00  0.00     0.084 H 
ATOM     65  C32 non d ame     -30.014  15.628  22.520  0.00  0.00    -0.083 A 
ATOM     66  H50 non d ame     -31.267  15.972  24.248  0.00  0.00     0.083 H 
ATOM     67  C33 non d ame     -29.405  14.672  21.718  0.00  0.00    -0.082 A 
ATOM     68  H51 non d ame     -29.887  16.687  22.292  0.00  0.00     0.083 H 
ATOM     69  C34 non d ame     -29.555  13.316  21.998  0.00  0.00    -0.075 A 
ATOM     70  H52 non d ame     -28.805  14.988  20.864  0.00  0.00     0.083 H 
ATOM     71  H53 non d ame     -29.072  12.571  21.365  0.00  0.00     0.084 H 
ENDBRANCH  58  61
ENDBRANCH  57  58
ENDBRANCH  55  57
ENDBRANCH  52  55
ENDBRANCH  49  52
ENDBRANCH  47  49
BRANCH  47  72
ATOM     72  C24 non d ame     -33.270   9.171  24.751  0.00  0.00    -0.039 C 
ATOM     73  H35 non d ame     -32.662   8.991  25.638  0.00  0.00     0.036 H 
ATOM     74  H36 non d ame     -32.956   9.915  24.018  0.00  0.00     0.036 H 
BRANCH  72  75
ATOM     75  C25 non d ame     -34.731   9.591  25.254  0.00  0.00    -0.001 C 
ATOM     76  C26 non d ame     -35.850   9.193  24.118  0.00  0.00    -0.035 C 
ATOM     77  C27 non d ame     -36.616  10.280  23.859  0.00  0.00     0.085 C 
ATOM     78  H38 non d ame     -35.361   8.994  23.164  0.00  0.00     0.036 H 
ATOM     79  H39 non d ame     -36.560   8.473  24.527  0.00  0.00     0.036 H 
ATOM     80  N5  non d ame     -35.915  11.469  24.473  0.00  0.00    -0.049 N 
ATOM     81  H40 non d ame     -36.614  10.387  22.775  0.00  0.00     0.075 H 
ATOM     82  H41 non d ame     -37.553  10.109  24.389  0.00  0.00     0.075 H 
ATOM     83  C28 non d ame     -34.802  10.862  25.472  0.00  0.00     0.193 C 
ATOM     84  H42 non d ame     -35.443  11.944  23.717  0.00  0.00     0.280 HD
ATOM     85  H43 non d ame     -36.609  11.957  25.021  0.00  0.00     0.280 HD
ATOM     86  H44 non d ame     -34.965  10.868  26.550  0.00  0.00     0.129 H 
ATOM     87  H37 non d ame     -34.924   9.266  26.276  0.00  0.00     0.046 H 
BRANCH  83  88
ATOM     88  O6  non d ame     -33.548  11.515  25.270  0.00  0.00    -0.369 OA
ATOM     89  H45 non d ame     -33.607  12.423  25.579  0.00  0.00     0.212 HD
ENDBRANCH  83  88
ENDBRANCH  72  75
ENDBRANCH  47  72
ENDBRANCH  45  47
ENDBRANCH   1  43
BRANCH   1  90
ATOM     90  C16 non d ame     -35.382   3.321  24.851  0.00  0.00    -0.035 C 
ATOM     91  H21 non d ame     -36.314   3.101  25.369  0.00  0.00     0.037 H 
ATOM     92  H22 non d ame     -35.398   3.624  23.804  0.00  0.00     0.037 H 
BRANCH  90  93
ATOM     93  C17 non d ame     -34.521   2.019  24.921  0.00  0.00    -0.059 C 
ATOM     94  H23 non d ame     -35.203   1.180  25.056  0.00  0.00     0.038 H 
BRANCH  93  95
ATOM     95  C18 non d ame     -33.718   1.772  23.604  0.00  0.00    -0.073 C 
ATOM     96  H24 non d ame     -34.261   1.069  22.972  0.00  0.00     0.028 H 
ATOM     97  H25 non d ame     -33.594   2.715  23.072  0.00  0.00     0.028 H 
ATOM     98  H26 non d ame     -32.739   1.360  23.848  0.00  0.00     0.028 H 
ENDBRANCH  93  95
BRANCH  93  99
ATOM     99  C19 non d ame     -33.586   2.046  26.132  0.00  0.00    -0.073 C 
ATOM    100  H27 non d ame     -34.165   1.885  27.042  0.00  0.00     0.028 H 
ATOM    101  H28 non d ame     -32.839   1.258  26.034  0.00  0.00     0.028 H 
ATOM    102  H29 non d ame     -33.088   3.014  26.185  0.00  0.00     0.028 H 
ENDBRANCH  93  99
ENDBRANCH  90  93
ENDBRANCH   1  90
TORSDOF 26
ENDMDL
MODEL 9
REMARK VINA RESULT:      -6.4      3.313      8.581
REMARK  26 active torsions:
REMARK  status: ('A' for Active; 'I' for Inactive)
REMARK    1  A    between atoms: C2_2  and  C3_3 
REMARK    2  A    between atoms: C4_6  and  C5_7 
REMARK       I    between atoms: C5_7  and  N2_9 
REMARK    3  A    between atoms: N2_9  and  C6_10 
REMARK    4  A    between atoms: C6_10  and  C7_11 
REMARK    5  A    between atoms: C6_10  and  C8_13 
REMARK       I    between atoms: C7_11  and  N3_14 
REMARK    6  A    between atoms: N3_14  and  C9_15 
REMARK    7  A    between atoms: C9_15  and  C10_16 
REMARK    8  A    between atoms: C9_15  and  C11_18 
REMARK       I    between atoms: C10_16  and  N4_21 
REMARK    9  A    between atoms: C11_18  and  C12_19 
REMARK   10  A    between atoms: C11_18  and  C13_20 
REMARK   11  A    between atoms: N4_21  and  C14_22 
REMARK   12  A    between atoms: C14_22  and  C15_23 
REMARK   13  A    between atoms: C14_22  and  C16_25 
REMARK       I    between atoms: C15_23  and  N6_40 
REMARK   14  A    between atoms: C16_25  and  C17_26 
REMARK   15  A    between atoms: C17_26  and  C18_27 
REMARK   16  A    between atoms: C17_26  and  C19_28 
REMARK   17  A    between atoms: C20_29  and  C21_30 
REMARK   18  A    between atoms: C20_29  and  C24_33 
REMARK   19  A    between atoms: C20_29  and  N6_40 
REMARK   20  A    between atoms: C21_30  and  C22_31 
REMARK   21  A    between atoms: C22_31  and  C23_32 
REMARK   22  A    between atoms: C23_32  and  O8_43 
REMARK   23  A    between atoms: C24_33  and  C25_34 
REMARK   24  A    between atoms: C28_38  and  O6_39 
REMARK   25  A    between atoms: C29_42  and  O8_43 
REMARK   26  A    between atoms: C29_42  and  C35_49 
ROOT
ATOM      1  C14 non d ame     -33.811   5.430  26.926  0.00  0.00     0.089 C 
ATOM      2  H20 non d ame     -33.339   4.735  27.621  0.00  0.00     0.087 H 
ENDROOT
BRANCH   1   3
ATOM      3  N4  non d ame     -35.136   5.736  27.443  0.00  0.00    -0.346 N 
ATOM      4  C10 non d ame     -35.473   5.462  28.886  0.00  0.00     0.241 C 
ATOM      5  O4  non d ame     -34.662   4.993  29.614  0.00  0.00    -0.271 OA
ATOM      6  H19 non d ame     -35.814   6.131  26.807  0.00  0.00     0.163 HD
BRANCH   4   7
ATOM      7  C9  non d ame     -36.849   5.788  29.405  0.00  0.00     0.092 C 
ATOM      8  H11 non d ame     -37.086   5.124  30.235  0.00  0.00     0.088 H 
BRANCH   7   9
ATOM      9  N3  non d ame     -36.862   7.158  29.928  0.00  0.00    -0.346 N 
ATOM     10  C7  non d ame     -37.585   7.459  31.139  0.00  0.00     0.240 C 
ATOM     11  O3  non d ame     -38.161   6.613  31.706  0.00  0.00    -0.271 OA
ATOM     12  H10 non d ame     -36.371   7.899  29.450  0.00  0.00     0.163 HD
BRANCH  10  13
ATOM     13  C6  non d ame     -37.598   8.919  31.690  0.00  0.00     0.086 C 
ATOM     14  H6  non d ame     -37.445   8.965  32.768  0.00  0.00     0.086 H 
BRANCH  13  15
ATOM     15  N2  non d ame     -36.506   9.662  31.084  0.00  0.00    -0.343 N 
ATOM     16  C5  non d ame     -35.134   9.430  31.541  0.00  0.00     0.273 C 
ATOM     17  O2  non d ame     -34.920   8.646  32.400  0.00  0.00    -0.266 OA
ATOM     18  H5  non d ame     -36.698  10.332  30.353  0.00  0.00     0.163 HD
BRANCH  16  19
ATOM     19  C4  non d ame     -33.969  10.208  30.908  0.00  0.00     0.154 A 
ATOM     20  C1  non d ame     -33.356  11.402  31.405  0.00  0.00    -0.017 A 
ATOM     21  C2  non d ame     -32.346  11.708  30.466  0.00  0.00     0.077 A 
ATOM     22  H1  non d ame     -33.606  11.959  32.307  0.00  0.00     0.091 H 
ATOM     23  O1  non d ame     -32.382  10.792  29.544  0.00  0.00    -0.218 OA
ATOM     24  N1  non d ame     -33.322   9.905  29.780  0.00  0.00    -0.123 NA
BRANCH  21  25
ATOM     25  C3  non d ame     -31.391  12.892  30.524  0.00  0.00    -0.029 C 
ATOM     26  H2  non d ame     -31.481  13.386  31.491  0.00  0.00     0.036 H 
ATOM     27  H3  non d ame     -30.367  12.540  30.393  0.00  0.00     0.036 H 
ATOM     28  H4  non d ame     -31.636  13.598  29.731  0.00  0.00     0.036 H 
ENDBRANCH  21  25
ENDBRANCH  16  19
ENDBRANCH  13  15
BRANCH  13  29
ATOM     29  C8  non d ame     -38.915   9.573  31.357  0.00  0.00    -0.049 C 
ATOM     30  H7  non d ame     -39.025  10.487  31.939  0.00  0.00     0.030 H 
ATOM     31  H8  non d ame     -38.943   9.814  30.294  0.00  0.00     0.030 H 
ATOM     32  H9  non d ame     -39.731   8.889  31.596  0.00  0.00     0.030 H 
ENDBRANCH  13  29
ENDBRANCH  10  13
ENDBRANCH   7   9
BRANCH   7  33
ATOM     33  C11 non d ame     -37.882   5.669  28.246  0.00  0.00    -0.033 C 
ATOM     34  H12 non d ame     -37.324   5.511  27.323  0.00  0.00     0.042 H 
BRANCH  33  35
ATOM     35  C12 non d ame     -38.818   4.437  28.444  0.00  0.00    -0.071 C 
ATOM     36  H13 non d ame     -39.721   4.747  28.971  0.00  0.00     0.028 H 
ATOM     37  H14 non d ame     -39.088   4.025  27.472  0.00  0.00     0.028 H 
ATOM     38  H15 non d ame     -38.301   3.678  29.030  0.00  0.00     0.028 H 
ENDBRANCH  33  35
BRANCH  33  39
ATOM     39  C13 non d ame     -38.705   6.988  28.093  0.00  0.00    -0.071 C 
ATOM     40  H16 non d ame     -38.752   7.267  27.040  0.00  0.00     0.028 H 
ATOM     41  H17 non d ame     -39.715   6.833  28.474  0.00  0.00     0.028 H 
ATOM     42  H18 non d ame     -38.224   7.785  28.659  0.00  0.00     0.028 H 
ENDBRANCH  33  39
ENDBRANCH   7  33
ENDBRANCH   4   7
ENDBRANCH   1   3
BRANCH   1  43
ATOM     43  C15 non d ame     -33.012   6.759  26.796  0.00  0.00     0.240 C 
ATOM     44  O5  non d ame     -32.098   6.974  27.524  0.00  0.00    -0.271 OA
ATOM     45  N6  non d ame     -33.380   7.761  25.754  0.00  0.00    -0.355 N 
ATOM     46  H46 non d ame     -34.152   7.587  25.126  0.00  0.00     0.162 HD
BRANCH  45  47
ATOM     47  C20 non d ame     -32.610   9.018  25.643  0.00  0.00     0.013 C 
ATOM     48  H30 non d ame     -31.675   8.888  26.187  0.00  0.00     0.072 H 
BRANCH  47  49
ATOM     49  C21 non d ame     -33.409  10.149  26.249  0.00  0.00    -0.038 C 
ATOM     50  H31 non d ame     -34.437   9.992  25.923  0.00  0.00     0.036 H 
ATOM     51  H32 non d ame     -33.168  10.143  27.313  0.00  0.00     0.036 H 
BRANCH  49  52
ATOM     52  C22 non d ame     -32.987  11.535  25.714  0.00  0.00     0.018 C 
ATOM     53  H33 non d ame     -32.938  11.431  24.631  0.00  0.00     0.048 H 
ATOM     54  H34 non d ame     -33.681  12.247  26.163  0.00  0.00     0.048 H 
BRANCH  52  55
ATOM     55  C23 non d ame     -31.568  11.976  26.168  0.00  0.00     0.259 C 
ATOM     56  O7  non d ame     -31.074  11.508  27.143  0.00  0.00    -0.265 OA
BRANCH  55  57
ATOM     57  O8  non d ame     -30.868  12.958  25.413  0.00  0.00    -0.317 OA
BRANCH  57  58
ATOM     58  C29 non d ame     -31.711  13.959  24.835  0.00  0.00     0.052 C 
ATOM     59  H47 non d ame     -32.657  13.461  24.622  0.00  0.00     0.082 H 
ATOM     60  H48 non d ame     -31.682  14.803  25.524  0.00  0.00     0.082 H 
BRANCH  58  61
ATOM     61  C35 non d ame     -31.075  14.402  23.490  0.00  0.00    -0.034 A 
ATOM     62  C30 non d ame     -31.448  15.610  22.909  0.00  0.00    -0.075 A 
ATOM     63  C31 non d ame     -30.878  16.008  21.700  0.00  0.00    -0.082 A 
ATOM     64  H49 non d ame     -32.188  16.244  23.398  0.00  0.00     0.084 H 
ATOM     65  C32 non d ame     -29.931  15.193  21.073  0.00  0.00    -0.083 A 
ATOM     66  H50 non d ame     -31.171  16.957  21.248  0.00  0.00     0.083 H 
ATOM     67  C33 non d ame     -29.566  13.987  21.656  0.00  0.00    -0.082 A 
ATOM     68  H51 non d ame     -29.480  15.498  20.128  0.00  0.00     0.083 H 
ATOM     69  C34 non d ame     -30.132  13.586  22.864  0.00  0.00    -0.075 A 
ATOM     70  H52 non d ame     -28.829  13.352  21.162  0.00  0.00     0.083 H 
ATOM     71  H53 non d ame     -29.838  12.639  23.316  0.00  0.00     0.084 H 
ENDBRANCH  58  61
ENDBRANCH  57  58
ENDBRANCH  55  57
ENDBRANCH  52  55
ENDBRANCH  49  52
ENDBRANCH  47  49
BRANCH  47  72
ATOM     72  C24 non d ame     -32.329   9.323  24.173  0.00  0.00    -0.039 C 
ATOM     73  H35 non d ame     -33.144   8.854  23.619  0.00  0.00     0.036 H 
ATOM     74  H36 non d ame     -32.186  10.402  24.122  0.00  0.00     0.036 H 
BRANCH  72  75
ATOM     75  C25 non d ame     -30.967   8.641  23.676  0.00  0.00    -0.001 C 
ATOM     76  C26 non d ame     -30.057   9.740  22.859  0.00  0.00    -0.035 C 
ATOM     77  C27 non d ame     -29.696   9.209  21.666  0.00  0.00     0.085 C 
ATOM     78  H38 non d ame     -30.667  10.599  22.582  0.00  0.00     0.036 H 
ATOM     79  H39 non d ame     -29.105   9.891  23.369  0.00  0.00     0.036 H 
ATOM     80  N5  non d ame     -30.548   7.979  21.456  0.00  0.00    -0.049 N 
ATOM     81  H40 non d ame     -29.964   9.959  20.921  0.00  0.00     0.075 H 
ATOM     82  H41 non d ame     -28.657   8.906  21.785  0.00  0.00     0.075 H 
ATOM     83  C28 non d ame     -31.203   7.643  22.892  0.00  0.00     0.193 C 
ATOM     84  H42 non d ame     -31.285   8.248  20.821  0.00  0.00     0.280 HD
ATOM     85  H43 non d ame     -29.913   7.233  21.208  0.00  0.00     0.280 HD
ATOM     86  H44 non d ame     -30.818   6.821  23.497  0.00  0.00     0.129 H 
ATOM     87  H37 non d ame     -30.474   8.080  24.469  0.00  0.00     0.046 H 
BRANCH  83  88
ATOM     88  O6  non d ame     -32.602   7.389  22.748  0.00  0.00    -0.369 OA
ATOM     89  H45 non d ame     -32.826   6.567  23.192  0.00  0.00     0.212 HD
ENDBRANCH  83  88
ENDBRANCH  72  75
ENDBRANCH  47  72
ENDBRANCH  45  47
ENDBRANCH   1  43
BRANCH   1  90
ATOM     90  C16 non d ame     -33.947   4.779  25.559  0.00  0.00    -0.035 C 
ATOM     91  H21 non d ame     -35.018   4.731  25.368  0.00  0.00     0.037 H 
ATOM     92  H22 non d ame     -33.300   5.357  24.899  0.00  0.00     0.037 H 
BRANCH  90  93
ATOM     93  C17 non d ame     -33.425   3.308  25.512  0.00  0.00    -0.059 C 
ATOM     94  H23 non d ame     -32.340   3.339  25.610  0.00  0.00     0.038 H 
BRANCH  93  95
ATOM     95  C18 non d ame     -33.984   2.446  26.688  0.00  0.00    -0.073 C 
ATOM     96  H24 non d ame     -34.426   3.099  27.441  0.00  0.00     0.028 H 
ATOM     97  H25 non d ame     -34.745   1.764  26.309  0.00  0.00     0.028 H 
ATOM     98  H26 non d ame     -33.173   1.872  27.137  0.00  0.00     0.028 H 
ENDBRANCH  93  95
BRANCH  93  99
ATOM     99  C19 non d ame     -33.742   2.658  24.162  0.00  0.00    -0.073 C 
ATOM    100  H27 non d ame     -33.194   3.175  23.373  0.00  0.00     0.028 H 
ATOM    101  H28 non d ame     -33.444   1.610  24.184  0.00  0.00     0.028 H 
ATOM    102  H29 non d ame     -34.812   2.728  23.968  0.00  0.00     0.028 H 
ENDBRANCH  93  99
ENDBRANCH  90  93
ENDBRANCH   1  90
TORSDOF 26
ENDMDL
MODEL 10
REMARK VINA RESULT:      -6.3      2.137      5.537
REMARK  26 active torsions:
REMARK  status: ('A' for Active; 'I' for Inactive)
REMARK    1  A    between atoms: C2_2  and  C3_3 
REMARK    2  A    between atoms: C4_6  and  C5_7 
REMARK       I    between atoms: C5_7  and  N2_9 
REMARK    3  A    between atoms: N2_9  and  C6_10 
REMARK    4  A    between atoms: C6_10  and  C7_11 
REMARK    5  A    between atoms: C6_10  and  C8_13 
REMARK       I    between atoms: C7_11  and  N3_14 
REMARK    6  A    between atoms: N3_14  and  C9_15 
REMARK    7  A    between atoms: C9_15  and  C10_16 
REMARK    8  A    between atoms: C9_15  and  C11_18 
REMARK       I    between atoms: C10_16  and  N4_21 
REMARK    9  A    between atoms: C11_18  and  C12_19 
REMARK   10  A    between atoms: C11_18  and  C13_20 
REMARK   11  A    between atoms: N4_21  and  C14_22 
REMARK   12  A    between atoms: C14_22  and  C15_23 
REMARK   13  A    between atoms: C14_22  and  C16_25 
REMARK       I    between atoms: C15_23  and  N6_40 
REMARK   14  A    between atoms: C16_25  and  C17_26 
REMARK   15  A    between atoms: C17_26  and  C18_27 
REMARK   16  A    between atoms: C17_26  and  C19_28 
REMARK   17  A    between atoms: C20_29  and  C21_30 
REMARK   18  A    between atoms: C20_29  and  C24_33 
REMARK   19  A    between atoms: C20_29  and  N6_40 
REMARK   20  A    between atoms: C21_30  and  C22_31 
REMARK   21  A    between atoms: C22_31  and  C23_32 
REMARK   22  A    between atoms: C23_32  and  O8_43 
REMARK   23  A    between atoms: C24_33  and  C25_34 
REMARK   24  A    between atoms: C28_38  and  O6_39 
REMARK   25  A    between atoms: C29_42  and  O8_43 
REMARK   26  A    between atoms: C29_42  and  C35_49 
ROOT
ATOM      1  C14 non d ame     -36.830  12.332  24.712  0.00  0.00     0.089 C 
ATOM      2  H20 non d ame     -37.577  12.143  25.484  0.00  0.00     0.087 H 
ENDROOT
BRANCH   1   3
ATOM      3  N4  non d ame     -35.834  13.231  25.278  0.00  0.00    -0.346 N 
ATOM      4  C10 non d ame     -36.188  14.131  26.433  0.00  0.00     0.241 C 
ATOM      5  O4  non d ame     -37.283  14.118  26.891  0.00  0.00    -0.271 OA
ATOM      6  H19 non d ame     -34.909  13.229  24.872  0.00  0.00     0.163 HD
BRANCH   4   7
ATOM      7  C9  non d ame     -35.144  15.052  27.008  0.00  0.00     0.092 C 
ATOM      8  H11 non d ame     -35.219  15.044  28.095  0.00  0.00     0.088 H 
BRANCH   7   9
ATOM      9  N3  non d ame     -33.809  14.554  26.661  0.00  0.00    -0.346 N 
ATOM     10  C7  non d ame     -32.742  14.620  27.629  0.00  0.00     0.240 C 
ATOM     11  O3  non d ame     -32.939  15.071  28.691  0.00  0.00    -0.271 OA
ATOM     12  H10 non d ame     -33.624  14.165  25.748  0.00  0.00     0.163 HD
BRANCH  10  13
ATOM     13  C6  non d ame     -31.323  14.092  27.253  0.00  0.00     0.086 C 
ATOM     14  H6  non d ame     -31.313  13.024  27.040  0.00  0.00     0.086 H 
BRANCH  13  15
ATOM     15  N2  non d ame     -30.875  14.762  26.043  0.00  0.00    -0.343 N 
ATOM     16  C5  non d ame     -30.896  14.039  24.769  0.00  0.00     0.273 C 
ATOM     17  O2  non d ame     -31.271  12.919  24.729  0.00  0.00    -0.266 OA
ATOM     18  H5  non d ame     -30.554  15.718  26.087  0.00  0.00     0.163 HD
BRANCH  16  19
ATOM     19  C4  non d ame     -30.426  14.735  23.482  0.00  0.00     0.154 A 
ATOM     20  C1  non d ame     -31.223  15.079  22.345  0.00  0.00    -0.017 A 
ATOM     21  C2  non d ame     -30.325  15.693  21.444  0.00  0.00     0.077 A 
ATOM     22  H1  non d ame     -32.290  14.909  22.196  0.00  0.00     0.091 H 
ATOM     23  O1  non d ame     -29.153  15.698  22.008  0.00  0.00    -0.218 OA
ATOM     24  N1  non d ame     -29.187  15.144  23.198  0.00  0.00    -0.123 NA
BRANCH  21  25
ATOM     25  C3  non d ame     -30.667  16.249  20.068  0.00  0.00    -0.029 C 
ATOM     26  H2  non d ame     -31.640  16.738  20.105  0.00  0.00     0.036 H 
ATOM     27  H3  non d ame     -29.909  16.973  19.770  0.00  0.00     0.036 H 
ATOM     28  H4  non d ame     -30.696  15.435  19.344  0.00  0.00     0.036 H 
ENDBRANCH  21  25
ENDBRANCH  16  19
ENDBRANCH  13  15
BRANCH  13  29
ATOM     29  C8  non d ame     -30.364  14.372  28.382  0.00  0.00    -0.049 C 
ATOM     30  H7  non d ame     -30.111  13.438  28.884  0.00  0.00     0.030 H 
ATOM     31  H8  non d ame     -29.457  14.827  27.986  0.00  0.00     0.030 H 
ATOM     32  H9  non d ame     -30.832  15.052  29.096  0.00  0.00     0.030 H 
ENDBRANCH  13  29
ENDBRANCH  10  13
ENDBRANCH   7   9
BRANCH   7  33
ATOM     33  C11 non d ame     -35.331  16.481  26.418  0.00  0.00    -0.033 C 
ATOM     34  H12 non d ame     -34.339  16.893  26.235  0.00  0.00     0.042 H 
BRANCH  33  35
ATOM     35  C12 non d ame     -36.081  16.436  25.050  0.00  0.00    -0.071 C 
ATOM     36  H13 non d ame     -37.147  16.597  25.215  0.00  0.00     0.028 H 
ATOM     37  H14 non d ame     -35.692  17.217  24.397  0.00  0.00     0.028 H 
ATOM     38  H15 non d ame     -35.930  15.463  24.584  0.00  0.00     0.028 H 
ENDBRANCH  33  35
BRANCH  33  39
ATOM     39  C13 non d ame     -36.062  17.414  27.435  0.00  0.00    -0.071 C 
ATOM     40  H16 non d ame     -37.016  16.969  27.717  0.00  0.00     0.028 H 
ATOM     41  H17 non d ame     -35.443  17.540  28.324  0.00  0.00     0.028 H 
ATOM     42  H18 non d ame     -36.237  18.387  26.976  0.00  0.00     0.028 H 
ENDBRANCH  33  39
ENDBRANCH   7  33
ENDBRANCH   4   7
ENDBRANCH   1   3
BRANCH   1  43
ATOM     43  C15 non d ame     -36.116  11.027  24.254  0.00  0.00     0.240 C 
ATOM     44  O5  non d ame     -36.615  10.342  23.421  0.00  0.00    -0.271 OA
ATOM     45  N6  non d ame     -34.805  10.637  24.847  0.00  0.00    -0.355 N 
ATOM     46  H46 non d ame     -34.369  11.214  25.553  0.00  0.00     0.162 HD
BRANCH  45  47
ATOM     47  C20 non d ame     -34.140   9.394  24.400  0.00  0.00     0.013 C 
ATOM     48  H30 non d ame     -34.400   9.233  23.354  0.00  0.00     0.072 H 
BRANCH  47  49
ATOM     49  C21 non d ame     -34.629   8.235  25.239  0.00  0.00    -0.038 C 
ATOM     50  H31 non d ame     -35.257   8.677  26.013  0.00  0.00     0.036 H 
ATOM     51  H32 non d ame     -35.054   7.520  24.534  0.00  0.00     0.036 H 
BRANCH  49  52
ATOM     52  C22 non d ame     -33.485   7.500  25.971  0.00  0.00     0.018 C 
ATOM     53  H33 non d ame     -33.079   6.794  25.248  0.00  0.00     0.048 H 
ATOM     54  H34 non d ame     -32.850   8.283  26.385  0.00  0.00     0.048 H 
BRANCH  52  55
ATOM     55  C23 non d ame     -33.961   6.649  27.181  0.00  0.00     0.259 C 
ATOM     56  O7  non d ame     -34.473   5.590  27.009  0.00  0.00    -0.265 OA
BRANCH  55  57
ATOM     57  O8  non d ame     -33.790   7.156  28.499  0.00  0.00    -0.317 OA
BRANCH  57  58
ATOM     58  C29 non d ame     -34.722   8.182  28.854  0.00  0.00     0.052 C 
ATOM     59  H47 non d ame     -35.246   8.435  27.933  0.00  0.00     0.082 H 
ATOM     60  H48 non d ame     -35.276   7.795  29.708  0.00  0.00     0.082 H 
BRANCH  58  61
ATOM     61  C35 non d ame     -33.913   9.423  29.316  0.00  0.00    -0.034 A 
ATOM     62  C30 non d ame     -33.030  10.045  28.438  0.00  0.00    -0.075 A 
ATOM     63  C31 non d ame     -32.303  11.160  28.854  0.00  0.00    -0.082 A 
ATOM     64  H49 non d ame     -32.907   9.660  27.426  0.00  0.00     0.084 H 
ATOM     65  C32 non d ame     -32.460  11.652  30.152  0.00  0.00    -0.083 A 
ATOM     66  H50 non d ame     -31.613  11.647  28.162  0.00  0.00     0.083 H 
ATOM     67  C33 non d ame     -33.339  11.025  31.025  0.00  0.00    -0.082 A 
ATOM     68  H51 non d ame     -31.896  12.524  30.484  0.00  0.00     0.083 H 
ATOM     69  C34 non d ame     -34.069   9.912  30.614  0.00  0.00    -0.075 A 
ATOM     70  H52 non d ame     -33.457  11.410  32.039  0.00  0.00     0.083 H 
ATOM     71  H53 non d ame     -34.758   9.426  31.305  0.00  0.00     0.084 H 
ENDBRANCH  58  61
ENDBRANCH  57  58
ENDBRANCH  55  57
ENDBRANCH  52  55
ENDBRANCH  49  52
ENDBRANCH  47  49
BRANCH  47  72
ATOM     72  C24 non d ame     -32.627   9.534  24.555  0.00  0.00    -0.039 C 
ATOM     73  H35 non d ame     -32.472  10.514  25.009  0.00  0.00     0.036 H 
ATOM     74  H36 non d ame     -32.305   8.634  25.079  0.00  0.00     0.036 H 
BRANCH  72  75
ATOM     75  C25 non d ame     -31.885   9.548  23.136  0.00  0.00    -0.001 C 
ATOM     76  C26 non d ame     -31.913   8.043  22.475  0.00  0.00    -0.035 C 
ATOM     77  C27 non d ame     -30.653   7.701  22.112  0.00  0.00     0.085 C 
ATOM     78  H38 non d ame     -32.168   7.305  23.235  0.00  0.00     0.036 H 
ATOM     79  H39 non d ame     -32.455   8.059  21.529  0.00  0.00     0.036 H 
ATOM     80  N5  non d ame     -29.722   8.697  22.762  0.00  0.00    -0.049 N 
ATOM     81  H40 non d ame     -30.482   6.716  22.548  0.00  0.00     0.075 H 
ATOM     82  H41 non d ame     -30.616   7.832  21.032  0.00  0.00     0.075 H 
ATOM     83  C28 non d ame     -30.654   9.919  23.257  0.00  0.00     0.193 C 
ATOM     84  H42 non d ame     -29.335   8.238  23.574  0.00  0.00     0.280 HD
ATOM     85  H43 non d ame     -29.110   9.033  22.032  0.00  0.00     0.280 HD
ATOM     86  H44 non d ame     -30.675  10.857  22.702  0.00  0.00     0.129 H 
ATOM     87  H37 non d ame     -32.215  10.373  22.505  0.00  0.00     0.046 H 
BRANCH  83  88
ATOM     88  O6  non d ame     -30.327  10.275  24.601  0.00  0.00    -0.369 OA
ATOM     89  H45 non d ame     -31.133  10.472  25.085  0.00  0.00     0.212 HD
ENDBRANCH  83  88
ENDBRANCH  72  75
ENDBRANCH  47  72
ENDBRANCH  45  47
ENDBRANCH   1  43
BRANCH   1  90
ATOM     90  C16 non d ame     -37.483  13.004  23.516  0.00  0.00    -0.035 C 
ATOM     91  H21 non d ame     -36.993  13.972  23.425  0.00  0.00     0.037 H 
ATOM     92  H22 non d ame     -37.414  12.279  22.705  0.00  0.00     0.037 H 
BRANCH  90  93
ATOM     93  C17 non d ame     -39.004  13.298  23.717  0.00  0.00    -0.059 C 
ATOM     94  H23 non d ame     -39.185  13.383  24.789  0.00  0.00     0.038 H 
BRANCH  93  95
ATOM     95  C18 non d ame     -39.438  14.644  23.054  0.00  0.00    -0.073 C 
ATOM     96  H24 non d ame     -39.496  15.423  23.815  0.00  0.00     0.028 H 
ATOM     97  H25 non d ame     -38.705  14.930  22.299  0.00  0.00     0.028 H 
ATOM     98  H26 non d ame     -40.414  14.521  22.585  0.00  0.00     0.028 H 
ENDBRANCH  93  95
BRANCH  93  99
ATOM     99  C19 non d ame     -39.859  12.137  23.201  0.00  0.00    -0.073 C 
ATOM    100  H27 non d ame     -40.853  12.505  22.943  0.00  0.00     0.028 H 
ATOM    101  H28 non d ame     -39.391  11.706  22.315  0.00  0.00     0.028 H 
ATOM    102  H29 non d ame     -39.943  11.375  23.975  0.00  0.00     0.028 H 
ENDBRANCH  93  99
ENDBRANCH  90  93
ENDBRANCH   1  90
TORSDOF 26
ENDMDL
MODEL 11
REMARK VINA RESULT:      -6.2      2.667      5.359
REMARK  26 active torsions:
REMARK  status: ('A' for Active; 'I' for Inactive)
REMARK    1  A    between atoms: C2_2  and  C3_3 
REMARK    2  A    between atoms: C4_6  and  C5_7 
REMARK       I    between atoms: C5_7  and  N2_9 
REMARK    3  A    between atoms: N2_9  and  C6_10 
REMARK    4  A    between atoms: C6_10  and  C7_11 
REMARK    5  A    between atoms: C6_10  and  C8_13 
REMARK       I    between atoms: C7_11  and  N3_14 
REMARK    6  A    between atoms: N3_14  and  C9_15 
REMARK    7  A    between atoms: C9_15  and  C10_16 
REMARK    8  A    between atoms: C9_15  and  C11_18 
REMARK       I    between atoms: C10_16  and  N4_21 
REMARK    9  A    between atoms: C11_18  and  C12_19 
REMARK   10  A    between atoms: C11_18  and  C13_20 
REMARK   11  A    between atoms: N4_21  and  C14_22 
REMARK   12  A    between atoms: C14_22  and  C15_23 
REMARK   13  A    between atoms: C14_22  and  C16_25 
REMARK       I    between atoms: C15_23  and  N6_40 
REMARK   14  A    between atoms: C16_25  and  C17_26 
REMARK   15  A    between atoms: C17_26  and  C18_27 
REMARK   16  A    between atoms: C17_26  and  C19_28 
REMARK   17  A    between atoms: C20_29  and  C21_30 
REMARK   18  A    between atoms: C20_29  and  C24_33 
REMARK   19  A    between atoms: C20_29  and  N6_40 
REMARK   20  A    between atoms: C21_30  and  C22_31 
REMARK   21  A    between atoms: C22_31  and  C23_32 
REMARK   22  A    between atoms: C23_32  and  O8_43 
REMARK   23  A    between atoms: C24_33  and  C25_34 
REMARK   24  A    between atoms: C28_38  and  O6_39 
REMARK   25  A    between atoms: C29_42  and  O8_43 
REMARK   26  A    between atoms: C29_42  and  C35_49 
ROOT
ATOM      1  C14 non d ame     -35.736  11.114  26.930  0.00  0.00     0.089 C 
ATOM      2  H20 non d ame     -35.923  11.098  25.856  0.00  0.00     0.087 H 
ENDROOT
BRANCH   1   3
ATOM      3  N4  non d ame     -35.811  12.500  27.368  0.00  0.00    -0.346 N 
ATOM      4  C10 non d ame     -35.661  13.622  26.373  0.00  0.00     0.241 C 
ATOM      5  O4  non d ame     -35.479  13.386  25.224  0.00  0.00    -0.271 OA
ATOM      6  H19 non d ame     -35.963  12.680  28.350  0.00  0.00     0.163 HD
BRANCH   4   7
ATOM      7  C9  non d ame     -35.745  15.051  26.842  0.00  0.00     0.092 C 
ATOM      8  H11 non d ame     -35.664  15.077  27.928  0.00  0.00     0.088 H 
BRANCH   7   9
ATOM      9  N3  non d ame     -34.612  15.810  26.305  0.00  0.00    -0.346 N 
ATOM     10  C7  non d ame     -33.797  16.608  27.186  0.00  0.00     0.240 C 
ATOM     11  O3  non d ame     -34.038  16.651  28.331  0.00  0.00    -0.271 OA
ATOM     12  H10 non d ame     -34.393  15.783  25.319  0.00  0.00     0.163 HD
BRANCH  10  13
ATOM     13  C6  non d ame     -32.594  17.416  26.608  0.00  0.00     0.086 C 
ATOM     14  H6  non d ame     -31.676  17.273  27.179  0.00  0.00     0.086 H 
BRANCH  13  15
ATOM     15  N2  non d ame     -32.320  16.954  25.258  0.00  0.00    -0.343 N 
ATOM     16  C5  non d ame     -31.327  15.900  25.043  0.00  0.00     0.273 C 
ATOM     17  O2  non d ame     -30.751  15.431  25.963  0.00  0.00    -0.266 OA
ATOM     18  H5  non d ame     -32.815  17.362  24.477  0.00  0.00     0.163 HD
BRANCH  16  19
ATOM     19  C4  non d ame     -31.029  15.401  23.620  0.00  0.00     0.154 A 
ATOM     20  C1  non d ame     -31.129  16.148  22.404  0.00  0.00    -0.017 A 
ATOM     21  C2  non d ame     -30.750  15.241  21.389  0.00  0.00     0.077 A 
ATOM     22  H1  non d ame     -31.430  17.188  22.277  0.00  0.00     0.091 H 
ATOM     23  O1  non d ame     -30.466  14.111  21.965  0.00  0.00    -0.218 OA
ATOM     24  N1  non d ame     -30.621  14.179  23.268  0.00  0.00    -0.123 NA
BRANCH  21  25
ATOM     25  C3  non d ame     -30.683  15.535  19.897  0.00  0.00    -0.029 C 
ATOM     26  H2  non d ame     -29.853  14.986  19.454  0.00  0.00     0.036 H 
ATOM     27  H3  non d ame     -31.615  15.224  19.423  0.00  0.00     0.036 H 
ATOM     28  H4  non d ame     -30.536  16.603  19.741  0.00  0.00     0.036 H 
ENDBRANCH  21  25
ENDBRANCH  16  19
ENDBRANCH  13  15
BRANCH  13  29
ATOM     29  C8  non d ame     -32.932  18.885  26.594  0.00  0.00    -0.049 C 
ATOM     30  H7  non d ame     -32.764  19.307  27.584  0.00  0.00     0.030 H 
ATOM     31  H8  non d ame     -32.300  19.397  25.869  0.00  0.00     0.030 H 
ATOM     32  H9  non d ame     -33.980  19.014  26.317  0.00  0.00     0.030 H 
ENDBRANCH  13  29
ENDBRANCH  10  13
ENDBRANCH   7   9
BRANCH   7  33
ATOM     33  C11 non d ame     -37.076  15.684  26.338  0.00  0.00    -0.033 C 
ATOM     34  H12 non d ame     -37.806  14.881  26.242  0.00  0.00     0.042 H 
BRANCH  33  35
ATOM     35  C12 non d ame     -37.641  16.712  27.368  0.00  0.00    -0.071 C 
ATOM     36  H13 non d ame     -36.818  17.155  27.928  0.00  0.00     0.028 H 
ATOM     37  H14 non d ame     -38.184  17.495  26.840  0.00  0.00     0.028 H 
ATOM     38  H15 non d ame     -38.315  16.203  28.057  0.00  0.00     0.028 H 
ENDBRANCH  33  35
BRANCH  33  39
ATOM     39  C13 non d ame     -36.887  16.337  24.931  0.00  0.00    -0.071 C 
ATOM     40  H16 non d ame     -36.616  17.386  25.051  0.00  0.00     0.028 H 
ATOM     41  H17 non d ame     -36.095  15.815  24.392  0.00  0.00     0.028 H 
ATOM     42  H18 non d ame     -37.817  16.264  24.369  0.00  0.00     0.028 H 
ENDBRANCH  33  39
ENDBRANCH   7  33
ENDBRANCH   4   7
ENDBRANCH   1   3
BRANCH   1  43
ATOM     43  C15 non d ame     -36.791  10.287  27.721  0.00  0.00     0.240 C 
ATOM     44  O5  non d ame     -37.926  10.284  27.368  0.00  0.00    -0.271 OA
ATOM     45  N6  non d ame     -36.384   9.492  28.915  0.00  0.00    -0.355 N 
ATOM     46  H46 non d ame     -35.422   9.483  29.222  0.00  0.00     0.162 HD
BRANCH  45  47
ATOM     47  C20 non d ame     -37.399   8.711  29.655  0.00  0.00     0.013 C 
ATOM     48  H30 non d ame     -38.381   8.997  29.278  0.00  0.00     0.072 H 
BRANCH  47  49
ATOM     49  C21 non d ame     -37.297   9.029  31.129  0.00  0.00    -0.038 C 
ATOM     50  H31 non d ame     -38.221   9.550  31.383  0.00  0.00     0.036 H 
ATOM     51  H32 non d ame     -37.051   8.086  31.618  0.00  0.00     0.036 H 
BRANCH  49  52
ATOM     52  C22 non d ame     -36.143  10.003  31.454  0.00  0.00     0.018 C 
ATOM     53  H33 non d ame     -36.075  10.674  30.599  0.00  0.00     0.048 H 
ATOM     54  H34 non d ame     -36.364  10.402  32.444  0.00  0.00     0.048 H 
BRANCH  52  55
ATOM     55  C23 non d ame     -34.756   9.313  31.570  0.00  0.00     0.259 C 
ATOM     56  O7  non d ame     -34.664   8.216  32.018  0.00  0.00    -0.265 OA
BRANCH  55  57
ATOM     57  O8  non d ame     -33.592  10.013  31.147  0.00  0.00    -0.317 OA
BRANCH  57  58
ATOM     58  C29 non d ame     -33.634  11.421  31.401  0.00  0.00     0.052 C 
ATOM     59  H47 non d ame     -34.625  11.747  31.088  0.00  0.00     0.082 H 
ATOM     60  H48 non d ame     -33.320  11.543  32.436  0.00  0.00     0.082 H 
BRANCH  58  61
ATOM     61  C35 non d ame     -32.581  12.103  30.486  0.00  0.00    -0.034 A 
ATOM     62  C30 non d ame     -31.234  11.779  30.614  0.00  0.00    -0.075 A 
ATOM     63  C31 non d ame     -30.288  12.393  29.793  0.00  0.00    -0.082 A 
ATOM     64  H49 non d ame     -30.918  11.047  31.357  0.00  0.00     0.084 H 
ATOM     65  C32 non d ame     -30.694  13.333  28.843  0.00  0.00    -0.083 A 
ATOM     66  H50 non d ame     -29.233  12.136  29.895  0.00  0.00     0.083 H 
ATOM     67  C33 non d ame     -32.039  13.655  28.722  0.00  0.00    -0.082 A 
ATOM     68  H51 non d ame     -29.960  13.817  28.196  0.00  0.00     0.083 H 
ATOM     69  C34 non d ame     -32.987  13.044  29.539  0.00  0.00    -0.075 A 
ATOM     70  H52 non d ame     -32.352  14.392  27.981  0.00  0.00     0.083 H 
ATOM     71  H53 non d ame     -34.042  13.301  29.436  0.00  0.00     0.084 H 
ENDBRANCH  58  61
ENDBRANCH  57  58
ENDBRANCH  55  57
ENDBRANCH  52  55
ENDBRANCH  49  52
ENDBRANCH  47  49
BRANCH  47  72
ATOM     72  C24 non d ame     -37.161   7.218  29.437  0.00  0.00    -0.039 C 
ATOM     73  H35 non d ame     -36.253   7.154  28.836  0.00  0.00     0.036 H 
ATOM     74  H36 non d ame     -37.189   6.772  30.431  0.00  0.00     0.036 H 
BRANCH  72  75
ATOM     75  C25 non d ame     -38.340   6.548  28.585  0.00  0.00    -0.001 C 
ATOM     76  C26 non d ame     -38.768   5.110  29.256  0.00  0.00    -0.035 C 
ATOM     77  C27 non d ame     -38.757   4.157  28.293  0.00  0.00     0.085 C 
ATOM     78  H38 non d ame     -37.998   4.777  29.952  0.00  0.00     0.036 H 
ATOM     79  H39 non d ame     -39.811   5.139  29.573  0.00  0.00     0.036 H 
ATOM     80  N5  non d ame     -38.045   4.747  27.099  0.00  0.00    -0.049 N 
ATOM     81  H40 non d ame     -38.157   3.341  28.698  0.00  0.00     0.075 H 
ATOM     82  H41 non d ame     -39.802   3.990  28.037  0.00  0.00     0.075 H 
ATOM     83  C28 non d ame     -37.973   6.337  27.365  0.00  0.00     0.193 C 
ATOM     84  H42 non d ame     -37.106   4.376  27.114  0.00  0.00     0.280 HD
ATOM     85  H43 non d ame     -38.641   4.580  26.301  0.00  0.00     0.280 HD
ATOM     86  H44 non d ame     -38.643   7.017  26.837  0.00  0.00     0.129 H 
ATOM     87  H37 non d ame     -39.143   7.252  28.367  0.00  0.00     0.046 H 
BRANCH  83  88
ATOM     88  O6  non d ame     -36.654   6.822  27.107  0.00  0.00    -0.369 OA
ATOM     89  H45 non d ame     -36.403   6.602  26.207  0.00  0.00     0.212 HD
ENDBRANCH  83  88
ENDBRANCH  72  75
ENDBRANCH  47  72
ENDBRANCH  45  47
ENDBRANCH   1  43
BRANCH   1  90
ATOM     90  C16 non d ame     -34.344  10.575  27.218  0.00  0.00    -0.035 C 
ATOM     91  H21 non d ame     -33.991  11.136  28.082  0.00  0.00     0.037 H 
ATOM     92  H22 non d ame     -34.461   9.493  27.281  0.00  0.00     0.037 H 
BRANCH  90  93
ATOM     93  C17 non d ame     -33.319  10.844  26.071  0.00  0.00    -0.059 C 
ATOM     94  H23 non d ame     -33.431  11.884  25.765  0.00  0.00     0.038 H 
BRANCH  93  95
ATOM     95  C18 non d ame     -31.843  10.642  26.539  0.00  0.00    -0.073 C 
ATOM     96  H24 non d ame     -31.513   9.636  26.279  0.00  0.00     0.028 H 
ATOM     97  H25 non d ame     -31.202  11.372  26.045  0.00  0.00     0.028 H 
ATOM     98  H26 non d ame     -31.783  10.776  27.619  0.00  0.00     0.028 H 
ENDBRANCH  93  95
BRANCH  93  99
ATOM     99  C19 non d ame     -33.626   9.974  24.848  0.00  0.00    -0.073 C 
ATOM    100  H27 non d ame     -33.138   9.005  24.960  0.00  0.00     0.028 H 
ATOM    101  H28 non d ame     -34.704   9.830  24.765  0.00  0.00     0.028 H 
ATOM    102  H29 non d ame     -33.255  10.467  23.950  0.00  0.00     0.028 H 
ENDBRANCH  93  99
ENDBRANCH  90  93
ENDBRANCH   1  90
TORSDOF 26
ENDMDL
MODEL 12
REMARK VINA RESULT:      -6.2      2.555      5.558
REMARK  26 active torsions:
REMARK  status: ('A' for Active; 'I' for Inactive)
REMARK    1  A    between atoms: C2_2  and  C3_3 
REMARK    2  A    between atoms: C4_6  and  C5_7 
REMARK       I    between atoms: C5_7  and  N2_9 
REMARK    3  A    between atoms: N2_9  and  C6_10 
REMARK    4  A    between atoms: C6_10  and  C7_11 
REMARK    5  A    between atoms: C6_10  and  C8_13 
REMARK       I    between atoms: C7_11  and  N3_14 
REMARK    6  A    between atoms: N3_14  and  C9_15 
REMARK    7  A    between atoms: C9_15  and  C10_16 
REMARK    8  A    between atoms: C9_15  and  C11_18 
REMARK       I    between atoms: C10_16  and  N4_21 
REMARK    9  A    between atoms: C11_18  and  C12_19 
REMARK   10  A    between atoms: C11_18  and  C13_20 
REMARK   11  A    between atoms: N4_21  and  C14_22 
REMARK   12  A    between atoms: C14_22  and  C15_23 
REMARK   13  A    between atoms: C14_22  and  C16_25 
REMARK       I    between atoms: C15_23  and  N6_40 
REMARK   14  A    between atoms: C16_25  and  C17_26 
REMARK   15  A    between atoms: C17_26  and  C18_27 
REMARK   16  A    between atoms: C17_26  and  C19_28 
REMARK   17  A    between atoms: C20_29  and  C21_30 
REMARK   18  A    between atoms: C20_29  and  C24_33 
REMARK   19  A    between atoms: C20_29  and  N6_40 
REMARK   20  A    between atoms: C21_30  and  C22_31 
REMARK   21  A    between atoms: C22_31  and  C23_32 
REMARK   22  A    between atoms: C23_32  and  O8_43 
REMARK   23  A    between atoms: C24_33  and  C25_34 
REMARK   24  A    between atoms: C28_38  and  O6_39 
REMARK   25  A    between atoms: C29_42  and  O8_43 
REMARK   26  A    between atoms: C29_42  and  C35_49 
ROOT
ATOM      1  C14 non d ame     -36.754  12.006  24.716  0.00  0.00     0.089 C 
ATOM      2  H20 non d ame     -37.486  11.818  25.502  0.00  0.00     0.087 H 
ENDROOT
BRANCH   1   3
ATOM      3  N4  non d ame     -35.759  12.923  25.253  0.00  0.00    -0.346 N 
ATOM      4  C10 non d ame     -36.110  13.843  26.394  0.00  0.00     0.241 C 
ATOM      5  O4  non d ame     -37.200  13.830  26.864  0.00  0.00    -0.271 OA
ATOM      6  H19 non d ame     -34.839  12.921  24.838  0.00  0.00     0.163 HD
BRANCH   4   7
ATOM      7  C9  non d ame     -35.067  14.783  26.941  0.00  0.00     0.092 C 
ATOM      8  H11 non d ame     -35.136  14.802  28.028  0.00  0.00     0.088 H 
BRANCH   7   9
ATOM      9  N3  non d ame     -33.731  14.283  26.601  0.00  0.00    -0.346 N 
ATOM     10  C7  non d ame     -32.678  14.315  27.585  0.00  0.00     0.240 C 
ATOM     11  O3  non d ame     -32.887  14.740  28.655  0.00  0.00    -0.271 OA
ATOM     12  H10 non d ame     -33.536  13.915  25.681  0.00  0.00     0.163 HD
BRANCH  10  13
ATOM     13  C6  non d ame     -31.258  13.784  27.216  0.00  0.00     0.086 C 
ATOM     14  H6  non d ame     -31.254  12.721  26.979  0.00  0.00     0.086 H 
BRANCH  13  15
ATOM     15  N2  non d ame     -30.789  14.477  26.028  0.00  0.00    -0.343 N 
ATOM     16  C5  non d ame     -30.975  13.862  24.713  0.00  0.00     0.273 C 
ATOM     17  O2  non d ame     -31.500  12.807  24.621  0.00  0.00    -0.266 OA
ATOM     18  H5  non d ame     -30.338  15.377  26.116  0.00  0.00     0.163 HD
BRANCH  16  19
ATOM     19  C4  non d ame     -30.484  14.585  23.448  0.00  0.00     0.154 A 
ATOM     20  C1  non d ame     -31.279  15.041  22.350  0.00  0.00    -0.017 A 
ATOM     21  C2  non d ame     -30.359  15.632  21.456  0.00  0.00     0.077 A 
ATOM     22  H1  non d ame     -32.359  14.957  22.221  0.00  0.00     0.091 H 
ATOM     23  O1  non d ame     -29.177  15.524  21.988  0.00  0.00    -0.218 OA
ATOM     24  N1  non d ame     -29.225  14.915  23.152  0.00  0.00    -0.123 NA
BRANCH  21  25
ATOM     25  C3  non d ame     -30.689  16.278  20.118  0.00  0.00    -0.029 C 
ATOM     26  H2  non d ame     -29.901  16.053  19.400  0.00  0.00     0.036 H 
ATOM     27  H3  non d ame     -31.637  15.886  19.748  0.00  0.00     0.036 H 
ATOM     28  H4  non d ame     -30.768  17.358  20.244  0.00  0.00     0.036 H 
ENDBRANCH  21  25
ENDBRANCH  16  19
ENDBRANCH  13  15
BRANCH  13  29
ATOM     29  C8  non d ame     -30.313  14.030  28.365  0.00  0.00    -0.049 C 
ATOM     30  H7  non d ame     -30.074  13.083  28.848  0.00  0.00     0.030 H 
ATOM     31  H8  non d ame     -29.397  14.487  27.991  0.00  0.00     0.030 H 
ATOM     32  H9  non d ame     -30.785  14.697  29.087  0.00  0.00     0.030 H 
ENDBRANCH  13  29
ENDBRANCH  10  13
ENDBRANCH   7   9
BRANCH   7  33
ATOM     33  C11 non d ame     -35.263  16.195  26.315  0.00  0.00    -0.033 C 
ATOM     34  H12 non d ame     -34.285  16.552  25.995  0.00  0.00     0.042 H 
BRANCH  33  35
ATOM     35  C12 non d ame     -36.178  16.134  25.052  0.00  0.00    -0.071 C 
ATOM     36  H13 non d ame     -36.408  15.094  24.821  0.00  0.00     0.028 H 
ATOM     37  H14 non d ame     -37.102  16.677  25.246  0.00  0.00     0.028 H 
ATOM     38  H15 non d ame     -35.660  16.587  24.207  0.00  0.00     0.028 H 
ENDBRANCH  33  35
BRANCH  33  39
ATOM     39  C13 non d ame     -35.822  17.202  27.371  0.00  0.00    -0.071 C 
ATOM     40  H16 non d ame     -36.753  16.815  27.786  0.00  0.00     0.028 H 
ATOM     41  H17 non d ame     -35.093  17.332  28.172  0.00  0.00     0.028 H 
ATOM     42  H18 non d ame     -36.010  18.163  26.893  0.00  0.00     0.028 H 
ENDBRANCH  33  39
ENDBRANCH   7  33
ENDBRANCH   4   7
ENDBRANCH   1   3
BRANCH   1  43
ATOM     43  C15 non d ame     -36.033  10.704  24.263  0.00  0.00     0.240 C 
ATOM     44  O5  non d ame     -36.597   9.931  23.558  0.00  0.00    -0.271 OA
ATOM     45  N6  non d ame     -34.635  10.426  24.699  0.00  0.00    -0.355 N 
ATOM     46  H46 non d ame     -34.143  11.078  25.293  0.00  0.00     0.162 HD
BRANCH  45  47
ATOM     47  C20 non d ame     -33.963   9.184  24.258  0.00  0.00     0.013 C 
ATOM     48  H30 non d ame     -34.483   8.819  23.373  0.00  0.00     0.072 H 
BRANCH  47  49
ATOM     49  C21 non d ame     -34.038   8.155  25.364  0.00  0.00    -0.038 C 
ATOM     50  H31 non d ame     -34.633   8.615  26.153  0.00  0.00     0.036 H 
ATOM     51  H32 non d ame     -34.381   7.236  24.888  0.00  0.00     0.036 H 
BRANCH  49  52
ATOM     52  C22 non d ame     -32.659   7.839  25.982  0.00  0.00     0.018 C 
ATOM     53  H33 non d ame     -31.956   8.516  25.499  0.00  0.00     0.048 H 
ATOM     54  H34 non d ame     -32.804   7.882  27.062  0.00  0.00     0.048 H 
BRANCH  52  55
ATOM     55  C23 non d ame     -32.151   6.403  25.676  0.00  0.00     0.259 C 
ATOM     56  O7  non d ame     -31.694   6.140  24.610  0.00  0.00    -0.265 OA
BRANCH  55  57
ATOM     57  O8  non d ame     -32.250   5.399  26.679  0.00  0.00    -0.317 OA
BRANCH  57  58
ATOM     58  C29 non d ame     -33.327   4.479  26.479  0.00  0.00     0.052 C 
ATOM     59  H47 non d ame     -33.703   4.680  25.476  0.00  0.00     0.082 H 
ATOM     60  H48 non d ame     -32.926   3.497  26.725  0.00  0.00     0.082 H 
BRANCH  58  61
ATOM     61  C35 non d ame     -34.445   4.822  27.500  0.00  0.00    -0.034 A 
ATOM     62  C30 non d ame     -35.778   4.593  27.176  0.00  0.00    -0.075 A 
ATOM     63  C31 non d ame     -36.782   4.902  28.093  0.00  0.00    -0.082 A 
ATOM     64  H49 non d ame     -36.037   4.174  26.204  0.00  0.00     0.084 H 
ATOM     65  C32 non d ame     -36.448   5.442  29.338  0.00  0.00    -0.083 A 
ATOM     66  H50 non d ame     -37.827   4.719  27.837  0.00  0.00     0.083 H 
ATOM     67  C33 non d ame     -35.117   5.671  29.655  0.00  0.00    -0.082 A 
ATOM     68  H51 non d ame     -37.228   5.684  30.061  0.00  0.00     0.083 H 
ATOM     69  C34 non d ame     -34.110   5.363  28.743  0.00  0.00    -0.075 A 
ATOM     70  H52 non d ame     -34.860   6.095  30.627  0.00  0.00     0.083 H 
ATOM     71  H53 non d ame     -33.066   5.545  29.000  0.00  0.00     0.084 H 
ENDBRANCH  58  61
ENDBRANCH  57  58
ENDBRANCH  55  57
ENDBRANCH  52  55
ENDBRANCH  49  52
ENDBRANCH  47  49
BRANCH  47  72
ATOM     72  C24 non d ame     -32.500   9.476  23.931  0.00  0.00    -0.039 C 
ATOM     73  H35 non d ame     -32.383  10.552  24.066  0.00  0.00     0.036 H 
ATOM     74  H36 non d ame     -31.922   8.784  24.543  0.00  0.00     0.036 H 
BRANCH  72  75
ATOM     75  C25 non d ame     -32.158   9.152  22.400  0.00  0.00    -0.001 C 
ATOM     76  C26 non d ame     -33.216   8.038  21.815  0.00  0.00    -0.035 C 
ATOM     77  C27 non d ame     -32.516   7.030  21.240  0.00  0.00     0.085 C 
ATOM     78  H38 non d ame     -33.738   7.548  22.637  0.00  0.00     0.036 H 
ATOM     79  H39 non d ame     -33.783   8.459  20.984  0.00  0.00     0.036 H 
ATOM     80  N5  non d ame     -31.077   7.194  21.669  0.00  0.00    -0.049 N 
ATOM     81  H40 non d ame     -32.915   6.114  21.675  0.00  0.00     0.075 H 
ATOM     82  H41 non d ame     -32.588   7.200  20.167  0.00  0.00     0.075 H 
ATOM     83  C28 non d ame     -30.961   8.684  22.278  0.00  0.00     0.193 C 
ATOM     84  H42 non d ame     -30.923   6.529  22.413  0.00  0.00     0.280 HD
ATOM     85  H43 non d ame     -30.522   7.146  20.826  0.00  0.00     0.280 HD
ATOM     86  H44 non d ame     -30.495   9.483  21.701  0.00  0.00     0.129 H 
ATOM     87  H37 non d ame     -32.013  10.056  21.809  0.00  0.00     0.046 H 
BRANCH  83  88
ATOM     88  O6  non d ame     -30.264   8.654  23.524  0.00  0.00    -0.369 OA
ATOM     89  H45 non d ame     -30.099   9.553  23.820  0.00  0.00     0.212 HD
ENDBRANCH  83  88
ENDBRANCH  72  75
ENDBRANCH  47  72
ENDBRANCH  45  47
ENDBRANCH   1  43
BRANCH   1  90
ATOM     90  C16 non d ame     -37.435  12.655  23.522  0.00  0.00    -0.035 C 
ATOM     91  H21 non d ame     -37.124  13.698  23.544  0.00  0.00     0.037 H 
ATOM     92  H22 non d ame     -37.180  12.027  22.668  0.00  0.00     0.037 H 
BRANCH  90  93
ATOM     93  C17 non d ame     -38.994  12.658  23.617  0.00  0.00    -0.059 C 
ATOM     94  H23 non d ame     -39.322  13.698  23.629  0.00  0.00     0.038 H 
BRANCH  93  95
ATOM     95  C18 non d ame     -39.662  11.963  22.388  0.00  0.00    -0.073 C 
ATOM     96  H24 non d ame     -40.521  12.548  22.061  0.00  0.00     0.028 H 
ATOM     97  H25 non d ame     -38.940  11.893  21.574  0.00  0.00     0.028 H 
ATOM     98  H26 non d ame     -39.990  10.963  22.670  0.00  0.00     0.028 H 
ENDBRANCH  93  95
BRANCH  93  99
ATOM     99  C19 non d ame     -39.464  12.018  24.926  0.00  0.00    -0.073 C 
ATOM    100  H27 non d ame     -40.548  11.896  24.903  0.00  0.00     0.028 H 
ATOM    101  H28 non d ame     -38.993  11.042  25.044  0.00  0.00     0.028 H 
ATOM    102  H29 non d ame     -39.188  12.658  25.764  0.00  0.00     0.028 H 
ENDBRANCH  93  99
ENDBRANCH  90  93
ENDBRANCH   1  90
TORSDOF 26
ENDMDL
MODEL 13
REMARK VINA RESULT:      -6.2      2.694      8.868
REMARK  26 active torsions:
REMARK  status: ('A' for Active; 'I' for Inactive)
REMARK    1  A    between atoms: C2_2  and  C3_3 
REMARK    2  A    between atoms: C4_6  and  C5_7 
REMARK       I    between atoms: C5_7  and  N2_9 
REMARK    3  A    between atoms: N2_9  and  C6_10 
REMARK    4  A    between atoms: C6_10  and  C7_11 
REMARK    5  A    between atoms: C6_10  and  C8_13 
REMARK       I    between atoms: C7_11  and  N3_14 
REMARK    6  A    between atoms: N3_14  and  C9_15 
REMARK    7  A    between atoms: C9_15  and  C10_16 
REMARK    8  A    between atoms: C9_15  and  C11_18 
REMARK       I    between atoms: C10_16  and  N4_21 
REMARK    9  A    between atoms: C11_18  and  C12_19 
REMARK   10  A    between atoms: C11_18  and  C13_20 
REMARK   11  A    between atoms: N4_21  and  C14_22 
REMARK   12  A    between atoms: C14_22  and  C15_23 
REMARK   13  A    between atoms: C14_22  and  C16_25 
REMARK       I    between atoms: C15_23  and  N6_40 
REMARK   14  A    between atoms: C16_25  and  C17_26 
REMARK   15  A    between atoms: C17_26  and  C18_27 
REMARK   16  A    between atoms: C17_26  and  C19_28 
REMARK   17  A    between atoms: C20_29  and  C21_30 
REMARK   18  A    between atoms: C20_29  and  C24_33 
REMARK   19  A    between atoms: C20_29  and  N6_40 
REMARK   20  A    between atoms: C21_30  and  C22_31 
REMARK   21  A    between atoms: C22_31  and  C23_32 
REMARK   22  A    between atoms: C23_32  and  O8_43 
REMARK   23  A    between atoms: C24_33  and  C25_34 
REMARK   24  A    between atoms: C28_38  and  O6_39 
REMARK   25  A    between atoms: C29_42  and  O8_43 
REMARK   26  A    between atoms: C29_42  and  C35_49 
ROOT
ATOM      1  C14 non d ame     -32.212   8.756  24.902  0.00  0.00     0.089 C 
ATOM      2  H20 non d ame     -31.180   8.404  24.887  0.00  0.00     0.087 H 
ENDROOT
BRANCH   1   3
ATOM      3  N4  non d ame     -33.073   7.586  24.973  0.00  0.00    -0.346 N 
ATOM      4  C10 non d ame     -32.499   6.205  24.789  0.00  0.00     0.241 C 
ATOM      5  O4  non d ame     -31.339   6.059  24.584  0.00  0.00    -0.271 OA
ATOM      6  H19 non d ame     -34.058   7.731  25.146  0.00  0.00     0.163 HD
BRANCH   4   7
ATOM      7  C9  non d ame     -33.404   5.004  24.870  0.00  0.00     0.092 C 
ATOM      8  H11 non d ame     -32.823   4.136  25.180  0.00  0.00     0.088 H 
BRANCH   7   9
ATOM      9  N3  non d ame     -34.426   5.230  25.898  0.00  0.00    -0.346 N 
ATOM     10  C7  non d ame     -34.424   4.436  27.102  0.00  0.00     0.240 C 
ATOM     11  O3  non d ame     -33.609   3.611  27.260  0.00  0.00    -0.271 OA
ATOM     12  H10 non d ame     -35.136   5.937  25.774  0.00  0.00     0.163 HD
BRANCH  10  13
ATOM     13  C6  non d ame     -35.515   4.678  28.190  0.00  0.00     0.086 C 
ATOM     14  H6  non d ame     -35.359   4.076  29.085  0.00  0.00     0.086 H 
BRANCH  13  15
ATOM     15  N2  non d ame     -35.462   6.069  28.610  0.00  0.00    -0.343 N 
ATOM     16  C5  non d ame     -35.059   6.393  29.980  0.00  0.00     0.273 C 
ATOM     17  O2  non d ame     -34.783   5.529  30.738  0.00  0.00    -0.266 OA
ATOM     18  H5  non d ame     -35.702   6.801  27.957  0.00  0.00     0.163 HD
BRANCH  16  19
ATOM     19  C4  non d ame     -34.997   7.860  30.437  0.00  0.00     0.154 A 
ATOM     20  C1  non d ame     -35.237   8.366  31.754  0.00  0.00    -0.017 A 
ATOM     21  C2  non d ame     -35.056   9.762  31.644  0.00  0.00     0.077 A 
ATOM     22  H1  non d ame     -35.500   7.805  32.651  0.00  0.00     0.091 H 
ATOM     23  O1  non d ame     -34.748  10.018  30.407  0.00  0.00    -0.218 OA
ATOM     24  N1  non d ame     -34.708   8.923  29.683  0.00  0.00    -0.123 NA
BRANCH  21  25
ATOM     25  C3  non d ame     -35.194  10.780  32.769  0.00  0.00    -0.029 C 
ATOM     26  H2  non d ame     -35.170  10.266  33.729  0.00  0.00     0.036 H 
ATOM     27  H3  non d ame     -34.370  11.491  32.719  0.00  0.00     0.036 H 
ATOM     28  H4  non d ame     -36.139  11.312  32.664  0.00  0.00     0.036 H 
ENDBRANCH  21  25
ENDBRANCH  16  19
ENDBRANCH  13  15
BRANCH  13  29
ATOM     29  C8  non d ame     -36.875   4.362  27.622  0.00  0.00    -0.049 C 
ATOM     30  H7  non d ame     -37.414   5.289  27.429  0.00  0.00     0.030 H 
ATOM     31  H8  non d ame     -36.760   3.809  26.690  0.00  0.00     0.030 H 
ATOM     32  H9  non d ame     -37.436   3.758  28.337  0.00  0.00     0.030 H 
ENDBRANCH  13  29
ENDBRANCH  10  13
ENDBRANCH   7   9
BRANCH   7  33
ATOM     33  C11 non d ame     -34.098   4.784  23.493  0.00  0.00    -0.033 C 
ATOM     34  H12 non d ame     -33.945   3.743  23.210  0.00  0.00     0.042 H 
BRANCH  33  35
ATOM     35  C12 non d ame     -35.637   5.023  23.589  0.00  0.00    -0.071 C 
ATOM     36  H13 non d ame     -36.158   4.281  22.983  0.00  0.00     0.028 H 
ATOM     37  H14 non d ame     -35.956   4.932  24.627  0.00  0.00     0.028 H 
ATOM     38  H15 non d ame     -35.874   6.021  23.221  0.00  0.00     0.028 H 
ENDBRANCH  33  35
BRANCH  33  39
ATOM     39  C13 non d ame     -33.453   5.685  22.392  0.00  0.00    -0.071 C 
ATOM     40  H16 non d ame     -33.979   5.539  21.449  0.00  0.00     0.028 H 
ATOM     41  H17 non d ame     -33.523   6.732  22.691  0.00  0.00     0.028 H 
ATOM     42  H18 non d ame     -32.404   5.413  22.269  0.00  0.00     0.028 H 
ENDBRANCH  33  39
ENDBRANCH   7  33
ENDBRANCH   4   7
ENDBRANCH   1   3
BRANCH   1  43
ATOM     43  C15 non d ame     -32.504   9.662  26.134  0.00  0.00     0.240 C 
ATOM     44  O5  non d ame     -32.432   9.210  27.230  0.00  0.00    -0.271 OA
ATOM     45  N6  non d ame     -32.865  11.096  25.946  0.00  0.00    -0.355 N 
ATOM     46  H46 non d ame     -32.924  11.493  25.019  0.00  0.00     0.162 HD
BRANCH  45  47
ATOM     47  C20 non d ame     -33.139  11.943  27.127  0.00  0.00     0.013 C 
ATOM     48  H30 non d ame     -33.208  11.291  27.997  0.00  0.00     0.072 H 
BRANCH  47  49
ATOM     49  C21 non d ame     -34.445  12.677  26.923  0.00  0.00    -0.038 C 
ATOM     50  H31 non d ame     -34.787  12.398  25.927  0.00  0.00     0.036 H 
ATOM     51  H32 non d ame     -35.054  12.440  27.796  0.00  0.00     0.036 H 
BRANCH  49  52
ATOM     52  C22 non d ame     -34.275  14.212  26.914  0.00  0.00     0.018 C 
ATOM     53  H33 non d ame     -34.832  14.576  27.776  0.00  0.00     0.048 H 
ATOM     54  H34 non d ame     -33.202  14.389  26.843  0.00  0.00     0.048 H 
BRANCH  52  55
ATOM     55  C23 non d ame     -34.906  14.904  25.674  0.00  0.00     0.259 C 
ATOM     56  O7  non d ame     -35.984  14.583  25.287  0.00  0.00    -0.265 OA
BRANCH  55  57
ATOM     57  O8  non d ame     -34.175  15.917  24.994  0.00  0.00    -0.317 OA
BRANCH  57  58
ATOM     58  C29 non d ame     -32.886  16.182  25.555  0.00  0.00     0.052 C 
ATOM     59  H47 non d ame     -32.751  15.443  26.345  0.00  0.00     0.082 H 
ATOM     60  H48 non d ame     -32.197  16.212  24.712  0.00  0.00     0.082 H 
BRANCH  58  61
ATOM     61  C35 non d ame     -32.928  17.592  26.204  0.00  0.00    -0.034 A 
ATOM     62  C30 non d ame     -32.605  17.749  27.548  0.00  0.00    -0.075 A 
ATOM     63  C31 non d ame     -32.643  19.016  28.131  0.00  0.00    -0.082 A 
ATOM     64  H49 non d ame     -32.323  16.882  28.145  0.00  0.00     0.084 H 
ATOM     65  C32 non d ame     -33.006  20.126  27.365  0.00  0.00    -0.083 A 
ATOM     66  H50 non d ame     -32.387  19.136  29.185  0.00  0.00     0.083 H 
ATOM     67  C33 non d ame     -33.331  19.963  26.025  0.00  0.00    -0.082 A 
ATOM     68  H51 non d ame     -33.037  21.120  27.813  0.00  0.00     0.083 H 
ATOM     69  C34 non d ame     -33.293  18.700  25.438  0.00  0.00    -0.075 A 
ATOM     70  H52 non d ame     -33.617  20.832  25.431  0.00  0.00     0.083 H 
ATOM     71  H53 non d ame     -33.548  18.581  24.385  0.00  0.00     0.084 H 
ENDBRANCH  58  61
ENDBRANCH  57  58
ENDBRANCH  55  57
ENDBRANCH  52  55
ENDBRANCH  49  52
ENDBRANCH  47  49
BRANCH  47  72
ATOM     72  C24 non d ame     -32.008  12.954  27.310  0.00  0.00    -0.039 C 
ATOM     73  H35 non d ame     -31.418  12.898  26.395  0.00  0.00     0.036 H 
ATOM     74  H36 non d ame     -32.497  13.889  27.586  0.00  0.00     0.036 H 
BRANCH  72  75
ATOM     75  C25 non d ame     -31.042  12.549  28.522  0.00  0.00    -0.001 C 
ATOM     76  C26 non d ame     -31.805  11.484  29.514  0.00  0.00    -0.035 C 
ATOM     77  C27 non d ame     -31.718  11.935  30.789  0.00  0.00     0.085 C 
ATOM     78  H38 non d ame     -32.876  11.488  29.315  0.00  0.00     0.036 H 
ATOM     79  H39 non d ame     -31.260  10.540  29.541  0.00  0.00     0.036 H 
ATOM     80  N5  non d ame     -31.253  13.370  30.718  0.00  0.00    -0.049 N 
ATOM     81  H40 non d ame     -32.737  11.909  31.176  0.00  0.00     0.075 H 
ATOM     82  H41 non d ame     -30.942  11.333  31.258  0.00  0.00     0.075 H 
ATOM     83  C28 non d ame     -30.704  13.585  29.215  0.00  0.00     0.193 C 
ATOM     84  H42 non d ame     -32.074  13.943  30.845  0.00  0.00     0.280 HD
ATOM     85  H43 non d ame     -30.477  13.449  31.359  0.00  0.00     0.280 HD
ATOM     86  H44 non d ame     -29.632  13.614  29.017  0.00  0.00     0.129 H 
ATOM     87  H37 non d ame     -30.043  12.281  28.180  0.00  0.00     0.046 H 
BRANCH  83  88
ATOM     88  O6  non d ame     -31.228  14.796  28.667  0.00  0.00    -0.369 OA
ATOM     89  H45 non d ame     -30.785  15.547  29.070  0.00  0.00     0.212 HD
ENDBRANCH  83  88
ENDBRANCH  72  75
ENDBRANCH  47  72
ENDBRANCH  45  47
ENDBRANCH   1  43
BRANCH   1  90
ATOM     90  C16 non d ame     -32.514   9.520  23.623  0.00  0.00    -0.035 C 
ATOM     91  H21 non d ame     -33.157   8.863  23.040  0.00  0.00     0.037 H 
ATOM     92  H22 non d ame     -32.880  10.494  23.949  0.00  0.00     0.037 H 
BRANCH  90  93
ATOM     93  C17 non d ame     -31.252   9.794  22.745  0.00  0.00    -0.059 C 
ATOM     94  H23 non d ame     -31.587   9.919  21.715  0.00  0.00     0.038 H 
BRANCH  93  95
ATOM     95  C18 non d ame     -30.512  11.103  23.167  0.00  0.00    -0.073 C 
ATOM     96  H24 non d ame     -29.857  11.428  22.358  0.00  0.00     0.028 H 
ATOM     97  H25 non d ame     -31.244  11.883  23.375  0.00  0.00     0.028 H 
ATOM     98  H26 non d ame     -29.918  10.913  24.061  0.00  0.00     0.028 H 
ENDBRANCH  93  95
BRANCH  93  99
ATOM     99  C19 non d ame     -30.297   8.597  22.770  0.00  0.00    -0.073 C 
ATOM    100  H27 non d ame     -30.290   8.160  23.770  0.00  0.00     0.028 H 
ATOM    101  H28 non d ame     -30.630   7.850  22.050  0.00  0.00     0.028 H 
ATOM    102  H29 non d ame     -29.292   8.928  22.512  0.00  0.00     0.028 H 
ENDBRANCH  93  99
ENDBRANCH  90  93
ENDBRANCH   1  90
TORSDOF 26
ENDMDL
MODEL 14
REMARK VINA RESULT:      -6.2      3.167     10.420
REMARK  26 active torsions:
REMARK  status: ('A' for Active; 'I' for Inactive)
REMARK    1  A    between atoms: C2_2  and  C3_3 
REMARK    2  A    between atoms: C4_6  and  C5_7 
REMARK       I    between atoms: C5_7  and  N2_9 
REMARK    3  A    between atoms: N2_9  and  C6_10 
REMARK    4  A    between atoms: C6_10  and  C7_11 
REMARK    5  A    between atoms: C6_10  and  C8_13 
REMARK       I    between atoms: C7_11  and  N3_14 
REMARK    6  A    between atoms: N3_14  and  C9_15 
REMARK    7  A    between atoms: C9_15  and  C10_16 
REMARK    8  A    between atoms: C9_15  and  C11_18 
REMARK       I    between atoms: C10_16  and  N4_21 
REMARK    9  A    between atoms: C11_18  and  C12_19 
REMARK   10  A    between atoms: C11_18  and  C13_20 
REMARK   11  A    between atoms: N4_21  and  C14_22 
REMARK   12  A    between atoms: C14_22  and  C15_23 
REMARK   13  A    between atoms: C14_22  and  C16_25 
REMARK       I    between atoms: C15_23  and  N6_40 
REMARK   14  A    between atoms: C16_25  and  C17_26 
REMARK   15  A    between atoms: C17_26  and  C18_27 
REMARK   16  A    between atoms: C17_26  and  C19_28 
REMARK   17  A    between atoms: C20_29  and  C21_30 
REMARK   18  A    between atoms: C20_29  and  C24_33 
REMARK   19  A    between atoms: C20_29  and  N6_40 
REMARK   20  A    between atoms: C21_30  and  C22_31 
REMARK   21  A    between atoms: C22_31  and  C23_32 
REMARK   22  A    between atoms: C23_32  and  O8_43 
REMARK   23  A    between atoms: C24_33  and  C25_34 
REMARK   24  A    between atoms: C28_38  and  O6_39 
REMARK   25  A    between atoms: C29_42  and  O8_43 
REMARK   26  A    between atoms: C29_42  and  C35_49 
ROOT
ATOM      1  C14 non d ame     -32.262  11.600  26.973  0.00  0.00     0.089 C 
ATOM      2  H20 non d ame     -33.345  11.635  26.855  0.00  0.00     0.087 H 
ENDROOT
BRANCH   1   3
ATOM      3  N4  non d ame     -31.769  10.489  26.173  0.00  0.00    -0.346 N 
ATOM      4  C10 non d ame     -32.631   9.886  25.093  0.00  0.00     0.241 C 
ATOM      5  O4  non d ame     -33.720  10.310  24.887  0.00  0.00    -0.271 OA
ATOM      6  H19 non d ame     -30.841  10.140  26.366  0.00  0.00     0.163 HD
BRANCH   4   7
ATOM      7  C9  non d ame     -32.103   8.739  24.272  0.00  0.00     0.092 C 
ATOM      8  H11 non d ame     -31.157   8.401  24.693  0.00  0.00     0.088 H 
BRANCH   7   9
ATOM      9  N3  non d ame     -33.038   7.612  24.348  0.00  0.00    -0.346 N 
ATOM     10  C7  non d ame     -32.567   6.312  24.758  0.00  0.00     0.240 C 
ATOM     11  O3  non d ame     -31.440   6.155  25.030  0.00  0.00    -0.271 OA
ATOM     12  H10 non d ame     -34.013   7.732  24.115  0.00  0.00     0.163 HD
BRANCH  10  13
ATOM     13  C6  non d ame     -33.566   5.115  24.834  0.00  0.00     0.086 C 
ATOM     14  H6  non d ame     -33.096   4.196  25.182  0.00  0.00     0.086 H 
BRANCH  13  15
ATOM     15  N2  non d ame     -34.612   5.434  25.791  0.00  0.00    -0.343 N 
ATOM     16  C5  non d ame     -34.746   4.632  27.008  0.00  0.00     0.273 C 
ATOM     17  O2  non d ame     -34.009   3.729  27.208  0.00  0.00    -0.266 OA
ATOM     18  H5  non d ame     -35.240   6.205  25.611  0.00  0.00     0.163 HD
BRANCH  16  19
ATOM     19  C4  non d ame     -35.848   4.959  28.029  0.00  0.00     0.154 A 
ATOM     20  C1  non d ame     -35.730   5.778  29.196  0.00  0.00    -0.017 A 
ATOM     21  C2  non d ame     -37.014   5.757  29.785  0.00  0.00     0.077 A 
ATOM     22  H1  non d ame     -34.849   6.307  29.559  0.00  0.00     0.091 H 
ATOM     23  O1  non d ame     -37.772   5.013  29.036  0.00  0.00    -0.218 OA
ATOM     24  N1  non d ame     -37.114   4.535  28.005  0.00  0.00    -0.123 NA
BRANCH  21  25
ATOM     25  C3  non d ame     -37.432   6.476  31.060  0.00  0.00    -0.029 C 
ATOM     26  H2  non d ame     -38.366   7.010  30.887  0.00  0.00     0.036 H 
ATOM     27  H3  non d ame     -37.575   5.748  31.859  0.00  0.00     0.036 H 
ATOM     28  H4  non d ame     -36.657   7.185  31.350  0.00  0.00     0.036 H 
ENDBRANCH  21  25
ENDBRANCH  16  19
ENDBRANCH  13  15
BRANCH  13  29
ATOM     29  C8  non d ame     -34.166   4.871  23.474  0.00  0.00    -0.049 C 
ATOM     30  H7  non d ame     -35.233   5.091  23.501  0.00  0.00     0.030 H 
ATOM     31  H8  non d ame     -33.682   5.516  22.741  0.00  0.00     0.030 H 
ATOM     32  H9  non d ame     -34.018   3.827  23.193  0.00  0.00     0.030 H 
ENDBRANCH  13  29
ENDBRANCH  10  13
ENDBRANCH   7   9
BRANCH   7  33
ATOM     33  C11 non d ame     -31.958   9.188  22.788  0.00  0.00    -0.033 C 
ATOM     34  H12 non d ame     -32.226  10.243  22.736  0.00  0.00     0.042 H 
BRANCH  33  35
ATOM     35  C12 non d ame     -30.483   9.055  22.297  0.00  0.00    -0.071 C 
ATOM     36  H13 non d ame     -30.156  10.002  21.866  0.00  0.00     0.028 H 
ATOM     37  H14 non d ame     -29.841   8.798  23.139  0.00  0.00     0.028 H 
ATOM     38  H15 non d ame     -30.421   8.273  21.540  0.00  0.00     0.028 H 
ENDBRANCH  33  35
BRANCH  33  39
ATOM     39  C13 non d ame     -32.936   8.395  21.865  0.00  0.00    -0.071 C 
ATOM     40  H16 non d ame     -33.138   8.975  20.964  0.00  0.00     0.028 H 
ATOM     41  H17 non d ame     -32.484   7.441  21.589  0.00  0.00     0.028 H 
ATOM     42  H18 non d ame     -33.870   8.212  22.396  0.00  0.00     0.028 H 
ENDBRANCH  33  39
ENDBRANCH   7  33
ENDBRANCH   4   7
ENDBRANCH   1   3
BRANCH   1  43
ATOM     43  C15 non d ame     -31.576  12.907  26.480  0.00  0.00     0.240 C 
ATOM     44  O5  non d ame     -30.721  13.409  27.135  0.00  0.00    -0.271 OA
ATOM     45  N6  non d ame     -31.979  13.528  25.186  0.00  0.00    -0.355 N 
ATOM     46  H46 non d ame     -32.701  13.108  24.618  0.00  0.00     0.162 HD
BRANCH  45  47
ATOM     47  C20 non d ame     -31.317  14.770  24.732  0.00  0.00     0.013 C 
ATOM     48  H30 non d ame     -30.239  14.609  24.774  0.00  0.00     0.072 H 
BRANCH  47  49
ATOM     49  C21 non d ame     -31.706  15.908  25.647  0.00  0.00    -0.038 C 
ATOM     50  H31 non d ame     -32.126  15.439  26.538  0.00  0.00     0.036 H 
ATOM     51  H32 non d ame     -30.819  16.537  25.729  0.00  0.00     0.036 H 
BRANCH  49  52
ATOM     52  C22 non d ame     -32.820  16.800  25.055  0.00  0.00     0.018 C 
ATOM     53  H33 non d ame     -32.521  17.001  24.028  0.00  0.00     0.048 H 
ATOM     54  H34 non d ame     -33.754  16.278  25.260  0.00  0.00     0.048 H 
BRANCH  52  55
ATOM     55  C23 non d ame     -32.944  18.187  25.745  0.00  0.00     0.259 C 
ATOM     56  O7  non d ame     -32.119  18.551  26.519  0.00  0.00    -0.265 OA
BRANCH  55  57
ATOM     57  O8  non d ame     -34.064  19.013  25.451  0.00  0.00    -0.317 OA
BRANCH  57  58
ATOM     58  C29 non d ame     -35.327  18.404  25.732  0.00  0.00     0.052 C 
ATOM     59  H47 non d ame     -35.920  18.523  24.825  0.00  0.00     0.082 H 
ATOM     60  H48 non d ame     -35.098  17.407  26.106  0.00  0.00     0.082 H 
BRANCH  58  61
ATOM     61  C35 non d ame     -36.005  19.211  26.872  0.00  0.00    -0.034 A 
ATOM     62  C30 non d ame     -36.101  18.665  28.148  0.00  0.00    -0.075 A 
ATOM     63  C31 non d ame     -36.710  19.389  29.172  0.00  0.00    -0.082 A 
ATOM     64  H49 non d ame     -35.702  17.670  28.346  0.00  0.00     0.084 H 
ATOM     65  C32 non d ame     -37.225  20.663  28.916  0.00  0.00    -0.083 A 
ATOM     66  H50 non d ame     -36.783  18.960  30.173  0.00  0.00     0.083 H 
ATOM     67  C33 non d ame     -37.129  21.201  27.640  0.00  0.00    -0.082 A 
ATOM     68  H51 non d ame     -37.701  21.237  29.712  0.00  0.00     0.083 H 
ATOM     69  C34 non d ame     -36.520  20.482  26.614  0.00  0.00    -0.075 A 
ATOM     70  H52 non d ame     -37.534  22.195  27.442  0.00  0.00     0.083 H 
ATOM     71  H53 non d ame     -36.447  20.912  25.615  0.00  0.00     0.084 H 
ENDBRANCH  58  61
ENDBRANCH  57  58
ENDBRANCH  55  57
ENDBRANCH  52  55
ENDBRANCH  49  52
ENDBRANCH  47  49
BRANCH  47  72
ATOM     72  C24 non d ame     -31.749  15.092  23.303  0.00  0.00    -0.039 C 
ATOM     73  H35 non d ame     -32.654  14.507  23.136  0.00  0.00     0.036 H 
ATOM     74  H36 non d ame     -31.787  16.181  23.250  0.00  0.00     0.036 H 
BRANCH  72  75
ATOM     75  C25 non d ame     -30.665  14.604  22.230  0.00  0.00    -0.001 C 
ATOM     76  C26 non d ame     -29.265  14.202  22.993  0.00  0.00    -0.035 C 
ATOM     77  C27 non d ame     -28.238  14.847  22.390  0.00  0.00     0.085 C 
ATOM     78  H38 non d ame     -29.260  14.606  24.005  0.00  0.00     0.036 H 
ATOM     79  H39 non d ame     -29.037  13.148  22.827  0.00  0.00     0.036 H 
ATOM     80  N5  non d ame     -28.845  15.904  21.497  0.00  0.00    -0.049 N 
ATOM     81  H40 non d ame     -27.687  15.334  23.195  0.00  0.00     0.075 H 
ATOM     82  H41 non d ame     -27.747  14.098  21.770  0.00  0.00     0.075 H 
ATOM     83  C28 non d ame     -30.410  15.531  21.369  0.00  0.00     0.193 C 
ATOM     84  H42 non d ame     -28.762  16.779  21.994  0.00  0.00     0.280 HD
ATOM     85  H43 non d ame     -28.411  15.794  20.591  0.00  0.00     0.280 HD
ATOM     86  H44 non d ame     -30.795  15.067  20.460  0.00  0.00     0.129 H 
ATOM     87  H37 non d ame     -31.075  13.876  21.531  0.00  0.00     0.046 H 
BRANCH  83  88
ATOM     88  O6  non d ame     -31.212  16.694  21.574  0.00  0.00    -0.369 OA
ATOM     89  H45 non d ame     -30.726  17.473  21.293  0.00  0.00     0.212 HD
ENDBRANCH  83  88
ENDBRANCH  72  75
ENDBRANCH  47  72
ENDBRANCH  45  47
ENDBRANCH   1  43
BRANCH   1  90
ATOM     90  C16 non d ame     -31.911  11.357  28.432  0.00  0.00    -0.035 C 
ATOM     91  H21 non d ame     -31.366  10.414  28.444  0.00  0.00     0.037 H 
ATOM     92  H22 non d ame     -31.424  12.273  28.767  0.00  0.00     0.037 H 
BRANCH  90  93
ATOM     93  C17 non d ame     -33.158  11.157  29.351  0.00  0.00    -0.059 C 
ATOM     94  H23 non d ame     -33.945  11.817  28.987  0.00  0.00     0.038 H 
BRANCH  93  95
ATOM     95  C18 non d ame     -33.701   9.694  29.297  0.00  0.00    -0.073 C 
ATOM     96  H24 non d ame     -32.880   8.994  29.456  0.00  0.00     0.028 H 
ATOM     97  H25 non d ame     -34.450   9.555  30.076  0.00  0.00     0.028 H 
ATOM     98  H26 non d ame     -34.152   9.508  28.322  0.00  0.00     0.028 H 
ENDBRANCH  93  95
BRANCH  93  99
ATOM     99  C19 non d ame     -32.847  11.570  30.792  0.00  0.00    -0.073 C 
ATOM    100  H27 non d ame     -33.455  10.978  31.478  0.00  0.00     0.028 H 
ATOM    101  H28 non d ame     -31.791  11.395  31.001  0.00  0.00     0.028 H 
ATOM    102  H29 non d ame     -33.074  12.627  30.924  0.00  0.00     0.028 H 
ENDBRANCH  93  99
ENDBRANCH  90  93
ENDBRANCH   1  90
TORSDOF 26
ENDMDL
MODEL 15
REMARK VINA RESULT:      -6.1      2.604      5.216
REMARK  26 active torsions:
REMARK  status: ('A' for Active; 'I' for Inactive)
REMARK    1  A    between atoms: C2_2  and  C3_3 
REMARK    2  A    between atoms: C4_6  and  C5_7 
REMARK       I    between atoms: C5_7  and  N2_9 
REMARK    3  A    between atoms: N2_9  and  C6_10 
REMARK    4  A    between atoms: C6_10  and  C7_11 
REMARK    5  A    between atoms: C6_10  and  C8_13 
REMARK       I    between atoms: C7_11  and  N3_14 
REMARK    6  A    between atoms: N3_14  and  C9_15 
REMARK    7  A    between atoms: C9_15  and  C10_16 
REMARK    8  A    between atoms: C9_15  and  C11_18 
REMARK       I    between atoms: C10_16  and  N4_21 
REMARK    9  A    between atoms: C11_18  and  C12_19 
REMARK   10  A    between atoms: C11_18  and  C13_20 
REMARK   11  A    between atoms: N4_21  and  C14_22 
REMARK   12  A    between atoms: C14_22  and  C15_23 
REMARK   13  A    between atoms: C14_22  and  C16_25 
REMARK       I    between atoms: C15_23  and  N6_40 
REMARK   14  A    between atoms: C16_25  and  C17_26 
REMARK   15  A    between atoms: C17_26  and  C18_27 
REMARK   16  A    between atoms: C17_26  and  C19_28 
REMARK   17  A    between atoms: C20_29  and  C21_30 
REMARK   18  A    between atoms: C20_29  and  C24_33 
REMARK   19  A    between atoms: C20_29  and  N6_40 
REMARK   20  A    between atoms: C21_30  and  C22_31 
REMARK   21  A    between atoms: C22_31  and  C23_32 
REMARK   22  A    between atoms: C23_32  and  O8_43 
REMARK   23  A    between atoms: C24_33  and  C25_34 
REMARK   24  A    between atoms: C28_38  and  O6_39 
REMARK   25  A    between atoms: C29_42  and  O8_43 
REMARK   26  A    between atoms: C29_42  and  C35_49 
ROOT
ATOM      1  C14 non d ame     -36.370  11.086  27.536  0.00  0.00     0.089 C 
ATOM      2  H20 non d ame     -36.816  10.559  26.692  0.00  0.00     0.087 H 
ENDROOT
BRANCH   1   3
ATOM      3  N4  non d ame     -36.475  12.512  27.268  0.00  0.00    -0.346 N 
ATOM      4  C10 non d ame     -37.490  13.029  26.281  0.00  0.00     0.241 C 
ATOM      5  O4  non d ame     -38.212  12.278  25.712  0.00  0.00    -0.271 OA
ATOM      6  H19 non d ame     -35.849  13.134  27.760  0.00  0.00     0.163 HD
BRANCH   4   7
ATOM      7  C9  non d ame     -37.587  14.509  26.019  0.00  0.00     0.092 C 
ATOM      8  H11 non d ame     -38.035  14.998  26.884  0.00  0.00     0.088 H 
BRANCH   7   9
ATOM      9  N3  non d ame     -36.241  15.067  25.854  0.00  0.00    -0.346 N 
ATOM     10  C7  non d ame     -35.882  16.292  26.524  0.00  0.00     0.240 C 
ATOM     11  O3  non d ame     -36.663  16.843  27.199  0.00  0.00    -0.271 OA
ATOM     12  H10 non d ame     -35.557  14.603  25.273  0.00  0.00     0.163 HD
BRANCH  10  13
ATOM     13  C6  non d ame     -34.449  16.882  26.342  0.00  0.00     0.086 C 
ATOM     14  H6  non d ame     -33.805  16.698  27.202  0.00  0.00     0.086 H 
BRANCH  13  15
ATOM     15  N2  non d ame     -33.815  16.240  25.203  0.00  0.00    -0.343 N 
ATOM     16  C5  non d ame     -32.372  16.383  25.005  0.00  0.00     0.273 C 
ATOM     17  O2  non d ame     -31.729  17.020  25.766  0.00  0.00    -0.266 OA
ATOM     18  H5  non d ame     -34.372  15.700  24.556  0.00  0.00     0.163 HD
BRANCH  16  19
ATOM     19  C4  non d ame     -31.688  15.709  23.804  0.00  0.00     0.154 A 
ATOM     20  C1  non d ame     -31.441  16.281  22.517  0.00  0.00    -0.017 A 
ATOM     21  C2  non d ame     -30.796  15.260  21.784  0.00  0.00     0.077 A 
ATOM     22  H1  non d ame     -31.690  17.284  22.168  0.00  0.00     0.091 H 
ATOM     23  O1  non d ame     -30.689  14.228  22.568  0.00  0.00    -0.218 OA
ATOM     24  N1  non d ame     -31.203  14.466  23.753  0.00  0.00    -0.123 NA
BRANCH  21  25
ATOM     25  C3  non d ame     -30.313  15.353  20.343  0.00  0.00    -0.029 C 
ATOM     26  H2  non d ame     -31.033  14.865  19.686  0.00  0.00     0.036 H 
ATOM     27  H3  non d ame     -30.216  16.401  20.058  0.00  0.00     0.036 H 
ATOM     28  H4  non d ame     -29.345  14.861  20.250  0.00  0.00     0.036 H 
ENDBRANCH  21  25
ENDBRANCH  16  19
ENDBRANCH  13  15
BRANCH  13  29
ATOM     29  C8  non d ame     -34.540  18.369  26.113  0.00  0.00    -0.049 C 
ATOM     30  H7  non d ame     -33.568  18.750  25.802  0.00  0.00     0.030 H 
ATOM     31  H8  non d ame     -35.275  18.573  25.334  0.00  0.00     0.030 H 
ATOM     32  H9  non d ame     -34.844  18.861  27.038  0.00  0.00     0.030 H 
ENDBRANCH  13  29
ENDBRANCH  10  13
ENDBRANCH   7   9
BRANCH   7  33
ATOM     33  C11 non d ame     -38.409  14.752  24.718  0.00  0.00    -0.033 C 
ATOM     34  H12 non d ame     -39.093  13.912  24.600  0.00  0.00     0.042 H 
BRANCH  33  35
ATOM     35  C12 non d ame     -39.271  16.048  24.825  0.00  0.00    -0.071 C 
ATOM     36  H13 non d ame     -38.637  16.920  24.662  0.00  0.00     0.028 H 
ATOM     37  H14 non d ame     -40.057  16.025  24.071  0.00  0.00     0.028 H 
ATOM     38  H15 non d ame     -39.719  16.106  25.817  0.00  0.00     0.028 H 
ENDBRANCH  33  35
BRANCH  33  39
ATOM     39  C13 non d ame     -37.475  14.794  23.467  0.00  0.00    -0.071 C 
ATOM     40  H16 non d ame     -37.476  13.818  22.979  0.00  0.00     0.028 H 
ATOM     41  H17 non d ame     -37.835  15.550  22.768  0.00  0.00     0.028 H 
ATOM     42  H18 non d ame     -36.460  15.043  23.778  0.00  0.00     0.028 H 
ENDBRANCH  33  39
ENDBRANCH   7  33
ENDBRANCH   4   7
ENDBRANCH   1   3
BRANCH   1  43
ATOM     43  C15 non d ame     -37.104  10.778  28.874  0.00  0.00     0.240 C 
ATOM     44  O5  non d ame     -38.103  11.361  29.147  0.00  0.00    -0.271 OA
ATOM     45  N6  non d ame     -36.567   9.749  29.809  0.00  0.00    -0.355 N 
ATOM     46  H46 non d ame     -35.722   9.244  29.585  0.00  0.00     0.162 HD
BRANCH  45  47
ATOM     47  C20 non d ame     -37.278   9.468  31.075  0.00  0.00     0.013 C 
ATOM     48  H30 non d ame     -37.880  10.343  31.322  0.00  0.00     0.072 H 
BRANCH  47  49
ATOM     49  C21 non d ame     -36.267   9.211  32.170  0.00  0.00    -0.038 C 
ATOM     50  H31 non d ame     -36.850   9.011  33.069  0.00  0.00     0.036 H 
ATOM     51  H32 non d ame     -35.595   8.448  31.776  0.00  0.00     0.036 H 
BRANCH  49  52
ATOM     52  C22 non d ame     -35.392  10.445  32.480  0.00  0.00     0.018 C 
ATOM     53  H33 non d ame     -36.014  11.311  32.257  0.00  0.00     0.048 H 
ATOM     54  H34 non d ame     -35.013  10.291  33.491  0.00  0.00     0.048 H 
BRANCH  52  55
ATOM     55  C23 non d ame     -34.140  10.571  31.568  0.00  0.00     0.259 C 
ATOM     56  O7  non d ame     -33.692   9.614  31.024  0.00  0.00    -0.265 OA
BRANCH  55  57
ATOM     57  O8  non d ame     -33.525  11.843  31.400  0.00  0.00    -0.317 OA
BRANCH  57  58
ATOM     58  C29 non d ame     -32.151  11.778  31.008  0.00  0.00     0.052 C 
ATOM     59  H47 non d ame     -31.605  12.360  31.751  0.00  0.00     0.082 H 
ATOM     60  H48 non d ame     -31.931  10.720  30.875  0.00  0.00     0.082 H 
BRANCH  58  61
ATOM     61  C35 non d ame     -32.012  12.484  29.632  0.00  0.00    -0.034 A 
ATOM     62  C30 non d ame     -32.341  13.830  29.504  0.00  0.00    -0.075 A 
ATOM     63  C31 non d ame     -32.217  14.464  28.269  0.00  0.00    -0.082 A 
ATOM     64  H49 non d ame     -32.697  14.388  30.370  0.00  0.00     0.084 H 
ATOM     65  C32 non d ame     -31.764  13.746  27.158  0.00  0.00    -0.083 A 
ATOM     66  H50 non d ame     -32.474  15.519  28.171  0.00  0.00     0.083 H 
ATOM     67  C33 non d ame     -31.440  12.403  27.291  0.00  0.00    -0.082 A 
ATOM     68  H51 non d ame     -31.663  14.235  26.189  0.00  0.00     0.083 H 
ATOM     69  C34 non d ame     -31.561  11.766  28.524  0.00  0.00    -0.075 A 
ATOM     70  H52 non d ame     -31.089  11.845  26.422  0.00  0.00     0.083 H 
ATOM     71  H53 non d ame     -31.304  10.711  28.621  0.00  0.00     0.084 H 
ENDBRANCH  58  61
ENDBRANCH  57  58
ENDBRANCH  55  57
ENDBRANCH  52  55
ENDBRANCH  49  52
ENDBRANCH  47  49
BRANCH  47  72
ATOM     72  C24 non d ame     -38.170   8.241  30.905  0.00  0.00    -0.039 C 
ATOM     73  H35 non d ame     -38.174   7.749  31.879  0.00  0.00     0.036 H 
ATOM     74  H36 non d ame     -39.101   8.615  30.480  0.00  0.00     0.036 H 
BRANCH  72  75
ATOM     75  C25 non d ame     -37.554   7.202  29.853  0.00  0.00    -0.001 C 
ATOM     76  C26 non d ame     -38.529   7.098  28.534  0.00  0.00    -0.035 C 
ATOM     77  C27 non d ame     -38.799   5.792  28.291  0.00  0.00     0.085 C 
ATOM     78  H38 non d ame     -39.508   7.523  28.756  0.00  0.00     0.036 H 
ATOM     79  H39 non d ame     -37.988   7.416  27.642  0.00  0.00     0.036 H 
ATOM     80  N5  non d ame     -38.367   5.019  29.514  0.00  0.00    -0.049 N 
ATOM     81  H40 non d ame     -39.883   5.732  28.195  0.00  0.00     0.075 H 
ATOM     82  H41 non d ame     -38.162   5.515  27.452  0.00  0.00     0.075 H 
ATOM     83  C28 non d ame     -37.441   6.024  30.371  0.00  0.00     0.193 C 
ATOM     84  H42 non d ame     -39.206   4.826  30.041  0.00  0.00     0.280 HD
ATOM     85  H43 non d ame     -37.794   4.257  29.181  0.00  0.00     0.280 HD
ATOM     86  H44 non d ame     -36.356   5.912  30.372  0.00  0.00     0.129 H 
ATOM     87  H37 non d ame     -36.494   7.375  29.674  0.00  0.00     0.046 H 
BRANCH  83  88
ATOM     88  O6  non d ame     -37.828   6.000  31.746  0.00  0.00    -0.369 OA
ATOM     89  H45 non d ame     -38.360   5.218  31.916  0.00  0.00     0.212 HD
ENDBRANCH  83  88
ENDBRANCH  72  75
ENDBRANCH  47  72
ENDBRANCH  45  47
ENDBRANCH   1  43
BRANCH   1  90
ATOM     90  C16 non d ame     -34.903  10.709  27.661  0.00  0.00    -0.035 C 
ATOM     91  H21 non d ame     -34.351  11.623  27.446  0.00  0.00     0.037 H 
ATOM     92  H22 non d ame     -34.809  10.232  28.637  0.00  0.00     0.037 H 
BRANCH  90  93
ATOM     93  C17 non d ame     -34.436   9.654  26.608  0.00  0.00    -0.059 C 
ATOM     94  H23 non d ame     -33.447   9.305  26.906  0.00  0.00     0.038 H 
BRANCH  93  95
ATOM     95  C18 non d ame     -35.383   8.413  26.556  0.00  0.00    -0.073 C 
ATOM     96  H24 non d ame     -34.933   7.637  25.937  0.00  0.00     0.028 H 
ATOM     97  H25 non d ame     -35.534   8.029  27.565  0.00  0.00     0.028 H 
ATOM     98  H26 non d ame     -36.343   8.706  26.131  0.00  0.00     0.028 H 
ENDBRANCH  93  95
BRANCH  93  99
ATOM     99  C19 non d ame     -34.296  10.290  25.222  0.00  0.00    -0.073 C 
ATOM    100  H27 non d ame     -34.716   9.620  24.471  0.00  0.00     0.028 H 
ATOM    101  H28 non d ame     -34.831  11.240  25.201  0.00  0.00     0.028 H 
ATOM    102  H29 non d ame     -33.241  10.462  25.006  0.00  0.00     0.028 H 
ENDBRANCH  93  99
ENDBRANCH  90  93
ENDBRANCH   1  90
TORSDOF 26
ENDMDL
MODEL 16
REMARK VINA RESULT:      -6.1      2.776      8.380
REMARK  26 active torsions:
REMARK  status: ('A' for Active; 'I' for Inactive)
REMARK    1  A    between atoms: C2_2  and  C3_3 
REMARK    2  A    between atoms: C4_6  and  C5_7 
REMARK       I    between atoms: C5_7  and  N2_9 
REMARK    3  A    between atoms: N2_9  and  C6_10 
REMARK    4  A    between atoms: C6_10  and  C7_11 
REMARK    5  A    between atoms: C6_10  and  C8_13 
REMARK       I    between atoms: C7_11  and  N3_14 
REMARK    6  A    between atoms: N3_14  and  C9_15 
REMARK    7  A    between atoms: C9_15  and  C10_16 
REMARK    8  A    between atoms: C9_15  and  C11_18 
REMARK       I    between atoms: C10_16  and  N4_21 
REMARK    9  A    between atoms: C11_18  and  C12_19 
REMARK   10  A    between atoms: C11_18  and  C13_20 
REMARK   11  A    between atoms: N4_21  and  C14_22 
REMARK   12  A    between atoms: C14_22  and  C15_23 
REMARK   13  A    between atoms: C14_22  and  C16_25 
REMARK       I    between atoms: C15_23  and  N6_40 
REMARK   14  A    between atoms: C16_25  and  C17_26 
REMARK   15  A    between atoms: C17_26  and  C18_27 
REMARK   16  A    between atoms: C17_26  and  C19_28 
REMARK   17  A    between atoms: C20_29  and  C21_30 
REMARK   18  A    between atoms: C20_29  and  C24_33 
REMARK   19  A    between atoms: C20_29  and  N6_40 
REMARK   20  A    between atoms: C21_30  and  C22_31 
REMARK   21  A    between atoms: C22_31  and  C23_32 
REMARK   22  A    between atoms: C23_32  and  O8_43 
REMARK   23  A    between atoms: C24_33  and  C25_34 
REMARK   24  A    between atoms: C28_38  and  O6_39 
REMARK   25  A    between atoms: C29_42  and  O8_43 
REMARK   26  A    between atoms: C29_42  and  C35_49 
ROOT
ATOM      1  C14 non d ame     -34.020   4.961  25.642  0.00  0.00     0.089 C 
ATOM      2  H20 non d ame     -33.647   4.004  26.007  0.00  0.00     0.087 H 
ENDROOT
BRANCH   1   3
ATOM      3  N4  non d ame     -35.015   5.434  26.594  0.00  0.00    -0.346 N 
ATOM      4  C10 non d ame     -34.867   5.133  28.063  0.00  0.00     0.241 C 
ATOM      5  O4  non d ame     -33.940   4.505  28.458  0.00  0.00    -0.271 OA
ATOM      6  H19 non d ame     -35.797   5.964  26.238  0.00  0.00     0.163 HD
BRANCH   4   7
ATOM      7  C9  non d ame     -35.903   5.634  29.035  0.00  0.00     0.092 C 
ATOM      8  H11 non d ame     -35.876   5.022  29.936  0.00  0.00     0.088 H 
BRANCH   7   9
ATOM      9  N3  non d ame     -35.576   7.007  29.433  0.00  0.00    -0.346 N 
ATOM     10  C7  non d ame     -35.184   7.288  30.792  0.00  0.00     0.240 C 
ATOM     11  O3  non d ame     -35.127   6.423  31.578  0.00  0.00    -0.271 OA
ATOM     12  H10 non d ame     -35.623   7.763  28.766  0.00  0.00     0.163 HD
BRANCH  10  13
ATOM     13  C6  non d ame     -34.840   8.752  31.211  0.00  0.00     0.086 C 
ATOM     14  H6  non d ame     -33.776   8.899  31.393  0.00  0.00     0.086 H 
BRANCH  13  15
ATOM     15  N2  non d ame     -35.206   9.650  30.129  0.00  0.00    -0.343 N 
ATOM     16  C5  non d ame     -34.155  10.349  29.385  0.00  0.00     0.273 C 
ATOM     17  O2  non d ame     -33.019  10.183  29.667  0.00  0.00    -0.266 OA
ATOM     18  H5  non d ame     -36.179   9.788  29.897  0.00  0.00     0.163 HD
BRANCH  16  19
ATOM     19  C4  non d ame     -34.528  11.302  28.238  0.00  0.00     0.154 A 
ATOM     20  C1  non d ame     -34.013  12.615  28.004  0.00  0.00    -0.017 A 
ATOM     21  C2  non d ame     -34.670  13.060  26.836  0.00  0.00     0.077 A 
ATOM     22  H1  non d ame     -33.274  13.162  28.591  0.00  0.00     0.091 H 
ATOM     23  O1  non d ame     -35.466  12.106  26.451  0.00  0.00    -0.218 OA
ATOM     24  N1  non d ame     -35.401  11.069  27.254  0.00  0.00    -0.123 NA
BRANCH  21  25
ATOM     25  C3  non d ame     -34.480  14.407  26.152  0.00  0.00    -0.029 C 
ATOM     26  H2  non d ame     -34.232  15.162  26.897  0.00  0.00     0.036 H 
ATOM     27  H3  non d ame     -33.670  14.336  25.426  0.00  0.00     0.036 H 
ATOM     28  H4  non d ame     -35.401  14.690  25.641  0.00  0.00     0.036 H 
ENDBRANCH  21  25
ENDBRANCH  16  19
ENDBRANCH  13  15
BRANCH  13  29
ATOM     29  C8  non d ame     -35.602   9.111  32.461  0.00  0.00    -0.049 C 
ATOM     30  H7  non d ame     -35.494   8.313  33.195  0.00  0.00     0.030 H 
ATOM     31  H8  non d ame     -35.206  10.039  32.874  0.00  0.00     0.030 H 
ATOM     32  H9  non d ame     -36.657   9.242  32.219  0.00  0.00     0.030 H 
ENDBRANCH  13  29
ENDBRANCH  10  13
ENDBRANCH   7   9
BRANCH   7  33
ATOM     33  C11 non d ame     -37.304   5.614  28.355  0.00  0.00    -0.033 C 
ATOM     34  H12 non d ame     -37.185   5.162  27.371  0.00  0.00     0.042 H 
BRANCH  33  35
ATOM     35  C12 non d ame     -38.312   4.734  29.157  0.00  0.00    -0.071 C 
ATOM     36  H13 non d ame     -39.326   5.095  28.986  0.00  0.00     0.028 H 
ATOM     37  H14 non d ame     -38.234   3.699  28.827  0.00  0.00     0.028 H 
ATOM     38  H15 non d ame     -38.081   4.795  30.221  0.00  0.00     0.028 H 
ENDBRANCH  33  35
BRANCH  33  39
ATOM     39  C13 non d ame     -37.850   7.064  28.157  0.00  0.00    -0.071 C 
ATOM     40  H16 non d ame     -38.478   7.098  27.267  0.00  0.00     0.028 H 
ATOM     41  H17 non d ame     -38.437   7.354  29.029  0.00  0.00     0.028 H 
ATOM     42  H18 non d ame     -37.014   7.754  28.038  0.00  0.00     0.028 H 
ENDBRANCH  33  39
ENDBRANCH   7  33
ENDBRANCH   4   7
ENDBRANCH   1   3
BRANCH   1  43
ATOM     43  C15 non d ame     -32.893   6.028  25.533  0.00  0.00     0.240 C 
ATOM     44  O5  non d ame     -31.875   5.874  26.127  0.00  0.00    -0.271 OA
ATOM     45  N6  non d ame     -33.078   7.235  24.680  0.00  0.00    -0.355 N 
ATOM     46  H46 non d ame     -33.937   7.374  24.166  0.00  0.00     0.162 HD
BRANCH  45  47
ATOM     47  C20 non d ame     -31.996   8.239  24.586  0.00  0.00     0.013 C 
ATOM     48  H30 non d ame     -31.045   7.716  24.685  0.00  0.00     0.072 H 
BRANCH  47  49
ATOM     49  C21 non d ame     -32.151   9.248  25.701  0.00  0.00    -0.038 C 
ATOM     50  H31 non d ame     -33.042   8.943  26.251  0.00  0.00     0.036 H 
ATOM     51  H32 non d ame     -31.184   9.281  26.204  0.00  0.00     0.036 H 
BRANCH  49  52
ATOM     52  C22 non d ame     -32.423  10.677  25.183  0.00  0.00     0.018 C 
ATOM     53  H33 non d ame     -32.349  10.617  24.099  0.00  0.00     0.048 H 
ATOM     54  H34 non d ame     -33.358  10.986  25.651  0.00  0.00     0.048 H 
BRANCH  52  55
ATOM     55  C23 non d ame     -31.358  11.717  25.628  0.00  0.00     0.259 C 
ATOM     56  O7  non d ame     -31.061  11.824  26.775  0.00  0.00    -0.265 OA
BRANCH  55  57
ATOM     57  O8  non d ame     -30.749  12.553  24.651  0.00  0.00    -0.317 OA
BRANCH  57  58
ATOM     58  C29 non d ame     -31.225  13.902  24.660  0.00  0.00     0.052 C 
ATOM     59  H47 non d ame     -32.311  13.831  24.707  0.00  0.00     0.082 H 
ATOM     60  H48 non d ame     -30.676  14.404  25.456  0.00  0.00     0.082 H 
BRANCH  58  61
ATOM     61  C35 non d ame     -30.833  14.556  23.308  0.00  0.00    -0.034 A 
ATOM     62  C30 non d ame     -31.417  15.759  22.922  0.00  0.00    -0.075 A 
ATOM     63  C31 non d ame     -31.065  16.347  21.707  0.00  0.00    -0.082 A 
ATOM     64  H49 non d ame     -32.149  16.241  23.569  0.00  0.00     0.084 H 
ATOM     65  C32 non d ame     -30.128  15.726  20.876  0.00  0.00    -0.083 A 
ATOM     66  H50 non d ame     -31.523  17.291  21.408  0.00  0.00     0.083 H 
ATOM     67  C33 non d ame     -29.552  14.524  21.265  0.00  0.00    -0.082 A 
ATOM     68  H51 non d ame     -29.847  16.180  19.925  0.00  0.00     0.083 H 
ATOM     69  C34 non d ame     -29.899  13.934  22.478  0.00  0.00    -0.075 A 
ATOM     70  H52 non d ame     -28.823  14.041  20.613  0.00  0.00     0.083 H 
ATOM     71  H53 non d ame     -29.440  12.991  22.777  0.00  0.00     0.084 H 
ENDBRANCH  58  61
ENDBRANCH  57  58
ENDBRANCH  55  57
ENDBRANCH  52  55
ENDBRANCH  49  52
ENDBRANCH  47  49
BRANCH  47  72
ATOM     72  C24 non d ame     -32.070   8.953  23.238  0.00  0.00    -0.039 C 
ATOM     73  H35 non d ame     -33.057   8.717  22.839  0.00  0.00     0.036 H 
ATOM     74  H36 non d ame     -31.799   9.989  23.442  0.00  0.00     0.036 H 
BRANCH  72  75
ATOM     75  C25 non d ame     -30.992   8.378  22.202  0.00  0.00    -0.001 C 
ATOM     76  C26 non d ame     -30.253   7.056  22.840  0.00  0.00    -0.035 C 
ATOM     77  C27 non d ame     -28.911   7.219  22.750  0.00  0.00     0.085 C 
ATOM     78  H38 non d ame     -30.432   7.008  23.914  0.00  0.00     0.036 H 
ATOM     79  H39 non d ame     -30.445   6.182  22.216  0.00  0.00     0.036 H 
ATOM     80  N5  non d ame     -28.665   8.670  22.410  0.00  0.00    -0.049 N 
ATOM     81  H40 non d ame     -28.526   7.017  23.750  0.00  0.00     0.075 H 
ATOM     82  H41 non d ame     -28.598   6.599  21.911  0.00  0.00     0.075 H 
ATOM     83  C28 non d ame     -30.089   9.260  21.930  0.00  0.00     0.193 C 
ATOM     84  H42 non d ame     -28.403   9.125  23.272  0.00  0.00     0.280 HD
ATOM     85  H43 non d ame     -28.032   8.674  21.623  0.00  0.00     0.280 HD
ATOM     86  H44 non d ame     -30.289   9.428  20.871  0.00  0.00     0.129 H 
ATOM     87  H37 non d ame     -31.397   8.282  21.195  0.00  0.00     0.046 H 
BRANCH  83  88
ATOM     88  O6  non d ame     -30.345  10.511  22.571  0.00  0.00    -0.369 OA
ATOM     89  H45 non d ame     -31.037  10.978  22.096  0.00  0.00     0.212 HD
ENDBRANCH  83  88
ENDBRANCH  72  75
ENDBRANCH  47  72
ENDBRANCH  45  47
ENDBRANCH   1  43
BRANCH   1  90
ATOM     90  C16 non d ame     -34.680   4.774  24.286  0.00  0.00    -0.035 C 
ATOM     91  H21 non d ame     -35.686   4.417  24.501  0.00  0.00     0.037 H 
ATOM     92  H22 non d ame     -34.536   5.719  23.762  0.00  0.00     0.037 H 
BRANCH  90  93
ATOM     93  C17 non d ame     -34.002   3.675  23.406  0.00  0.00    -0.059 C 
ATOM     94  H23 non d ame     -33.374   3.069  24.061  0.00  0.00     0.038 H 
BRANCH  93  95
ATOM     95  C18 non d ame     -35.047   2.727  22.737  0.00  0.00    -0.073 C 
ATOM     96  H24 non d ame     -35.940   3.295  22.477  0.00  0.00     0.028 H 
ATOM     97  H25 non d ame     -34.618   2.293  21.834  0.00  0.00     0.028 H 
ATOM     98  H26 non d ame     -35.312   1.930  23.432  0.00  0.00     0.028 H 
ENDBRANCH  93  95
BRANCH  93  99
ATOM     99  C19 non d ame     -33.086   4.305  22.353  0.00  0.00    -0.073 C 
ATOM    100  H27 non d ame     -33.027   5.382  22.521  0.00  0.00     0.028 H 
ATOM    101  H28 non d ame     -32.089   3.871  22.431  0.00  0.00     0.028 H 
ATOM    102  H29 non d ame     -33.490   4.114  21.359  0.00  0.00     0.028 H 
ENDBRANCH  93  99
ENDBRANCH  90  93
ENDBRANCH   1  90
TORSDOF 26
ENDMDL
MODEL 17
REMARK VINA RESULT:      -6.0      3.124      8.926
REMARK  26 active torsions:
REMARK  status: ('A' for Active; 'I' for Inactive)
REMARK    1  A    between atoms: C2_2  and  C3_3 
REMARK    2  A    between atoms: C4_6  and  C5_7 
REMARK       I    between atoms: C5_7  and  N2_9 
REMARK    3  A    between atoms: N2_9  and  C6_10 
REMARK    4  A    between atoms: C6_10  and  C7_11 
REMARK    5  A    between atoms: C6_10  and  C8_13 
REMARK       I    between atoms: C7_11  and  N3_14 
REMARK    6  A    between atoms: N3_14  and  C9_15 
REMARK    7  A    between atoms: C9_15  and  C10_16 
REMARK    8  A    between atoms: C9_15  and  C11_18 
REMARK       I    between atoms: C10_16  and  N4_21 
REMARK    9  A    between atoms: C11_18  and  C12_19 
REMARK   10  A    between atoms: C11_18  and  C13_20 
REMARK   11  A    between atoms: N4_21  and  C14_22 
REMARK   12  A    between atoms: C14_22  and  C15_23 
REMARK   13  A    between atoms: C14_22  and  C16_25 
REMARK       I    between atoms: C15_23  and  N6_40 
REMARK   14  A    between atoms: C16_25  and  C17_26 
REMARK   15  A    between atoms: C17_26  and  C18_27 
REMARK   16  A    between atoms: C17_26  and  C19_28 
REMARK   17  A    between atoms: C20_29  and  C21_30 
REMARK   18  A    between atoms: C20_29  and  C24_33 
REMARK   19  A    between atoms: C20_29  and  N6_40 
REMARK   20  A    between atoms: C21_30  and  C22_31 
REMARK   21  A    between atoms: C22_31  and  C23_32 
REMARK   22  A    between atoms: C23_32  and  O8_43 
REMARK   23  A    between atoms: C24_33  and  C25_34 
REMARK   24  A    between atoms: C28_38  and  O6_39 
REMARK   25  A    between atoms: C29_42  and  O8_43 
REMARK   26  A    between atoms: C29_42  and  C35_49 
ROOT
ATOM      1  C14 non d ame     -35.218   8.647  29.854  0.00  0.00     0.089 C 
ATOM      2  H20 non d ame     -36.289   8.471  29.950  0.00  0.00     0.087 H 
ENDROOT
BRANCH   1   3
ATOM      3  N4  non d ame     -34.641   7.488  29.189  0.00  0.00    -0.346 N 
ATOM      4  C10 non d ame     -35.157   6.104  29.487  0.00  0.00     0.241 C 
ATOM      5  O4  non d ame     -36.037   5.945  30.268  0.00  0.00    -0.271 OA
ATOM      6  H19 non d ame     -33.891   7.644  28.530  0.00  0.00     0.163 HD
BRANCH   4   7
ATOM      7  C9  non d ame     -34.552   4.916  28.786  0.00  0.00     0.092 C 
ATOM      8  H11 non d ame     -35.067   4.010  29.104  0.00  0.00     0.088 H 
BRANCH   7   9
ATOM      9  N3  non d ame     -34.757   5.045  27.339  0.00  0.00    -0.346 N 
ATOM     10  C7  non d ame     -35.607   4.110  26.646  0.00  0.00     0.240 C 
ATOM     11  O3  non d ame     -36.135   3.247  27.236  0.00  0.00    -0.271 OA
ATOM     12  H10 non d ame     -34.307   5.783  26.818  0.00  0.00     0.163 HD
BRANCH  10  13
ATOM     13  C6  non d ame     -35.819   4.250  25.107  0.00  0.00     0.086 C 
ATOM     14  H6  non d ame     -36.837   4.538  24.846  0.00  0.00     0.086 H 
BRANCH  13  15
ATOM     15  N2  non d ame     -34.949   5.299  24.604  0.00  0.00    -0.343 N 
ATOM     16  C5  non d ame     -35.488   6.307  23.689  0.00  0.00     0.273 C 
ATOM     17  O2  non d ame     -36.622   6.264  23.360  0.00  0.00    -0.266 OA
ATOM     18  H5  non d ame     -33.980   5.327  24.888  0.00  0.00     0.163 HD
BRANCH  16  19
ATOM     19  C4  non d ame     -34.578   7.423  23.151  0.00  0.00     0.154 A 
ATOM     20  C1  non d ame     -33.231   7.705  23.542  0.00  0.00    -0.017 A 
ATOM     21  C2  non d ame     -32.850   8.817  22.759  0.00  0.00     0.077 A 
ATOM     22  H1  non d ame     -32.623   7.183  24.281  0.00  0.00     0.091 H 
ATOM     23  O1  non d ame     -33.865   9.128  22.008  0.00  0.00    -0.218 OA
ATOM     24  N1  non d ame     -34.886   8.329  22.219  0.00  0.00    -0.123 NA
BRANCH  21  25
ATOM     25  C3  non d ame     -31.500   9.520  22.787  0.00  0.00    -0.029 C 
ATOM     26  H2  non d ame     -31.460  10.198  23.638  0.00  0.00     0.036 H 
ATOM     27  H3  non d ame     -30.706   8.778  22.878  0.00  0.00     0.036 H 
ATOM     28  H4  non d ame     -31.364  10.085  21.865  0.00  0.00     0.036 H 
ENDBRANCH  21  25
ENDBRANCH  16  19
ENDBRANCH  13  15
BRANCH  13  29
ATOM     29  C8  non d ame     -35.495   2.942  24.431  0.00  0.00    -0.049 C 
ATOM     30  H7  non d ame     -36.183   2.172  24.780  0.00  0.00     0.030 H 
ATOM     31  H8  non d ame     -35.596   3.055  23.352  0.00  0.00     0.030 H 
ATOM     32  H9  non d ame     -34.472   2.652  24.673  0.00  0.00     0.030 H 
ENDBRANCH  13  29
ENDBRANCH  10  13
ENDBRANCH   7   9
BRANCH   7  33
ATOM     33  C11 non d ame     -33.025   4.859  29.087  0.00  0.00    -0.033 C 
ATOM     34  H12 non d ame     -32.792   5.684  29.759  0.00  0.00     0.042 H 
BRANCH  33  35
ATOM     35  C12 non d ame     -32.640   3.535  29.818  0.00  0.00    -0.071 C 
ATOM     36  H13 non d ame     -32.561   2.728  29.090  0.00  0.00     0.028 H 
ATOM     37  H14 non d ame     -31.683   3.663  30.323  0.00  0.00     0.028 H 
ATOM     38  H15 non d ame     -33.408   3.288  30.550  0.00  0.00     0.028 H 
ENDBRANCH  33  35
BRANCH  33  39
ATOM     39  C13 non d ame     -32.190   5.049  27.781  0.00  0.00    -0.071 C 
ATOM     40  H16 non d ame     -31.336   5.695  27.986  0.00  0.00     0.028 H 
ATOM     41  H17 non d ame     -31.836   4.079  27.430  0.00  0.00     0.028 H 
ATOM     42  H18 non d ame     -32.814   5.505  27.013  0.00  0.00     0.028 H 
ENDBRANCH  33  39
ENDBRANCH   7  33
ENDBRANCH   4   7
ENDBRANCH   1   3
BRANCH   1  43
ATOM     43  C15 non d ame     -34.904   9.913  29.005  0.00  0.00     0.240 C 
ATOM     44  O5  non d ame     -35.795  10.554  28.550  0.00  0.00    -0.271 OA
ATOM     45  N6  non d ame     -33.493  10.330  28.767  0.00  0.00    -0.355 N 
ATOM     46  H46 non d ame     -32.728   9.795  29.153  0.00  0.00     0.162 HD
BRANCH  45  47
ATOM     47  C20 non d ame     -33.212  11.536  27.959  0.00  0.00     0.013 C 
ATOM     48  H30 non d ame     -34.052  12.221  28.076  0.00  0.00     0.072 H 
BRANCH  47  49
ATOM     49  C21 non d ame     -33.065  11.141  26.506  0.00  0.00    -0.038 C 
ATOM     50  H31 non d ame     -32.886  10.066  26.511  0.00  0.00     0.036 H 
ATOM     51  H32 non d ame     -33.942  11.546  26.001  0.00  0.00     0.036 H 
BRANCH  49  52
ATOM     52  C22 non d ame     -31.835  11.788  25.832  0.00  0.00     0.018 C 
ATOM     53  H33 non d ame     -31.021  11.693  26.549  0.00  0.00     0.048 H 
ATOM     54  H34 non d ame     -31.756  11.317  24.851  0.00  0.00     0.048 H 
BRANCH  52  55
ATOM     55  C23 non d ame     -31.996  13.310  25.564  0.00  0.00     0.259 C 
ATOM     56  O7  non d ame     -33.072  13.779  25.379  0.00  0.00    -0.265 OA
BRANCH  55  57
ATOM     57  O8  non d ame     -30.839  14.137  25.529  0.00  0.00    -0.317 OA
BRANCH  57  58
ATOM     58  C29 non d ame     -31.082  15.458  25.038  0.00  0.00     0.052 C 
ATOM     59  H47 non d ame     -32.165  15.578  25.038  0.00  0.00     0.082 H 
ATOM     60  H48 non d ame     -30.460  16.118  25.642  0.00  0.00     0.082 H 
BRANCH  58  61
ATOM     61  C35 non d ame     -30.581  15.522  23.570  0.00  0.00    -0.034 A 
ATOM     62  C30 non d ame     -31.442  15.937  22.558  0.00  0.00    -0.075 A 
ATOM     63  C31 non d ame     -30.993  15.993  21.239  0.00  0.00    -0.082 A 
ATOM     64  H49 non d ame     -32.468  16.216  22.797  0.00  0.00     0.084 H 
ATOM     65  C32 non d ame     -29.678  15.633  20.934  0.00  0.00    -0.083 A 
ATOM     66  H50 non d ame     -31.670  16.321  20.449  0.00  0.00     0.083 H 
ATOM     67  C33 non d ame     -28.824  15.216  21.946  0.00  0.00    -0.082 A 
ATOM     68  H51 non d ame     -29.319  15.675  19.905  0.00  0.00     0.083 H 
ATOM     69  C34 non d ame     -29.268  15.159  23.265  0.00  0.00    -0.075 A 
ATOM     70  H52 non d ame     -27.799  14.932  21.704  0.00  0.00     0.083 H 
ATOM     71  H53 non d ame     -28.592  14.833  24.055  0.00  0.00     0.084 H 
ENDBRANCH  58  61
ENDBRANCH  57  58
ENDBRANCH  55  57
ENDBRANCH  52  55
ENDBRANCH  49  52
ENDBRANCH  47  49
BRANCH  47  72
ATOM     72  C24 non d ame     -31.921  12.193  28.443  0.00  0.00    -0.039 C 
ATOM     73  H35 non d ame     -31.328  11.385  28.872  0.00  0.00     0.036 H 
ATOM     74  H36 non d ame     -31.542  12.752  27.588  0.00  0.00     0.036 H 
BRANCH  72  75
ATOM     75  C25 non d ame     -32.197  13.250  29.614  0.00  0.00    -0.001 C 
ATOM     76  C26 non d ame     -32.577  14.714  28.969  0.00  0.00    -0.035 C 
ATOM     77  C27 non d ame     -31.789  15.659  29.536  0.00  0.00     0.085 C 
ATOM     78  H38 non d ame     -32.295  14.744  27.918  0.00  0.00     0.036 H 
ATOM     79  H39 non d ame     -33.583  15.007  29.272  0.00  0.00     0.036 H 
ATOM     80  N5  non d ame     -30.685  14.932  30.267  0.00  0.00    -0.049 N 
ATOM     81  H40 non d ame     -31.359  16.216  28.704  0.00  0.00     0.075 H 
ATOM     82  H41 non d ame     -32.422  16.167  30.263  0.00  0.00     0.075 H 
ATOM     83  C28 non d ame     -31.159  13.392  30.369  0.00  0.00     0.193 C 
ATOM     84  H42 non d ame     -29.871  14.979  29.673  0.00  0.00     0.280 HD
ATOM     85  H43 non d ame     -30.655  15.322  31.198  0.00  0.00     0.280 HD
ATOM     86  H44 non d ame     -31.542  12.993  31.309  0.00  0.00     0.129 H 
ATOM     87  H37 non d ame     -32.868  12.855  30.377  0.00  0.00     0.046 H 
BRANCH  83  88
ATOM     88  O6  non d ame     -30.092  12.522  29.989  0.00  0.00    -0.369 OA
ATOM     89  H45 non d ame     -30.418  11.871  29.362  0.00  0.00     0.212 HD
ENDBRANCH  83  88
ENDBRANCH  72  75
ENDBRANCH  47  72
ENDBRANCH  45  47
ENDBRANCH   1  43
BRANCH   1  90
ATOM     90  C16 non d ame     -34.594   8.790  31.233  0.00  0.00    -0.035 C 
ATOM     91  H21 non d ame     -34.266   7.789  31.507  0.00  0.00     0.037 H 
ATOM     92  H22 non d ame     -33.867   9.597  31.139  0.00  0.00     0.037 H 
BRANCH  90  93
ATOM     93  C17 non d ame     -35.608   9.236  32.335  0.00  0.00    -0.059 C 
ATOM     94  H23 non d ame     -35.525   8.533  33.164  0.00  0.00     0.038 H 
BRANCH  93  95
ATOM     95  C18 non d ame     -35.289  10.662  32.887  0.00  0.00    -0.073 C 
ATOM     96  H24 non d ame     -34.542  10.588  33.678  0.00  0.00     0.028 H 
ATOM     97  H25 non d ame     -34.901  11.285  32.082  0.00  0.00     0.028 H 
ATOM     98  H26 non d ame     -36.199  11.109  33.287  0.00  0.00     0.028 H 
ENDBRANCH  93  95
BRANCH  93  99
ATOM     99  C19 non d ame     -37.047   9.163  31.817  0.00  0.00    -0.073 C 
ATOM    100  H27 non d ame     -37.703   9.719  32.488  0.00  0.00     0.028 H 
ATOM    101  H28 non d ame     -37.097   9.598  30.818  0.00  0.00     0.028 H 
ATOM    102  H29 non d ame     -37.366   8.122  31.776  0.00  0.00     0.028 H 
ENDBRANCH  93  99
ENDBRANCH  90  93
ENDBRANCH   1  90
TORSDOF 26
ENDMDL
MODEL 18
REMARK VINA RESULT:      -6.0      3.274      9.258
REMARK  26 active torsions:
REMARK  status: ('A' for Active; 'I' for Inactive)
REMARK    1  A    between atoms: C2_2  and  C3_3 
REMARK    2  A    between atoms: C4_6  and  C5_7 
REMARK       I    between atoms: C5_7  and  N2_9 
REMARK    3  A    between atoms: N2_9  and  C6_10 
REMARK    4  A    between atoms: C6_10  and  C7_11 
REMARK    5  A    between atoms: C6_10  and  C8_13 
REMARK       I    between atoms: C7_11  and  N3_14 
REMARK    6  A    between atoms: N3_14  and  C9_15 
REMARK    7  A    between atoms: C9_15  and  C10_16 
REMARK    8  A    between atoms: C9_15  and  C11_18 
REMARK       I    between atoms: C10_16  and  N4_21 
REMARK    9  A    between atoms: C11_18  and  C12_19 
REMARK   10  A    between atoms: C11_18  and  C13_20 
REMARK   11  A    between atoms: N4_21  and  C14_22 
REMARK   12  A    between atoms: C14_22  and  C15_23 
REMARK   13  A    between atoms: C14_22  and  C16_25 
REMARK       I    between atoms: C15_23  and  N6_40 
REMARK   14  A    between atoms: C16_25  and  C17_26 
REMARK   15  A    between atoms: C17_26  and  C18_27 
REMARK   16  A    between atoms: C17_26  and  C19_28 
REMARK   17  A    between atoms: C20_29  and  C21_30 
REMARK   18  A    between atoms: C20_29  and  C24_33 
REMARK   19  A    between atoms: C20_29  and  N6_40 
REMARK   20  A    between atoms: C21_30  and  C22_31 
REMARK   21  A    between atoms: C22_31  and  C23_32 
REMARK   22  A    between atoms: C23_32  and  O8_43 
REMARK   23  A    between atoms: C24_33  and  C25_34 
REMARK   24  A    between atoms: C28_38  and  O6_39 
REMARK   25  A    between atoms: C29_42  and  O8_43 
REMARK   26  A    between atoms: C29_42  and  C35_49 
ROOT
ATOM      1  C14 non d ame     -32.335  10.782  26.089  0.00  0.00     0.089 C 
ATOM      2  H20 non d ame     -33.381  10.856  25.790  0.00  0.00     0.087 H 
ENDROOT
BRANCH   1   3
ATOM      3  N4  non d ame     -31.721   9.739  25.281  0.00  0.00    -0.346 N 
ATOM      4  C10 non d ame     -32.549   8.945  24.304  0.00  0.00     0.241 C 
ATOM      5  O4  non d ame     -33.710   9.162  24.184  0.00  0.00    -0.271 OA
ATOM      6  H19 non d ame     -30.732   9.568  25.400  0.00  0.00     0.163 HD
BRANCH   4   7
ATOM      7  C9  non d ame     -31.895   7.872  23.472  0.00  0.00     0.092 C 
ATOM      8  H11 non d ame     -30.958   7.575  23.942  0.00  0.00     0.088 H 
BRANCH   7   9
ATOM      9  N3  non d ame     -32.758   6.687  23.438  0.00  0.00    -0.346 N 
ATOM     10  C7  non d ame     -32.617   5.664  24.445  0.00  0.00     0.240 C 
ATOM     11  O3  non d ame     -31.814   5.778  25.289  0.00  0.00    -0.271 OA
ATOM     12  H10 non d ame     -33.454   6.574  22.715  0.00  0.00     0.163 HD
BRANCH  10  13
ATOM     13  C6  non d ame     -33.535   4.403  24.402  0.00  0.00     0.086 C 
ATOM     14  H6  non d ame     -32.971   3.473  24.335  0.00  0.00     0.086 H 
BRANCH  13  15
ATOM     15  N2  non d ame     -34.303   4.337  25.634  0.00  0.00    -0.343 N 
ATOM     16  C5  non d ame     -35.197   5.441  25.987  0.00  0.00     0.273 C 
ATOM     17  O2  non d ame     -35.289   6.381  25.276  0.00  0.00    -0.266 OA
ATOM     18  H5  non d ame     -34.216   3.531  26.237  0.00  0.00     0.163 HD
BRANCH  16  19
ATOM     19  C4  non d ame     -36.016   5.383  27.287  0.00  0.00     0.154 A 
ATOM     20  C1  non d ame     -35.592   5.780  28.594  0.00  0.00    -0.017 A 
ATOM     21  C2  non d ame     -36.704   5.529  29.428  0.00  0.00     0.077 A 
ATOM     22  H1  non d ame     -34.626   6.189  28.892  0.00  0.00     0.091 H 
ATOM     23  O1  non d ame     -37.650   5.046  28.679  0.00  0.00    -0.218 OA
ATOM     24  N1  non d ame     -37.272   4.951  27.424  0.00  0.00    -0.123 NA
BRANCH  21  25
ATOM     25  C3  non d ame     -36.780   5.779  30.928  0.00  0.00    -0.029 C 
ATOM     26  H2  non d ame     -35.932   6.388  31.239  0.00  0.00     0.036 H 
ATOM     27  H3  non d ame     -37.707   6.304  31.163  0.00  0.00     0.036 H 
ATOM     28  H4  non d ame     -36.758   4.828  31.458  0.00  0.00     0.036 H 
ENDBRANCH  21  25
ENDBRANCH  16  19
ENDBRANCH  13  15
BRANCH  13  29
ATOM     29  C8  non d ame     -34.464   4.495  23.218  0.00  0.00    -0.049 C 
ATOM     30  H7  non d ame     -34.539   5.532  22.893  0.00  0.00     0.030 H 
ATOM     31  H8  non d ame     -34.074   3.887  22.402  0.00  0.00     0.030 H 
ATOM     32  H9  non d ame     -35.452   4.131  23.502  0.00  0.00     0.030 H 
ENDBRANCH  13  29
ENDBRANCH  10  13
ENDBRANCH   7   9
BRANCH   7  33
ATOM     33  C11 non d ame     -31.683   8.397  22.022  0.00  0.00    -0.033 C 
ATOM     34  H12 non d ame     -32.275   9.305  21.911  0.00  0.00     0.042 H 
BRANCH  33  35
ATOM     35  C12 non d ame     -30.191   8.776  21.768  0.00  0.00    -0.071 C 
ATOM     36  H13 non d ame     -29.648   8.767  22.714  0.00  0.00     0.028 H 
ATOM     37  H14 non d ame     -29.743   8.056  21.085  0.00  0.00     0.028 H 
ATOM     38  H15 non d ame     -30.139   9.774  21.331  0.00  0.00     0.028 H 
ENDBRANCH  33  35
BRANCH  33  39
ATOM     39  C13 non d ame     -32.191   7.359  20.971  0.00  0.00    -0.071 C 
ATOM     40  H16 non d ame     -31.453   6.564  20.860  0.00  0.00     0.028 H 
ATOM     41  H17 non d ame     -33.137   6.933  21.308  0.00  0.00     0.028 H 
ATOM     42  H18 non d ame     -32.338   7.854  20.012  0.00  0.00     0.028 H 
ENDBRANCH  33  39
ENDBRANCH   7  33
ENDBRANCH   4   7
ENDBRANCH   1   3
BRANCH   1  43
ATOM     43  C15 non d ame     -31.562  12.112  25.852  0.00  0.00     0.240 C 
ATOM     44  O5  non d ame     -30.727  12.455  26.624  0.00  0.00    -0.271 OA
ATOM     45  N6  non d ame     -31.857  12.951  24.656  0.00  0.00    -0.355 N 
ATOM     46  H46 non d ame     -32.561  12.667  23.990  0.00  0.00     0.162 HD
BRANCH  45  47
ATOM     47  C20 non d ame     -31.112  14.212  24.444  0.00  0.00     0.013 C 
ATOM     48  H30 non d ame     -30.048  13.986  24.506  0.00  0.00     0.072 H 
BRANCH  47  49
ATOM     49  C21 non d ame     -31.494  15.204  25.519  0.00  0.00    -0.038 C 
ATOM     50  H31 non d ame     -32.139  14.659  26.208  0.00  0.00     0.036 H 
ATOM     51  H32 non d ame     -30.555  15.630  25.873  0.00  0.00     0.036 H 
BRANCH  49  52
ATOM     52  C22 non d ame     -32.331  16.383  24.976  0.00  0.00     0.018 C 
ATOM     53  H33 non d ame     -31.652  17.233  24.936  0.00  0.00     0.048 H 
ATOM     54  H34 non d ame     -32.800  16.016  24.063  0.00  0.00     0.048 H 
BRANCH  52  55
ATOM     55  C23 non d ame     -33.495  16.808  25.914  0.00  0.00     0.259 C 
ATOM     56  O7  non d ame     -34.546  17.132  25.462  0.00  0.00    -0.265 OA
BRANCH  55  57
ATOM     57  O8  non d ame     -33.288  16.821  27.321  0.00  0.00    -0.317 OA
BRANCH  57  58
ATOM     58  C29 non d ame     -33.986  15.787  28.022  0.00  0.00     0.052 C 
ATOM     59  H47 non d ame     -34.629  16.299  28.738  0.00  0.00     0.082 H 
ATOM     60  H48 non d ame     -34.423  15.152  27.253  0.00  0.00     0.082 H 
BRANCH  58  61
ATOM     61  C35 non d ame     -32.941  14.953  28.811  0.00  0.00    -0.034 A 
ATOM     62  C30 non d ame     -31.730  15.529  29.184  0.00  0.00    -0.075 A 
ATOM     63  C31 non d ame     -30.790  14.780  29.892  0.00  0.00    -0.082 A 
ATOM     64  H49 non d ame     -31.516  16.565  28.922  0.00  0.00     0.084 H 
ATOM     65  C32 non d ame     -31.065  13.450  30.224  0.00  0.00    -0.083 A 
ATOM     66  H50 non d ame     -29.843  15.234  30.185  0.00  0.00     0.083 H 
ATOM     67  C33 non d ame     -32.273  12.880  29.846  0.00  0.00    -0.082 A 
ATOM     68  H51 non d ame     -30.336  12.858  30.778  0.00  0.00     0.083 H 
ATOM     69  C34 non d ame     -33.215  13.625  29.140  0.00  0.00    -0.075 A 
ATOM     70  H52 non d ame     -32.483  11.841  30.105  0.00  0.00     0.083 H 
ATOM     71  H53 non d ame     -34.162  13.171  28.848  0.00  0.00     0.084 H 
ENDBRANCH  58  61
ENDBRANCH  57  58
ENDBRANCH  55  57
ENDBRANCH  52  55
ENDBRANCH  49  52
ENDBRANCH  47  49
BRANCH  47  72
ATOM     72  C24 non d ame     -31.453  14.789  23.072  0.00  0.00    -0.039 C 
ATOM     73  H35 non d ame     -32.293  14.195  22.709  0.00  0.00     0.036 H 
ATOM     74  H36 non d ame     -31.572  15.861  23.229  0.00  0.00     0.036 H 
BRANCH  72  75
ATOM     75  C25 non d ame     -30.251  14.594  22.032  0.00  0.00    -0.001 C 
ATOM     76  C26 non d ame     -28.852  14.300  22.842  0.00  0.00    -0.035 C 
ATOM     77  C27 non d ame     -27.899  15.153  22.393  0.00  0.00     0.085 C 
ATOM     78  H38 non d ame     -28.962  14.572  23.892  0.00  0.00     0.036 H 
ATOM     79  H39 non d ame     -28.461  13.318  22.573  0.00  0.00     0.036 H 
ATOM     80  N5  non d ame     -28.606  16.217  21.587  0.00  0.00    -0.049 N 
ATOM     81  H40 non d ame     -27.472  15.609  23.287  0.00  0.00     0.075 H 
ATOM     82  H41 non d ame     -27.270  14.563  21.728  0.00  0.00     0.075 H 
ATOM     83  C28 non d ame     -30.089  15.647  21.303  0.00  0.00     0.193 C 
ATOM     84  H42 non d ame     -28.681  17.026  22.185  0.00  0.00     0.280 HD
ATOM     85  H43 non d ame     -28.112  16.282  20.708  0.00  0.00     0.280 HD
ATOM     86  H44 non d ame     -30.351  15.251  20.321  0.00  0.00     0.129 H 
ATOM     87  H37 non d ame     -30.510  13.908  21.225  0.00  0.00     0.046 H 
BRANCH  83  88
ATOM     88  O6  non d ame     -31.065  16.652  21.583  0.00  0.00    -0.369 OA
ATOM     89  H45 non d ame     -30.943  16.976  22.479  0.00  0.00     0.212 HD
ENDBRANCH  83  88
ENDBRANCH  72  75
ENDBRANCH  47  72
ENDBRANCH  45  47
ENDBRANCH   1  43
BRANCH   1  90
ATOM     90  C16 non d ame     -32.245  10.394  27.556  0.00  0.00    -0.035 C 
ATOM     91  H21 non d ame     -31.293   9.876  27.659  0.00  0.00     0.037 H 
ATOM     92  H22 non d ame     -32.429  11.314  28.109  0.00  0.00     0.037 H 
BRANCH  90  93
ATOM     93  C17 non d ame     -33.348   9.381  28.004  0.00  0.00    -0.059 C 
ATOM     94  H23 non d ame     -34.246   9.594  27.425  0.00  0.00     0.038 H 
BRANCH  93  95
ATOM     95  C18 non d ame     -32.938   7.901  27.720  0.00  0.00    -0.073 C 
ATOM     96  H24 non d ame     -31.948   7.711  28.134  0.00  0.00     0.028 H 
ATOM     97  H25 non d ame     -33.660   7.229  28.186  0.00  0.00     0.028 H 
ATOM     98  H26 non d ame     -32.922   7.727  26.645  0.00  0.00     0.028 H 
ENDBRANCH  93  95
BRANCH  93  99
ATOM     99  C19 non d ame     -33.701   9.575  29.481  0.00  0.00    -0.073 C 
ATOM    100  H27 non d ame     -32.808   9.876  30.031  0.00  0.00     0.028 H 
ATOM    101  H28 non d ame     -34.463  10.349  29.574  0.00  0.00     0.028 H 
ATOM    102  H29 non d ame     -34.081   8.639  29.889  0.00  0.00     0.028 H 
ENDBRANCH  93  99
ENDBRANCH  90  93
ENDBRANCH   1  90
TORSDOF 26
ENDMDL
MODEL 19
REMARK VINA RESULT:      -5.9      2.804      6.617
REMARK  26 active torsions:
REMARK  status: ('A' for Active; 'I' for Inactive)
REMARK    1  A    between atoms: C2_2  and  C3_3 
REMARK    2  A    between atoms: C4_6  and  C5_7 
REMARK       I    between atoms: C5_7  and  N2_9 
REMARK    3  A    between atoms: N2_9  and  C6_10 
REMARK    4  A    between atoms: C6_10  and  C7_11 
REMARK    5  A    between atoms: C6_10  and  C8_13 
REMARK       I    between atoms: C7_11  and  N3_14 
REMARK    6  A    between atoms: N3_14  and  C9_15 
REMARK    7  A    between atoms: C9_15  and  C10_16 
REMARK    8  A    between atoms: C9_15  and  C11_18 
REMARK       I    between atoms: C10_16  and  N4_21 
REMARK    9  A    between atoms: C11_18  and  C12_19 
REMARK   10  A    between atoms: C11_18  and  C13_20 
REMARK   11  A    between atoms: N4_21  and  C14_22 
REMARK   12  A    between atoms: C14_22  and  C15_23 
REMARK   13  A    between atoms: C14_22  and  C16_25 
REMARK       I    between atoms: C15_23  and  N6_40 
REMARK   14  A    between atoms: C16_25  and  C17_26 
REMARK   15  A    between atoms: C17_26  and  C18_27 
REMARK   16  A    between atoms: C17_26  and  C19_28 
REMARK   17  A    between atoms: C20_29  and  C21_30 
REMARK   18  A    between atoms: C20_29  and  C24_33 
REMARK   19  A    between atoms: C20_29  and  N6_40 
REMARK   20  A    between atoms: C21_30  and  C22_31 
REMARK   21  A    between atoms: C22_31  and  C23_32 
REMARK   22  A    between atoms: C23_32  and  O8_43 
REMARK   23  A    between atoms: C24_33  and  C25_34 
REMARK   24  A    between atoms: C28_38  and  O6_39 
REMARK   25  A    between atoms: C29_42  and  O8_43 
REMARK   26  A    between atoms: C29_42  and  C35_49 
ROOT
ATOM      1  C14 non d ame     -32.852   9.645  27.403  0.00  0.00     0.089 C 
ATOM      2  H20 non d ame     -31.803   9.364  27.308  0.00  0.00     0.087 H 
ENDROOT
BRANCH   1   3
ATOM      3  N4  non d ame     -32.896  11.017  27.888  0.00  0.00    -0.346 N 
ATOM      4  C10 non d ame     -31.884  12.026  27.411  0.00  0.00     0.241 C 
ATOM      5  O4  non d ame     -31.040  11.712  26.638  0.00  0.00    -0.271 OA
ATOM      6  H19 non d ame     -33.620  11.263  28.548  0.00  0.00     0.163 HD
BRANCH   4   7
ATOM      7  C9  non d ame     -31.947  13.443  27.920  0.00  0.00     0.092 C 
ATOM      8  H11 non d ame     -31.246  14.058  27.357  0.00  0.00     0.088 H 
BRANCH   7   9
ATOM      9  N3  non d ame     -33.288  13.987  27.685  0.00  0.00    -0.346 N 
ATOM     10  C7  non d ame     -33.441  15.296  27.099  0.00  0.00     0.240 C 
ATOM     11  O3  non d ame     -32.497  15.925  26.812  0.00  0.00    -0.271 OA
ATOM     12  H10 non d ame     -34.112  13.457  27.929  0.00  0.00     0.163 HD
BRANCH  10  13
ATOM     13  C6  non d ame     -34.870  15.872  26.854  0.00  0.00     0.086 C 
ATOM     14  H6  non d ame     -34.978  16.327  25.870  0.00  0.00     0.086 H 
BRANCH  13  15
ATOM     15  N2  non d ame     -35.834  14.786  26.918  0.00  0.00    -0.343 N 
ATOM     16  C5  non d ame     -36.327  14.185  25.677  0.00  0.00     0.273 C 
ATOM     17  O2  non d ame     -35.944  14.584  24.632  0.00  0.00    -0.266 OA
ATOM     18  H5  non d ame     -36.158  14.453  27.815  0.00  0.00     0.163 HD
BRANCH  16  19
ATOM     19  C4  non d ame     -37.345  13.035  25.729  0.00  0.00     0.154 A 
ATOM     20  C1  non d ame     -37.594  12.150  26.825  0.00  0.00    -0.017 A 
ATOM     21  C2  non d ame     -38.613  11.284  26.369  0.00  0.00     0.077 A 
ATOM     22  H1  non d ame     -37.110  12.138  27.802  0.00  0.00     0.091 H 
ATOM     23  O1  non d ame     -38.908  11.640  25.153  0.00  0.00    -0.218 OA
ATOM     24  N1  non d ame     -38.181  12.659  24.758  0.00  0.00    -0.123 NA
BRANCH  21  25
ATOM     25  C3  non d ame     -39.249  10.146  27.156  0.00  0.00    -0.029 C 
ATOM     26  H2  non d ame     -39.834   9.521  26.483  0.00  0.00     0.036 H 
ATOM     27  H3  non d ame     -38.467   9.544  27.620  0.00  0.00     0.036 H 
ATOM     28  H4  non d ame     -39.898  10.556  27.929  0.00  0.00     0.036 H 
ENDBRANCH  21  25
ENDBRANCH  16  19
ENDBRANCH  13  15
BRANCH  13  29
ATOM     29  C8  non d ame     -35.186  16.905  27.906  0.00  0.00    -0.049 C 
ATOM     30  H7  non d ame     -34.292  17.489  28.122  0.00  0.00     0.030 H 
ATOM     31  H8  non d ame     -35.972  17.566  27.542  0.00  0.00     0.030 H 
ATOM     32  H9  non d ame     -35.523  16.406  28.816  0.00  0.00     0.030 H 
ENDBRANCH  13  29
ENDBRANCH  10  13
ENDBRANCH   7   9
BRANCH   7  33
ATOM     33  C11 non d ame     -31.645  13.458  29.448  0.00  0.00    -0.033 C 
ATOM     34  H12 non d ame     -32.587  13.299  29.971  0.00  0.00     0.042 H 
BRANCH  33  35
ATOM     35  C12 non d ame     -30.684  12.296  29.848  0.00  0.00    -0.071 C 
ATOM     36  H13 non d ame     -29.874  12.227  29.121  0.00  0.00     0.028 H 
ATOM     37  H14 non d ame     -30.270  12.490  30.837  0.00  0.00     0.028 H 
ATOM     38  H15 non d ame     -31.237  11.356  29.863  0.00  0.00     0.028 H 
ENDBRANCH  33  35
BRANCH  33  39
ATOM     39  C13 non d ame     -31.074  14.843  29.890  0.00  0.00    -0.071 C 
ATOM     40  H16 non d ame     -30.098  14.998  29.431  0.00  0.00     0.028 H 
ATOM     41  H17 non d ame     -31.754  15.635  29.575  0.00  0.00     0.028 H 
ATOM     42  H18 non d ame     -30.972  14.865  30.975  0.00  0.00     0.028 H 
ENDBRANCH  33  39
ENDBRANCH   7  33
ENDBRANCH   4   7
ENDBRANCH   1   3
BRANCH   1  43
ATOM     43  C15 non d ame     -33.603   9.577  26.042  0.00  0.00     0.240 C 
ATOM     44  O5  non d ame     -34.503  10.321  25.826  0.00  0.00    -0.271 OA
ATOM     45  N6  non d ame     -33.193   8.589  25.004  0.00  0.00    -0.355 N 
ATOM     46  H46 non d ame     -32.426   7.953  25.174  0.00  0.00     0.162 HD
BRANCH  45  47
ATOM     47  C20 non d ame     -33.917   8.537  23.715  0.00  0.00     0.013 C 
ATOM     48  H30 non d ame     -34.683   9.313  23.730  0.00  0.00     0.072 H 
BRANCH  47  49
ATOM     49  C21 non d ame     -34.560   7.178  23.557  0.00  0.00    -0.038 C 
ATOM     50  H31 non d ame     -35.627   7.369  23.442  0.00  0.00     0.036 H 
ATOM     51  H32 non d ame     -34.006   6.682  22.759  0.00  0.00     0.036 H 
BRANCH  49  52
ATOM     52  C22 non d ame     -34.406   6.292  24.812  0.00  0.00     0.018 C 
ATOM     53  H33 non d ame     -33.509   5.698  24.646  0.00  0.00     0.048 H 
ATOM     54  H34 non d ame     -34.460   6.973  25.662  0.00  0.00     0.048 H 
BRANCH  52  55
ATOM     55  C23 non d ame     -35.564   5.274  25.005  0.00  0.00     0.259 C 
ATOM     56  O7  non d ame     -36.281   4.997  24.098  0.00  0.00    -0.265 OA
BRANCH  55  57
ATOM     57  O8  non d ame     -35.769   4.686  26.285  0.00  0.00    -0.317 OA
BRANCH  57  58
ATOM     58  C29 non d ame     -36.786   5.323  27.063  0.00  0.00     0.052 C 
ATOM     59  H47 non d ame     -36.892   6.325  26.647  0.00  0.00     0.082 H 
ATOM     60  H48 non d ame     -37.633   4.639  27.060  0.00  0.00     0.082 H 
BRANCH  58  61
ATOM     61  C35 non d ame     -36.264   5.450  28.520  0.00  0.00    -0.034 A 
ATOM     62  C30 non d ame     -34.909   5.284  28.790  0.00  0.00    -0.075 A 
ATOM     63  C31 non d ame     -34.441   5.397  30.099  0.00  0.00    -0.082 A 
ATOM     64  H49 non d ame     -34.215   5.065  27.979  0.00  0.00     0.084 H 
ATOM     65  C32 non d ame     -35.332   5.675  31.138  0.00  0.00    -0.083 A 
ATOM     66  H50 non d ame     -33.378   5.268  30.308  0.00  0.00     0.083 H 
ATOM     67  C33 non d ame     -36.683   5.836  30.863  0.00  0.00    -0.082 A 
ATOM     68  H51 non d ame     -34.974   5.766  32.164  0.00  0.00     0.083 H 
ATOM     69  C34 non d ame     -37.156   5.726  29.557  0.00  0.00    -0.075 A 
ATOM     70  H52 non d ame     -37.377   6.051  31.677  0.00  0.00     0.083 H 
ATOM     71  H53 non d ame     -38.218   5.855  29.349  0.00  0.00     0.084 H 
ENDBRANCH  58  61
ENDBRANCH  57  58
ENDBRANCH  55  57
ENDBRANCH  52  55
ENDBRANCH  49  52
ENDBRANCH  47  49
BRANCH  47  72
ATOM     72  C24 non d ame     -32.941   8.778  22.565  0.00  0.00    -0.039 C 
ATOM     73  H35 non d ame     -33.075   7.932  21.890  0.00  0.00     0.036 H 
ATOM     74  H36 non d ame     -33.146   9.790  22.218  0.00  0.00     0.036 H 
BRANCH  72  75
ATOM     75  C25 non d ame     -31.419   8.748  23.063  0.00  0.00    -0.001 C 
ATOM     76  C26 non d ame     -30.806  10.273  23.081  0.00  0.00    -0.035 C 
ATOM     77  C27 non d ame     -29.634  10.281  22.402  0.00  0.00     0.085 C 
ATOM     78  H38 non d ame     -31.442  10.939  22.499  0.00  0.00     0.036 H 
ATOM     79  H39 non d ame     -30.514  10.548  24.095  0.00  0.00     0.036 H 
ATOM     80  N5  non d ame     -29.554   8.977  21.645  0.00  0.00    -0.049 N 
ATOM     81  H40 non d ame     -29.716  11.102  21.689  0.00  0.00     0.075 H 
ATOM     82  H41 non d ame     -28.856  10.298  23.164  0.00  0.00     0.075 H 
ATOM     83  C28 non d ame     -30.687   8.022  22.286  0.00  0.00     0.193 C 
ATOM     84  H42 non d ame     -29.810   9.184  20.691  0.00  0.00     0.280 HD
ATOM     85  H43 non d ame     -28.647   8.583  21.851  0.00  0.00     0.280 HD
ATOM     86  H44 non d ame     -30.411   7.218  22.968  0.00  0.00     0.129 H 
ATOM     87  H37 non d ame     -31.292   8.152  23.967  0.00  0.00     0.046 H 
BRANCH  83  88
ATOM     88  O6  non d ame     -31.452   7.401  21.251  0.00  0.00    -0.369 OA
ATOM     89  H45 non d ame     -32.368   7.680  21.318  0.00  0.00     0.212 HD
ENDBRANCH  83  88
ENDBRANCH  72  75
ENDBRANCH  47  72
ENDBRANCH  45  47
ENDBRANCH   1  43
BRANCH   1  90
ATOM     90  C16 non d ame     -33.539   8.738  28.412  0.00  0.00    -0.035 C 
ATOM     91  H21 non d ame     -34.091   8.012  27.818  0.00  0.00     0.037 H 
ATOM     92  H22 non d ame     -32.748   8.405  29.085  0.00  0.00     0.037 H 
BRANCH  90  93
ATOM     93  C17 non d ame     -34.593   9.474  29.299  0.00  0.00    -0.059 C 
ATOM     94  H23 non d ame     -34.444  10.546  29.169  0.00  0.00     0.038 H 
BRANCH  93  95
ATOM     95  C18 non d ame     -36.058   9.143  28.870  0.00  0.00    -0.073 C 
ATOM     96  H24 non d ame     -36.756   9.612  29.564  0.00  0.00     0.028 H 
ATOM     97  H25 non d ame     -36.237   9.525  27.864  0.00  0.00     0.028 H 
ATOM     98  H26 non d ame     -36.205   8.064  28.880  0.00  0.00     0.028 H 
ENDBRANCH  93  95
BRANCH  93  99
ATOM     99  C19 non d ame     -34.376   9.160  30.781  0.00  0.00    -0.073 C 
ATOM    100  H27 non d ame     -33.976  10.041  31.284  0.00  0.00     0.028 H 
ATOM    101  H28 non d ame     -35.327   8.883  31.238  0.00  0.00     0.028 H 
ATOM    102  H29 non d ame     -33.672   8.335  30.878  0.00  0.00     0.028 H 
ENDBRANCH  93  99
ENDBRANCH  90  93
ENDBRANCH   1  90
TORSDOF 26
ENDMDL
MODEL 20
REMARK VINA RESULT:      -5.9      2.909      7.798
REMARK  26 active torsions:
REMARK  status: ('A' for Active; 'I' for Inactive)
REMARK    1  A    between atoms: C2_2  and  C3_3 
REMARK    2  A    between atoms: C4_6  and  C5_7 
REMARK       I    between atoms: C5_7  and  N2_9 
REMARK    3  A    between atoms: N2_9  and  C6_10 
REMARK    4  A    between atoms: C6_10  and  C7_11 
REMARK    5  A    between atoms: C6_10  and  C8_13 
REMARK       I    between atoms: C7_11  and  N3_14 
REMARK    6  A    between atoms: N3_14  and  C9_15 
REMARK    7  A    between atoms: C9_15  and  C10_16 
REMARK    8  A    between atoms: C9_15  and  C11_18 
REMARK       I    between atoms: C10_16  and  N4_21 
REMARK    9  A    between atoms: C11_18  and  C12_19 
REMARK   10  A    between atoms: C11_18  and  C13_20 
REMARK   11  A    between atoms: N4_21  and  C14_22 
REMARK   12  A    between atoms: C14_22  and  C15_23 
REMARK   13  A    between atoms: C14_22  and  C16_25 
REMARK       I    between atoms: C15_23  and  N6_40 
REMARK   14  A    between atoms: C16_25  and  C17_26 
REMARK   15  A    between atoms: C17_26  and  C18_27 
REMARK   16  A    between atoms: C17_26  and  C19_28 
REMARK   17  A    between atoms: C20_29  and  C21_30 
REMARK   18  A    between atoms: C20_29  and  C24_33 
REMARK   19  A    between atoms: C20_29  and  N6_40 
REMARK   20  A    between atoms: C21_30  and  C22_31 
REMARK   21  A    between atoms: C22_31  and  C23_32 
REMARK   22  A    between atoms: C23_32  and  O8_43 
REMARK   23  A    between atoms: C24_33  and  C25_34 
REMARK   24  A    between atoms: C28_38  and  O6_39 
REMARK   25  A    between atoms: C29_42  and  O8_43 
REMARK   26  A    between atoms: C29_42  and  C35_49 
ROOT
ATOM      1  C14 non d ame     -34.092   5.938  26.525  0.00  0.00     0.089 C 
ATOM      2  H20 non d ame     -33.741   4.935  26.767  0.00  0.00     0.087 H 
ENDROOT
BRANCH   1   3
ATOM      3  N4  non d ame     -34.729   6.480  27.716  0.00  0.00    -0.346 N 
ATOM      4  C10 non d ame     -34.786   5.669  28.985  0.00  0.00     0.241 C 
ATOM      5  O4  non d ame     -34.314   4.580  29.024  0.00  0.00    -0.271 OA
ATOM      6  H19 non d ame     -35.128   7.407  27.661  0.00  0.00     0.163 HD
BRANCH   4   7
ATOM      7  C9  non d ame     -35.446   6.247  30.210  0.00  0.00     0.092 C 
ATOM      8  H11 non d ame     -34.857   5.989  31.090  0.00  0.00     0.088 H 
BRANCH   7   9
ATOM      9  N3  non d ame     -35.462   7.710  30.113  0.00  0.00    -0.346 N 
ATOM     10  C7  non d ame     -34.920   8.509  31.183  0.00  0.00     0.240 C 
ATOM     11  O3  non d ame     -34.467   7.992  32.131  0.00  0.00    -0.271 OA
ATOM     12  H10 non d ame     -35.850   8.169  29.302  0.00  0.00     0.163 HD
BRANCH  10  13
ATOM     13  C6  non d ame     -34.942  10.065  31.076  0.00  0.00     0.086 C 
ATOM     14  H6  non d ame     -34.015  10.474  30.675  0.00  0.00     0.086 H 
BRANCH  13  15
ATOM     15  N2  non d ame     -36.000  10.460  30.160  0.00  0.00    -0.343 N 
ATOM     16  C5  non d ame     -35.708  10.584  28.731  0.00  0.00     0.273 C 
ATOM     17  O2  non d ame     -34.618  10.367  28.327  0.00  0.00    -0.266 OA
ATOM     18  H5  non d ame     -36.928  10.646  30.514  0.00  0.00     0.163 HD
BRANCH  16  19
ATOM     19  C4  non d ame     -36.817  10.999  27.752  0.00  0.00     0.154 A 
ATOM     20  C1  non d ame     -36.937  10.632  26.374  0.00  0.00    -0.017 A 
ATOM     21  C2  non d ame     -38.117  11.268  25.930  0.00  0.00     0.077 A 
ATOM     22  H1  non d ame     -36.270  10.001  25.787  0.00  0.00     0.091 H 
ATOM     23  O1  non d ame     -38.611  11.920  26.941  0.00  0.00    -0.218 OA
ATOM     24  N1  non d ame     -37.870  11.778  28.016  0.00  0.00    -0.123 NA
BRANCH  21  25
ATOM     25  C3  non d ame     -38.704  11.201  24.526  0.00  0.00    -0.029 C 
ATOM     26  H2  non d ame     -37.958  10.805  23.839  0.00  0.00     0.036 H 
ATOM     27  H3  non d ame     -39.577  10.548  24.528  0.00  0.00     0.036 H 
ATOM     28  H4  non d ame     -38.999  12.200  24.207  0.00  0.00     0.036 H 
ENDBRANCH  21  25
ENDBRANCH  16  19
ENDBRANCH  13  15
BRANCH  13  29
ATOM     29  C8  non d ame     -35.188  10.662  32.438  0.00  0.00    -0.049 C 
ATOM     30  H7  non d ame     -35.584  11.671  32.327  0.00  0.00     0.030 H 
ATOM     31  H8  non d ame     -35.908  10.049  32.979  0.00  0.00     0.030 H 
ATOM     32  H9  non d ame     -34.250  10.699  32.993  0.00  0.00     0.030 H 
ENDBRANCH  13  29
ENDBRANCH  10  13
ENDBRANCH   7   9
BRANCH   7  33
ATOM     33  C11 non d ame     -36.908   5.721  30.308  0.00  0.00    -0.033 C 
ATOM     34  H12 non d ame     -36.881   4.775  30.849  0.00  0.00     0.042 H 
BRANCH  33  35
ATOM     35  C12 non d ame     -37.810   6.700  31.121  0.00  0.00    -0.071 C 
ATOM     36  H13 non d ame     -37.211   7.197  31.885  0.00  0.00     0.028 H 
ATOM     37  H14 non d ame     -38.234   7.446  30.450  0.00  0.00     0.028 H 
ATOM     38  H15 non d ame     -38.615   6.142  31.600  0.00  0.00     0.028 H 
ENDBRANCH  33  35
BRANCH  33  39
ATOM     39  C13 non d ame     -37.501   5.449  28.889  0.00  0.00    -0.071 C 
ATOM     40  H16 non d ame     -38.566   5.682  28.889  0.00  0.00     0.028 H 
ATOM     41  H17 non d ame     -36.992   6.075  28.156  0.00  0.00     0.028 H 
ATOM     42  H18 non d ame     -37.359   4.400  28.630  0.00  0.00     0.028 H 
ENDBRANCH  33  39
ENDBRANCH   7  33
ENDBRANCH   4   7
ENDBRANCH   1   3
BRANCH   1  43
ATOM     43  C15 non d ame     -32.927   6.884  26.113  0.00  0.00     0.240 C 
ATOM     44  O5  non d ame     -31.811   6.613  26.417  0.00  0.00    -0.271 OA
ATOM     45  N6  non d ame     -33.202   8.122  25.330  0.00  0.00    -0.355 N 
ATOM     46  H46 non d ame     -34.146   8.361  25.062  0.00  0.00     0.162 HD
BRANCH  45  47
ATOM     47  C20 non d ame     -32.083   9.010  24.946  0.00  0.00     0.013 C 
ATOM     48  H30 non d ame     -31.165   8.422  24.975  0.00  0.00     0.072 H 
BRANCH  47  49
ATOM     49  C21 non d ame     -31.995  10.157  25.927  0.00  0.00    -0.038 C 
ATOM     50  H31 non d ame     -32.467   9.799  26.842  0.00  0.00     0.036 H 
ATOM     51  H32 non d ame     -30.946  10.456  25.936  0.00  0.00     0.036 H 
BRANCH  49  52
ATOM     52  C22 non d ame     -32.798  11.395  25.475  0.00  0.00     0.018 C 
ATOM     53  H33 non d ame     -33.102  11.191  24.449  0.00  0.00     0.048 H 
ATOM     54  H34 non d ame     -33.552  11.555  26.246  0.00  0.00     0.048 H 
BRANCH  52  55
ATOM     55  C23 non d ame     -31.958  12.701  25.421  0.00  0.00     0.259 C 
ATOM     56  O7  non d ame     -31.038  12.796  24.675  0.00  0.00    -0.265 OA
BRANCH  55  57
ATOM     57  O8  non d ame     -32.292  13.781  26.285  0.00  0.00    -0.317 OA
BRANCH  57  58
ATOM     58  C29 non d ame     -31.232  14.176  27.161  0.00  0.00     0.052 C 
ATOM     59  H47 non d ame     -30.314  13.825  26.690  0.00  0.00     0.082 H 
ATOM     60  H48 non d ame     -31.380  15.239  27.344  0.00  0.00     0.082 H 
BRANCH  58  61
ATOM     61  C35 non d ame     -31.415  13.419  28.504  0.00  0.00    -0.034 A 
ATOM     62  C30 non d ame     -30.314  12.852  29.139  0.00  0.00    -0.075 A 
ATOM     63  C31 non d ame     -30.478  12.171  30.345  0.00  0.00    -0.082 A 
ATOM     64  H49 non d ame     -29.324  12.939  28.692  0.00  0.00     0.084 H 
ATOM     65  C32 non d ame     -31.748  12.057  30.915  0.00  0.00    -0.083 A 
ATOM     66  H50 non d ame     -29.612  11.729  30.841  0.00  0.00     0.083 H 
ATOM     67  C33 non d ame     -32.844  12.621  30.276  0.00  0.00    -0.082 A 
ATOM     68  H51 non d ame     -31.885  11.527  31.858  0.00  0.00     0.083 H 
ATOM     69  C34 non d ame     -32.685  13.303  29.072  0.00  0.00    -0.075 A 
ATOM     70  H52 non d ame     -33.835  12.528  30.722  0.00  0.00     0.083 H 
ATOM     71  H53 non d ame     -33.550  13.745  28.576  0.00  0.00     0.084 H 
ENDBRANCH  58  61
ENDBRANCH  57  58
ENDBRANCH  55  57
ENDBRANCH  52  55
ENDBRANCH  49  52
ENDBRANCH  47  49
BRANCH  47  72
ATOM     72  C24 non d ame     -32.318   9.557  23.540  0.00  0.00    -0.039 C 
ATOM     73  H35 non d ame     -33.355   9.314  23.304  0.00  0.00     0.036 H 
ATOM     74  H36 non d ame     -31.998  10.598  23.577  0.00  0.00     0.036 H 
BRANCH  72  75
ATOM     75  C25 non d ame     -31.400   8.818  22.455  0.00  0.00    -0.001 C 
ATOM     76  C26 non d ame     -30.942   7.344  23.020  0.00  0.00    -0.035 C 
ATOM     77  C27 non d ame     -29.597   7.230  22.903  0.00  0.00     0.085 C 
ATOM     78  H38 non d ame     -31.110   7.287  24.095  0.00  0.00     0.036 H 
ATOM     79  H39 non d ame     -31.322   6.558  22.367  0.00  0.00     0.036 H 
ATOM     80  N5  non d ame     -29.061   8.612  22.615  0.00  0.00    -0.049 N 
ATOM     81  H40 non d ame     -29.246   6.909  23.884  0.00  0.00     0.075 H 
ATOM     82  H41 non d ame     -29.434   6.597  22.032  0.00  0.00     0.075 H 
ATOM     83  C28 non d ame     -30.338   9.505  22.196  0.00  0.00     0.193 C 
ATOM     84  H42 non d ame     -28.695   8.964  23.488  0.00  0.00     0.280 HD
ATOM     85  H43 non d ame     -28.454   8.520  21.813  0.00  0.00     0.280 HD
ATOM     86  H44 non d ame     -30.517   9.758  21.150  0.00  0.00     0.129 H 
ATOM     87  H37 non d ame     -31.833   8.853  21.456  0.00  0.00     0.046 H 
BRANCH  83  88
ATOM     88  O6  non d ame     -30.319  10.752  22.893  0.00  0.00    -0.369 OA
ATOM     89  H45 non d ame     -30.284  10.589  23.839  0.00  0.00     0.212 HD
ENDBRANCH  83  88
ENDBRANCH  72  75
ENDBRANCH  47  72
ENDBRANCH  45  47
ENDBRANCH   1  43
BRANCH   1  90
ATOM     90  C16 non d ame     -35.115   5.869  25.402  0.00  0.00    -0.035 C 
ATOM     91  H21 non d ame     -35.913   5.230  25.778  0.00  0.00     0.037 H 
ATOM     92  H22 non d ame     -35.324   6.905  25.138  0.00  0.00     0.037 H 
BRANCH  90  93
ATOM     93  C17 non d ame     -34.575   5.183  24.106  0.00  0.00    -0.059 C 
ATOM     94  H23 non d ame     -33.487   5.186  24.160  0.00  0.00     0.038 H 
BRANCH  93  95
ATOM     95  C18 non d ame     -35.041   3.697  23.988  0.00  0.00    -0.073 C 
ATOM     96  H24 non d ame     -34.872   3.341  22.972  0.00  0.00     0.028 H 
ATOM     97  H25 non d ame     -34.473   3.081  24.686  0.00  0.00     0.028 H 
ATOM     98  H26 non d ame     -36.103   3.628  24.225  0.00  0.00     0.028 H 
ENDBRANCH  93  95
BRANCH  93  99
ATOM     99  C19 non d ame     -34.973   5.978  22.860  0.00  0.00    -0.073 C 
ATOM    100  H27 non d ame     -34.740   5.396  21.968  0.00  0.00     0.028 H 
ATOM    101  H28 non d ame     -36.043   6.187  22.887  0.00  0.00     0.028 H 
ATOM    102  H29 non d ame     -34.420   6.917  22.836  0.00  0.00     0.028 H 
ENDBRANCH  93  99
ENDBRANCH  90  93
ENDBRANCH   1  90
TORSDOF 26
ENDMDL
