MODEL 1
REMARK VINA RESULT:      -6.5      0.000      0.000
REMARK  26 active torsions:
REMARK  status: ('A' for Active; 'I' for Inactive)
REMARK    1  A    between atoms: C2_2  and  C3_3 
REMARK    2  A    between atoms: C4_6  and  C5_7 
REMARK       I    between atoms: C5_7  and  N2_9 
REMARK    3  A    between atoms: N2_9  and  C6_10 
REMARK    4  A    between atoms: C6_10  and  C7_11 
REMARK    5  A    between atoms: C6_10  and  C8_13 
REMARK       I    between atoms: C7_11  and  N3_14 
REMARK    6  A    between atoms: N3_14  and  C9_15 
REMARK    7  A    between atoms: C9_15  and  C10_16 
REMARK    8  A    between atoms: C9_15  and  C11_18 
REMARK       I    between atoms: C10_16  and  N4_21 
REMARK    9  A    between atoms: C11_18  and  C12_19 
REMARK   10  A    between atoms: C11_18  and  C13_20 
REMARK   11  A    between atoms: N4_21  and  C14_22 
REMARK   12  A    between atoms: C14_22  and  C15_23 
REMARK   13  A    between atoms: C14_22  and  C16_25 
REMARK       I    between atoms: C15_23  and  N6_40 
REMARK   14  A    between atoms: C16_25  and  C17_26 
REMARK   15  A    between atoms: C17_26  and  C18_27 
REMARK   16  A    between atoms: C17_26  and  C19_28 
REMARK   17  A    between atoms: C20_29  and  C21_30 
REMARK   18  A    between atoms: C20_29  and  C24_33 
REMARK   19  A    between atoms: C20_29  and  N6_40 
REMARK   20  A    between atoms: C21_30  and  C22_31 
REMARK   21  A    between atoms: C22_31  and  C23_32 
REMARK   22  A    between atoms: C23_32  and  O8_43 
REMARK   23  A    between atoms: C24_33  and  C25_34 
REMARK   24  A    between atoms: C28_38  and  O6_39 
REMARK   25  A    between atoms: C29_42  and  O8_43 
REMARK   26  A    between atoms: C29_42  and  C35_49 
ROOT
ATOM      1  C14 non d ame     -36.912  16.014  26.284  0.00  0.00     0.089 C 
ATOM      2  H20 non d ame     -37.456  16.377  27.157  0.00  0.00     0.087 H 
ENDROOT
BRANCH   1   3
ATOM      3  N4  non d ame     -35.501  16.297  26.497  0.00  0.00    -0.346 N 
ATOM      4  C10 non d ame     -35.045  16.994  27.753  0.00  0.00     0.241 C 
ATOM      5  O4  non d ame     -35.833  17.322  28.578  0.00  0.00    -0.271 OA
ATOM      6  H19 non d ame     -34.847  16.013  25.781  0.00  0.00     0.163 HD
BRANCH   4   7
ATOM      7  C9  non d ame     -33.579  17.275  27.959  0.00  0.00     0.092 C 
ATOM      8  H11 non d ame     -33.457  17.916  28.832  0.00  0.00     0.088 H 
BRANCH   7   9
ATOM      9  N3  non d ame     -32.876  16.019  28.241  0.00  0.00    -0.346 N 
ATOM     10  C7  non d ame     -31.964  15.939  29.355  0.00  0.00     0.240 C 
ATOM     11  O3  non d ame     -31.784  16.875  30.035  0.00  0.00    -0.271 OA
ATOM     12  H10 non d ame     -33.021  15.205  27.663  0.00  0.00     0.163 HD
BRANCH  10  13
ATOM     13  C6  non d ame     -31.216  14.602  29.649  0.00  0.00     0.086 C 
ATOM     14  H6  non d ame     -30.640  14.635  30.573  0.00  0.00     0.086 H 
BRANCH  13  15
ATOM     15  N2  non d ame     -32.195  13.539  29.806  0.00  0.00    -0.343 N 
ATOM     16  C5  non d ame     -31.851  12.353  30.594  0.00  0.00     0.273 C 
ATOM     17  O2  non d ame     -30.784  12.262  31.095  0.00  0.00    -0.266 OA
ATOM     18  H5  non d ame     -33.103  13.623  29.373  0.00  0.00     0.163 HD
BRANCH  16  19
ATOM     19  C4  non d ame     -32.877  11.222  30.770  0.00  0.00     0.154 A 
ATOM     20  C1  non d ame     -33.192  10.188  29.832  0.00  0.00    -0.017 A 
ATOM     21  C2  non d ame     -34.188   9.413  30.468  0.00  0.00     0.077 A 
ATOM     22  H1  non d ame     -32.764  10.025  28.843  0.00  0.00     0.091 H 
ATOM     23  O1  non d ame     -34.409   9.946  31.633  0.00  0.00    -0.218 OA
ATOM     24  N1  non d ame     -33.656  11.004  31.832  0.00  0.00    -0.123 NA
BRANCH  21  25
ATOM     25  C3  non d ame     -34.873   8.180  29.896  0.00  0.00    -0.029 C 
ATOM     26  H2  non d ame     -35.870   8.085  30.325  0.00  0.00     0.036 H 
ATOM     27  H3  non d ame     -34.953   8.278  28.813  0.00  0.00     0.036 H 
ATOM     28  H4  non d ame     -34.288   7.293  30.137  0.00  0.00     0.036 H 
ENDBRANCH  21  25
ENDBRANCH  16  19
ENDBRANCH  13  15
BRANCH  13  29
ATOM     29  C8  non d ame     -30.285  14.283  28.507  0.00  0.00    -0.049 C 
ATOM     30  H7  non d ame     -29.951  15.208  28.040  0.00  0.00     0.030 H 
ATOM     31  H8  non d ame     -29.422  13.734  28.884  0.00  0.00     0.030 H 
ATOM     32  H9  non d ame     -30.810  13.673  27.770  0.00  0.00     0.030 H 
ENDBRANCH  13  29
ENDBRANCH  10  13
ENDBRANCH   7   9
BRANCH   7  33
ATOM     33  C11 non d ame     -32.988  17.918  26.670  0.00  0.00    -0.033 C 
ATOM     34  H12 non d ame     -33.822  18.161  26.012  0.00  0.00     0.042 H 
BRANCH  33  35
ATOM     35  C12 non d ame     -32.242  19.250  26.992  0.00  0.00    -0.071 C 
ATOM     36  H13 non d ame     -32.905  20.094  26.801  0.00  0.00     0.028 H 
ATOM     37  H14 non d ame     -31.941  19.255  28.040  0.00  0.00     0.028 H 
ATOM     38  H15 non d ame     -31.358  19.334  26.360  0.00  0.00     0.028 H 
ENDBRANCH  33  35
BRANCH  33  39
ATOM     39  C13 non d ame     -32.057  16.914  25.920  0.00  0.00    -0.071 C 
ATOM     40  H16 non d ame     -31.132  17.417  25.637  0.00  0.00     0.028 H 
ATOM     41  H17 non d ame     -31.829  16.071  26.574  0.00  0.00     0.028 H 
ATOM     42  H18 non d ame     -32.561  16.550  25.025  0.00  0.00     0.028 H 
ENDBRANCH  33  39
ENDBRANCH   7  33
ENDBRANCH   4   7
ENDBRANCH   1   3
BRANCH   1  43
ATOM     43  C15 non d ame     -37.086  14.481  26.080  0.00  0.00     0.240 C 
ATOM     44  O5  non d ame     -37.742  14.075  25.177  0.00  0.00    -0.271 OA
ATOM     45  N6  non d ame     -36.424  13.518  27.006  0.00  0.00    -0.355 N 
ATOM     46  H46 non d ame     -35.859  13.851  27.775  0.00  0.00     0.162 HD
BRANCH  45  47
ATOM     47  C20 non d ame     -36.598  12.065  26.798  0.00  0.00     0.013 C 
ATOM     48  H30 non d ame     -36.801  11.900  25.740  0.00  0.00     0.072 H 
BRANCH  47  49
ATOM     49  C21 non d ame     -37.761  11.576  27.631  0.00  0.00    -0.038 C 
ATOM     50  H31 non d ame     -38.174  12.464  28.110  0.00  0.00     0.036 H 
ATOM     51  H32 non d ame     -38.378  10.984  26.955  0.00  0.00     0.036 H 
BRANCH  49  52
ATOM     52  C22 non d ame     -37.326  10.627  28.769  0.00  0.00     0.018 C 
ATOM     53  H33 non d ame     -37.488   9.619  28.391  0.00  0.00     0.048 H 
ATOM     54  H34 non d ame     -36.324  10.949  29.054  0.00  0.00     0.048 H 
BRANCH  52  55
ATOM     55  C23 non d ame     -38.195  10.749  30.052  0.00  0.00     0.259 C 
ATOM     56  O7  non d ame     -39.043  11.579  30.129  0.00  0.00    -0.265 OA
BRANCH  55  57
ATOM     57  O8  non d ame     -37.958   9.865  31.141  0.00  0.00    -0.317 OA
BRANCH  57  58
ATOM     58  C29 non d ame     -38.987   8.890  31.335  0.00  0.00     0.052 C 
ATOM     59  H47 non d ame     -38.985   8.668  32.402  0.00  0.00     0.082 H 
ATOM     60  H48 non d ame     -39.879   9.304  30.866  0.00  0.00     0.082 H 
BRANCH  58  61
ATOM     61  C35 non d ame     -38.581   7.605  30.565  0.00  0.00    -0.034 A 
ATOM     62  C30 non d ame     -39.033   7.401  29.265  0.00  0.00    -0.075 A 
ATOM     63  C31 non d ame     -38.668   6.246  28.573  0.00  0.00    -0.082 A 
ATOM     64  H49 non d ame     -39.673   8.143  28.788  0.00  0.00     0.084 H 
ATOM     65  C32 non d ame     -37.849   5.294  29.186  0.00  0.00    -0.083 A 
ATOM     66  H50 non d ame     -39.022   6.089  27.553  0.00  0.00     0.083 H 
ATOM     67  C33 non d ame     -37.405   5.501  30.485  0.00  0.00    -0.082 A 
ATOM     68  H51 non d ame     -37.559   4.389  28.652  0.00  0.00     0.083 H 
ATOM     69  C34 non d ame     -37.765   6.654  31.179  0.00  0.00    -0.075 A 
ATOM     70  H52 non d ame     -36.768   4.754  30.962  0.00  0.00     0.083 H 
ATOM     71  H53 non d ame     -37.410   6.810  32.198  0.00  0.00     0.084 H 
ENDBRANCH  58  61
ENDBRANCH  57  58
ENDBRANCH  55  57
ENDBRANCH  52  55
ENDBRANCH  49  52
ENDBRANCH  47  49
BRANCH  47  72
ATOM     72  C24 non d ame     -35.326  11.328  27.215  0.00  0.00    -0.039 C 
ATOM     73  H35 non d ame     -34.918  11.903  28.047  0.00  0.00     0.036 H 
ATOM     74  H36 non d ame     -35.627  10.291  27.364  0.00  0.00     0.036 H 
BRANCH  72  75
ATOM     75  C25 non d ame     -34.227  11.338  26.050  0.00  0.00    -0.001 C 
ATOM     76  C26 non d ame     -33.495   9.869  25.958  0.00  0.00    -0.035 C 
ATOM     77  C27 non d ame     -32.152  10.047  25.986  0.00  0.00     0.085 C 
ATOM     78  H38 non d ame     -33.695   9.294  26.862  0.00  0.00     0.036 H 
ATOM     79  H39 non d ame     -33.672   9.423  24.979  0.00  0.00     0.036 H 
ATOM     80  N5  non d ame     -31.905  11.473  26.418  0.00  0.00    -0.049 N 
ATOM     81  H40 non d ame     -31.785   9.372  26.760  0.00  0.00     0.075 H 
ATOM     82  H41 non d ame     -31.821   9.925  24.956  0.00  0.00     0.075 H 
ATOM     83  C28 non d ame     -33.322  12.233  26.270  0.00  0.00     0.193 C 
ATOM     84  H42 non d ame     -31.661  11.437  27.397  0.00  0.00     0.280 HD
ATOM     85  H43 non d ame     -31.258  11.864  25.749  0.00  0.00     0.280 HD
ATOM     86  H44 non d ame     -33.502  12.907  25.432  0.00  0.00     0.129 H 
ATOM     87  H37 non d ame     -34.612  11.759  25.122  0.00  0.00     0.046 H 
BRANCH  83  88
ATOM     88  O6  non d ame     -33.595  12.999  27.444  0.00  0.00    -0.369 OA
ATOM     89  H45 non d ame     -34.528  12.931  27.661  0.00  0.00     0.212 HD
ENDBRANCH  83  88
ENDBRANCH  72  75
ENDBRANCH  47  72
ENDBRANCH  45  47
ENDBRANCH   1  43
BRANCH   1  90
ATOM     90  C16 non d ame     -37.385  16.751  25.041  0.00  0.00    -0.035 C 
ATOM     91  H21 non d ame     -36.484  17.164  24.591  0.00  0.00     0.037 H 
ATOM     92  H22 non d ame     -37.989  16.030  24.490  0.00  0.00     0.037 H 
BRANCH  90  93
ATOM     93  C17 non d ame     -38.319  17.965  25.350  0.00  0.00    -0.059 C 
ATOM     94  H23 non d ame     -39.107  17.974  24.597  0.00  0.00     0.038 H 
BRANCH  93  95
ATOM     95  C18 non d ame     -38.999  17.843  26.750  0.00  0.00    -0.073 C 
ATOM     96  H24 non d ame     -38.333  17.319  27.435  0.00  0.00     0.028 H 
ATOM     97  H25 non d ame     -39.208  18.839  27.140  0.00  0.00     0.028 H 
ATOM     98  H26 non d ame     -39.932  17.287  26.654  0.00  0.00     0.028 H 
ENDBRANCH  93  95
BRANCH  93  99
ATOM     99  C19 non d ame     -37.556  19.287  25.228  0.00  0.00    -0.073 C 
ATOM    100  H27 non d ame     -36.674  19.141  24.603  0.00  0.00     0.028 H 
ATOM    101  H28 non d ame     -38.201  20.039  24.774  0.00  0.00     0.028 H 
ATOM    102  H29 non d ame     -37.249  19.621  26.218  0.00  0.00     0.028 H 
ENDBRANCH  93  99
ENDBRANCH  90  93
ENDBRANCH   1  90
TORSDOF 26
ENDMDL
MODEL 2
REMARK VINA RESULT:      -6.5      2.854      4.864
REMARK  26 active torsions:
REMARK  status: ('A' for Active; 'I' for Inactive)
REMARK    1  A    between atoms: C2_2  and  C3_3 
REMARK    2  A    between atoms: C4_6  and  C5_7 
REMARK       I    between atoms: C5_7  and  N2_9 
REMARK    3  A    between atoms: N2_9  and  C6_10 
REMARK    4  A    between atoms: C6_10  and  C7_11 
REMARK    5  A    between atoms: C6_10  and  C8_13 
REMARK       I    between atoms: C7_11  and  N3_14 
REMARK    6  A    between atoms: N3_14  and  C9_15 
REMARK    7  A    between atoms: C9_15  and  C10_16 
REMARK    8  A    between atoms: C9_15  and  C11_18 
REMARK       I    between atoms: C10_16  and  N4_21 
REMARK    9  A    between atoms: C11_18  and  C12_19 
REMARK   10  A    between atoms: C11_18  and  C13_20 
REMARK   11  A    between atoms: N4_21  and  C14_22 
REMARK   12  A    between atoms: C14_22  and  C15_23 
REMARK   13  A    between atoms: C14_22  and  C16_25 
REMARK       I    between atoms: C15_23  and  N6_40 
REMARK   14  A    between atoms: C16_25  and  C17_26 
REMARK   15  A    between atoms: C17_26  and  C18_27 
REMARK   16  A    between atoms: C17_26  and  C19_28 
REMARK   17  A    between atoms: C20_29  and  C21_30 
REMARK   18  A    between atoms: C20_29  and  C24_33 
REMARK   19  A    between atoms: C20_29  and  N6_40 
REMARK   20  A    between atoms: C21_30  and  C22_31 
REMARK   21  A    between atoms: C22_31  and  C23_32 
REMARK   22  A    between atoms: C23_32  and  O8_43 
REMARK   23  A    between atoms: C24_33  and  C25_34 
REMARK   24  A    between atoms: C28_38  and  O6_39 
REMARK   25  A    between atoms: C29_42  and  O8_43 
REMARK   26  A    between atoms: C29_42  and  C35_49 
ROOT
ATOM      1  C14 non d ame     -35.712  14.042  26.951  0.00  0.00     0.089 C 
ATOM      2  H20 non d ame     -35.916  14.282  27.995  0.00  0.00     0.087 H 
ENDROOT
BRANCH   1   3
ATOM      3  N4  non d ame     -34.713  14.985  26.471  0.00  0.00    -0.346 N 
ATOM      4  C10 non d ame     -33.680  15.546  27.415  0.00  0.00     0.241 C 
ATOM      5  O4  non d ame     -33.673  15.226  28.558  0.00  0.00    -0.271 OA
ATOM      6  H19 non d ame     -34.737  15.247  25.496  0.00  0.00     0.163 HD
BRANCH   4   7
ATOM      7  C9  non d ame     -32.650  16.517  26.900  0.00  0.00     0.092 C 
ATOM      8  H11 non d ame     -31.768  16.476  27.539  0.00  0.00     0.088 H 
BRANCH   7   9
ATOM      9  N3  non d ame     -32.230  16.117  25.554  0.00  0.00    -0.346 N 
ATOM     10  C7  non d ame     -31.288  15.038  25.384  0.00  0.00     0.240 C 
ATOM     11  O3  non d ame     -30.857  14.482  26.320  0.00  0.00    -0.271 OA
ATOM     12  H10 non d ame     -32.591  16.589  24.738  0.00  0.00     0.163 HD
BRANCH  10  13
ATOM     13  C6  non d ame     -30.842  14.619  23.949  0.00  0.00     0.086 C 
ATOM     14  H6  non d ame     -29.783  14.800  23.767  0.00  0.00     0.086 H 
BRANCH  13  15
ATOM     15  N2  non d ame     -31.052  13.190  23.789  0.00  0.00    -0.343 N 
ATOM     16  C5  non d ame     -30.165  12.424  22.910  0.00  0.00     0.273 C 
ATOM     17  O2  non d ame     -29.287  12.967  22.334  0.00  0.00    -0.266 OA
ATOM     18  H5  non d ame     -31.806  12.734  24.282  0.00  0.00     0.163 HD
BRANCH  16  19
ATOM     19  C4  non d ame     -30.375  10.912  22.732  0.00  0.00     0.154 A 
ATOM     20  C1  non d ame     -31.388  10.103  23.338  0.00  0.00    -0.017 A 
ATOM     21  C2  non d ame     -31.146   8.798  22.855  0.00  0.00     0.077 A 
ATOM     22  H1  non d ame     -32.177  10.415  24.022  0.00  0.00     0.091 H 
ATOM     23  O1  non d ame     -30.116   8.861  22.065  0.00  0.00    -0.218 OA
ATOM     24  N1  non d ame     -29.648  10.085  21.977  0.00  0.00    -0.123 NA
BRANCH  21  25
ATOM     25  C3  non d ame     -31.947   7.548  23.195  0.00  0.00    -0.029 C 
ATOM     26  H2  non d ame     -32.063   7.474  24.276  0.00  0.00     0.036 H 
ATOM     27  H3  non d ame     -32.931   7.608  22.729  0.00  0.00     0.036 H 
ATOM     28  H4  non d ame     -31.423   6.667  22.825  0.00  0.00     0.036 H 
ENDBRANCH  21  25
ENDBRANCH  16  19
ENDBRANCH  13  15
BRANCH  13  29
ATOM     29  C8  non d ame     -31.648  15.378  22.927  0.00  0.00    -0.049 C 
ATOM     30  H7  non d ame     -31.077  16.236  22.576  0.00  0.00     0.030 H 
ATOM     31  H8  non d ame     -31.875  14.725  22.085  0.00  0.00     0.030 H 
ATOM     32  H9  non d ame     -32.579  15.722  23.381  0.00  0.00     0.030 H 
ENDBRANCH  13  29
ENDBRANCH  10  13
ENDBRANCH   7   9
BRANCH   7  33
ATOM     33  C11 non d ame     -33.267  17.946  26.844  0.00  0.00    -0.033 C 
ATOM     34  H12 non d ame     -34.340  17.847  27.011  0.00  0.00     0.042 H 
BRANCH  33  35
ATOM     35  C12 non d ame     -32.698  18.855  27.978  0.00  0.00    -0.071 C 
ATOM     36  H13 non d ame     -33.334  18.777  28.860  0.00  0.00     0.028 H 
ATOM     37  H14 non d ame     -31.687  18.534  28.228  0.00  0.00     0.028 H 
ATOM     38  H15 non d ame     -32.677  19.890  27.637  0.00  0.00     0.028 H 
ENDBRANCH  33  35
BRANCH  33  39
ATOM     39  C13 non d ame     -33.055  18.592  25.438  0.00  0.00    -0.071 C 
ATOM     40  H16 non d ame     -33.250  19.663  25.497  0.00  0.00     0.028 H 
ATOM     41  H17 non d ame     -32.027  18.427  25.113  0.00  0.00     0.028 H 
ATOM     42  H18 non d ame     -33.738  18.137  24.722  0.00  0.00     0.028 H 
ENDBRANCH  33  39
ENDBRANCH   7  33
ENDBRANCH   4   7
ENDBRANCH   1   3
BRANCH   1  43
ATOM     43  C15 non d ame     -35.155  12.599  26.779  0.00  0.00     0.240 C 
ATOM     44  O5  non d ame     -34.750  12.245  25.719  0.00  0.00    -0.271 OA
ATOM     45  N6  non d ame     -35.117  11.663  27.938  0.00  0.00    -0.355 N 
ATOM     46  H46 non d ame     -35.453  11.955  28.844  0.00  0.00     0.162 HD
BRANCH  45  47
ATOM     47  C20 non d ame     -34.583  10.296  27.757  0.00  0.00     0.013 C 
ATOM     48  H30 non d ame     -34.278  10.190  26.716  0.00  0.00     0.072 H 
BRANCH  47  49
ATOM     49  C21 non d ame     -35.663   9.290  28.085  0.00  0.00    -0.038 C 
ATOM     50  H31 non d ame     -36.161   9.074  27.140  0.00  0.00     0.036 H 
ATOM     51  H32 non d ame     -35.164   8.491  28.634  0.00  0.00     0.036 H 
BRANCH  49  52
ATOM     52  C22 non d ame     -36.745   9.859  29.030  0.00  0.00     0.018 C 
ATOM     53  H33 non d ame     -36.591  10.936  29.040  0.00  0.00     0.048 H 
ATOM     54  H34 non d ame     -37.690   9.446  28.677  0.00  0.00     0.048 H 
BRANCH  52  55
ATOM     55  C23 non d ame     -36.597   9.391  30.504  0.00  0.00     0.259 C 
ATOM     56  O7  non d ame     -37.247   9.892  31.364  0.00  0.00    -0.265 OA
BRANCH  55  57
ATOM     57  O8  non d ame     -35.664   8.364  30.819  0.00  0.00    -0.317 OA
BRANCH  57  58
ATOM     58  C29 non d ame     -36.252   7.068  30.968  0.00  0.00     0.052 C 
ATOM     59  H47 non d ame     -36.537   6.993  32.017  0.00  0.00     0.082 H 
ATOM     60  H48 non d ame     -37.010   6.996  30.190  0.00  0.00     0.082 H 
BRANCH  58  61
ATOM     61  C35 non d ame     -35.153   6.009  30.681  0.00  0.00    -0.034 A 
ATOM     62  C30 non d ame     -34.736   5.776  29.374  0.00  0.00    -0.075 A 
ATOM     63  C31 non d ame     -33.750   4.825  29.116  0.00  0.00    -0.082 A 
ATOM     64  H49 non d ame     -35.181   6.338  28.553  0.00  0.00     0.084 H 
ATOM     65  C32 non d ame     -33.182   4.104  30.170  0.00  0.00    -0.083 A 
ATOM     66  H50 non d ame     -33.423   4.646  28.091  0.00  0.00     0.083 H 
ATOM     67  C33 non d ame     -33.605   4.337  31.472  0.00  0.00    -0.082 A 
ATOM     68  H51 non d ame     -32.410   3.359  29.977  0.00  0.00     0.083 H 
ATOM     69  C34 non d ame     -34.589   5.288  31.735  0.00  0.00    -0.075 A 
ATOM     70  H52 non d ame     -33.162   3.771  32.292  0.00  0.00     0.083 H 
ATOM     71  H53 non d ame     -34.914   5.467  32.759  0.00  0.00     0.084 H 
ENDBRANCH  58  61
ENDBRANCH  57  58
ENDBRANCH  55  57
ENDBRANCH  52  55
ENDBRANCH  49  52
ENDBRANCH  47  49
BRANCH  47  72
ATOM     72  C24 non d ame     -33.388  10.082  28.684  0.00  0.00    -0.039 C 
ATOM     73  H35 non d ame     -33.703   9.311  29.389  0.00  0.00     0.036 H 
ATOM     74  H36 non d ame     -32.538   9.902  28.025  0.00  0.00     0.036 H 
BRANCH  72  75
ATOM     75  C25 non d ame     -33.056  11.396  29.537  0.00  0.00    -0.001 C 
ATOM     76  C26 non d ame     -31.660  12.075  28.997  0.00  0.00    -0.035 C 
ATOM     77  C27 non d ame     -30.837  12.282  30.054  0.00  0.00     0.085 C 
ATOM     78  H38 non d ame     -31.110  11.363  28.382  0.00  0.00     0.036 H 
ATOM     79  H39 non d ame     -31.852  13.082  28.624  0.00  0.00     0.036 H 
ATOM     80  N5  non d ame     -31.411  11.508  31.216  0.00  0.00    -0.049 N 
ATOM     81  H40 non d ame     -29.881  11.842  29.769  0.00  0.00     0.075 H 
ATOM     82  H41 non d ame     -30.903  13.348  30.270  0.00  0.00     0.075 H 
ATOM     83  C28 non d ame     -32.918  11.117  30.790  0.00  0.00     0.193 C 
ATOM     84  H42 non d ame     -30.868  10.660  31.290  0.00  0.00     0.280 HD
ATOM     85  H43 non d ame     -31.452  12.151  31.994  0.00  0.00     0.280 HD
ATOM     86  H44 non d ame     -33.768  11.658  31.207  0.00  0.00     0.129 H 
ATOM     87  H37 non d ame     -33.920  12.052  29.637  0.00  0.00     0.046 H 
BRANCH  83  88
ATOM     88  O6  non d ame     -33.167   9.738  31.066  0.00  0.00    -0.369 OA
ATOM     89  H45 non d ame     -33.748   9.376  30.392  0.00  0.00     0.212 HD
ENDBRANCH  83  88
ENDBRANCH  72  75
ENDBRANCH  47  72
ENDBRANCH  45  47
ENDBRANCH   1  43
BRANCH   1  90
ATOM     90  C16 non d ame     -36.981  14.201  26.129  0.00  0.00    -0.035 C 
ATOM     91  H21 non d ame     -37.227  13.199  25.781  0.00  0.00     0.037 H 
ATOM     92  H22 non d ame     -37.676  14.741  26.773  0.00  0.00     0.037 H 
BRANCH  90  93
ATOM     93  C17 non d ame     -36.792  15.078  24.850  0.00  0.00    -0.059 C 
ATOM     94  H23 non d ame     -35.745  15.376  24.805  0.00  0.00     0.038 H 
BRANCH  93  95
ATOM     95  C18 non d ame     -37.118  14.289  23.541  0.00  0.00    -0.073 C 
ATOM     96  H24 non d ame     -38.179  14.390  23.310  0.00  0.00     0.028 H 
ATOM     97  H25 non d ame     -36.529  14.692  22.718  0.00  0.00     0.028 H 
ATOM     98  H26 non d ame     -36.875  13.236  23.681  0.00  0.00     0.028 H 
ENDBRANCH  93  95
BRANCH  93  99
ATOM     99  C19 non d ame     -37.627  16.358  24.936  0.00  0.00    -0.073 C 
ATOM    100  H27 non d ame     -38.683  16.113  24.806  0.00  0.00     0.028 H 
ATOM    101  H28 non d ame     -37.481  16.824  25.911  0.00  0.00     0.028 H 
ATOM    102  H29 non d ame     -37.316  17.049  24.153  0.00  0.00     0.028 H 
ENDBRANCH  93  99
ENDBRANCH  90  93
ENDBRANCH   1  90
TORSDOF 26
ENDMDL
MODEL 3
REMARK VINA RESULT:      -6.3      3.404      9.731
REMARK  26 active torsions:
REMARK  status: ('A' for Active; 'I' for Inactive)
REMARK    1  A    between atoms: C2_2  and  C3_3 
REMARK    2  A    between atoms: C4_6  and  C5_7 
REMARK       I    between atoms: C5_7  and  N2_9 
REMARK    3  A    between atoms: N2_9  and  C6_10 
REMARK    4  A    between atoms: C6_10  and  C7_11 
REMARK    5  A    between atoms: C6_10  and  C8_13 
REMARK       I    between atoms: C7_11  and  N3_14 
REMARK    6  A    between atoms: N3_14  and  C9_15 
REMARK    7  A    between atoms: C9_15  and  C10_16 
REMARK    8  A    between atoms: C9_15  and  C11_18 
REMARK       I    between atoms: C10_16  and  N4_21 
REMARK    9  A    between atoms: C11_18  and  C12_19 
REMARK   10  A    between atoms: C11_18  and  C13_20 
REMARK   11  A    between atoms: N4_21  and  C14_22 
REMARK   12  A    between atoms: C14_22  and  C15_23 
REMARK   13  A    between atoms: C14_22  and  C16_25 
REMARK       I    between atoms: C15_23  and  N6_40 
REMARK   14  A    between atoms: C16_25  and  C17_26 
REMARK   15  A    between atoms: C17_26  and  C18_27 
REMARK   16  A    between atoms: C17_26  and  C19_28 
REMARK   17  A    between atoms: C20_29  and  C21_30 
REMARK   18  A    between atoms: C20_29  and  C24_33 
REMARK   19  A    between atoms: C20_29  and  N6_40 
REMARK   20  A    between atoms: C21_30  and  C22_31 
REMARK   21  A    between atoms: C22_31  and  C23_32 
REMARK   22  A    between atoms: C23_32  and  O8_43 
REMARK   23  A    between atoms: C24_33  and  C25_34 
REMARK   24  A    between atoms: C28_38  and  O6_39 
REMARK   25  A    between atoms: C29_42  and  O8_43 
REMARK   26  A    between atoms: C29_42  and  C35_49 
ROOT
ATOM      1  C14 non d ame     -34.388   9.846  29.288  0.00  0.00     0.089 C 
ATOM      2  H20 non d ame     -35.307  10.409  29.124  0.00  0.00     0.087 H 
ENDROOT
BRANCH   1   3
ATOM      3  N4  non d ame     -34.647   8.464  28.911  0.00  0.00    -0.346 N 
ATOM      4  C10 non d ame     -36.062   7.977  28.729  0.00  0.00     0.241 C 
ATOM      5  O4  non d ame     -36.977   8.715  28.892  0.00  0.00    -0.271 OA
ATOM      6  H19 non d ame     -33.855   7.852  28.780  0.00  0.00     0.163 HD
BRANCH   4   7
ATOM      7  C9  non d ame     -36.312   6.545  28.335  0.00  0.00     0.092 C 
ATOM      8  H11 non d ame     -37.239   6.487  27.765  0.00  0.00     0.088 H 
BRANCH   7   9
ATOM      9  N3  non d ame     -35.233   6.084  27.456  0.00  0.00    -0.346 N 
ATOM     10  C7  non d ame     -35.543   5.307  26.281  0.00  0.00     0.240 C 
ATOM     11  O3  non d ame     -36.654   5.044  26.028  0.00  0.00    -0.271 OA
ATOM     12  H10 non d ame     -34.269   6.303  27.663  0.00  0.00     0.163 HD
BRANCH  10  13
ATOM     13  C6  non d ame     -34.390   4.817  25.351  0.00  0.00     0.086 C 
ATOM     14  H6  non d ame     -34.754   4.401  24.412  0.00  0.00     0.086 H 
BRANCH  13  15
ATOM     15  N2  non d ame     -33.548   5.950  25.005  0.00  0.00    -0.343 N 
ATOM     16  C5  non d ame     -33.525   6.437  23.625  0.00  0.00     0.273 C 
ATOM     17  O2  non d ame     -34.185   5.909  22.799  0.00  0.00    -0.266 OA
ATOM     18  H5  non d ame     -32.984   6.393  25.717  0.00  0.00     0.163 HD
BRANCH  16  19
ATOM     19  C4  non d ame     -32.640   7.635  23.246  0.00  0.00     0.154 A 
ATOM     20  C1  non d ame     -31.272   7.601  22.828  0.00  0.00    -0.017 A 
ATOM     21  C2  non d ame     -30.928   8.952  22.602  0.00  0.00     0.077 A 
ATOM     22  H1  non d ame     -30.628   6.730  22.707  0.00  0.00     0.091 H 
ATOM     23  O1  non d ame     -31.981   9.669  22.861  0.00  0.00    -0.218 OA
ATOM     24  N1  non d ame     -32.993   8.923  23.239  0.00  0.00    -0.123 NA
BRANCH  21  25
ATOM     25  C3  non d ame     -29.573   9.472  22.139  0.00  0.00    -0.029 C 
ATOM     26  H2  non d ame     -29.334   9.046  21.165  0.00  0.00     0.036 H 
ATOM     27  H3  non d ame     -29.609  10.559  22.059  0.00  0.00     0.036 H 
ATOM     28  H4  non d ame     -28.807   9.186  22.859  0.00  0.00     0.036 H 
ENDBRANCH  21  25
ENDBRANCH  16  19
ENDBRANCH  13  15
BRANCH  13  29
ATOM     29  C8  non d ame     -33.577   3.767  26.065  0.00  0.00    -0.049 C 
ATOM     30  H7  non d ame     -34.084   2.806  25.998  0.00  0.00     0.030 H 
ATOM     31  H8  non d ame     -32.593   3.691  25.602  0.00  0.00     0.030 H 
ATOM     32  H9  non d ame     -33.464   4.046  27.114  0.00  0.00     0.030 H 
ENDBRANCH  13  29
ENDBRANCH  10  13
ENDBRANCH   7   9
BRANCH   7  33
ATOM     33  C11 non d ame     -36.352   5.656  29.612  0.00  0.00    -0.033 C 
ATOM     34  H12 non d ame     -36.614   4.645  29.301  0.00  0.00     0.042 H 
BRANCH  33  35
ATOM     35  C12 non d ame     -34.953   5.587  30.300  0.00  0.00    -0.071 C 
ATOM     36  H13 non d ame     -34.918   4.726  30.967  0.00  0.00     0.028 H 
ATOM     37  H14 non d ame     -34.178   5.490  29.540  0.00  0.00     0.028 H 
ATOM     38  H15 non d ame     -34.786   6.498  30.876  0.00  0.00     0.028 H 
ENDBRANCH  33  35
BRANCH  33  39
ATOM     39  C13 non d ame     -37.449   6.155  30.607  0.00  0.00    -0.071 C 
ATOM     40  H16 non d ame     -37.391   5.579  31.530  0.00  0.00     0.028 H 
ATOM     41  H17 non d ame     -37.288   7.211  30.825  0.00  0.00     0.028 H 
ATOM     42  H18 non d ame     -38.433   6.024  30.158  0.00  0.00     0.028 H 
ENDBRANCH  33  39
ENDBRANCH   7  33
ENDBRANCH   4   7
ENDBRANCH   1   3
BRANCH   1  43
ATOM     43  C15 non d ame     -33.210  10.382  28.424  0.00  0.00     0.240 C 
ATOM     44  O5  non d ame     -32.619   9.641  27.706  0.00  0.00    -0.271 OA
ATOM     45  N6  non d ame     -32.824  11.820  28.483  0.00  0.00    -0.355 N 
ATOM     46  H46 non d ame     -33.322  12.460  29.086  0.00  0.00     0.162 HD
BRANCH  45  47
ATOM     47  C20 non d ame     -31.703  12.314  27.655  0.00  0.00     0.013 C 
ATOM     48  H30 non d ame     -31.089  11.457  27.378  0.00  0.00     0.072 H 
BRANCH  47  49
ATOM     49  C21 non d ame     -30.884  13.299  28.457  0.00  0.00    -0.038 C 
ATOM     50  H31 non d ame     -30.075  12.718  28.900  0.00  0.00     0.036 H 
ATOM     51  H32 non d ame     -30.657  14.118  27.774  0.00  0.00     0.036 H 
BRANCH  49  52
ATOM     52  C22 non d ame     -31.673  13.917  29.633  0.00  0.00     0.018 C 
ATOM     53  H33 non d ame     -32.717  13.905  29.326  0.00  0.00     0.048 H 
ATOM     54  H34 non d ame     -31.358  13.367  30.520  0.00  0.00     0.048 H 
BRANCH  52  55
ATOM     55  C23 non d ame     -31.324  15.407  29.906  0.00  0.00     0.259 C 
ATOM     56  O7  non d ame     -30.267  15.705  30.360  0.00  0.00    -0.265 OA
BRANCH  55  57
ATOM     57  O8  non d ame     -32.289  16.412  29.620  0.00  0.00    -0.317 OA
BRANCH  57  58
ATOM     58  C29 non d ame     -33.071  16.154  28.450  0.00  0.00     0.052 C 
ATOM     59  H47 non d ame     -32.485  15.456  27.852  0.00  0.00     0.082 H 
ATOM     60  H48 non d ame     -34.058  15.868  28.812  0.00  0.00     0.082 H 
BRANCH  58  61
ATOM     61  C35 non d ame     -33.205  17.484  27.662  0.00  0.00    -0.034 A 
ATOM     62  C30 non d ame     -33.974  17.532  26.503  0.00  0.00    -0.075 A 
ATOM     63  C31 non d ame     -34.094  18.727  25.794  0.00  0.00    -0.082 A 
ATOM     64  H49 non d ame     -34.481  16.634  26.149  0.00  0.00     0.084 H 
ATOM     65  C32 non d ame     -33.441  19.876  26.247  0.00  0.00    -0.083 A 
ATOM     66  H50 non d ame     -34.699  18.761  24.887  0.00  0.00     0.083 H 
ATOM     67  C33 non d ame     -32.672  19.822  27.402  0.00  0.00    -0.082 A 
ATOM     68  H51 non d ame     -33.531  20.814  25.699  0.00  0.00     0.083 H 
ATOM     69  C34 non d ame     -32.550  18.631  28.114  0.00  0.00    -0.075 A 
ATOM     70  H52 non d ame     -32.162  20.720  27.752  0.00  0.00     0.083 H 
ATOM     71  H53 non d ame     -31.946  18.597  29.021  0.00  0.00     0.084 H 
ENDBRANCH  58  61
ENDBRANCH  57  58
ENDBRANCH  55  57
ENDBRANCH  52  55
ENDBRANCH  49  52
ENDBRANCH  47  49
BRANCH  47  72
ATOM     72  C24 non d ame     -32.248  13.001  26.405  0.00  0.00    -0.039 C 
ATOM     73  H35 non d ame     -32.702  12.206  25.812  0.00  0.00     0.036 H 
ATOM     74  H36 non d ame     -32.861  13.825  26.771  0.00  0.00     0.036 H 
BRANCH  72  75
ATOM     75  C25 non d ame     -31.076  13.640  25.520  0.00  0.00    -0.001 C 
ATOM     76  C26 non d ame     -31.355  15.244  25.296  0.00  0.00    -0.035 C 
ATOM     77  C27 non d ame     -31.272  15.522  23.972  0.00  0.00     0.085 C 
ATOM     78  H38 non d ame     -32.390  15.482  25.541  0.00  0.00     0.036 H 
ATOM     79  H39 non d ame     -30.544  15.830  25.730  0.00  0.00     0.036 H 
ATOM     80  N5  non d ame     -31.286  14.199  23.243  0.00  0.00    -0.049 N 
ATOM     81  H40 non d ame     -32.182  16.070  23.732  0.00  0.00     0.075 H 
ATOM     82  H41 non d ame     -30.299  15.993  23.834  0.00  0.00     0.075 H 
ATOM     83  C28 non d ame     -31.001  13.072  24.363  0.00  0.00     0.193 C 
ATOM     84  H42 non d ame     -32.225  14.075  22.894  0.00  0.00     0.280 HD
ATOM     85  H43 non d ame     -30.506  14.219  22.601  0.00  0.00     0.280 HD
ATOM     86  H44 non d ame     -30.020  12.601  24.437  0.00  0.00     0.129 H 
ATOM     87  H37 non d ame     -30.087  13.354  25.877  0.00  0.00     0.046 H 
BRANCH  83  88
ATOM     88  O6  non d ame     -31.933  11.997  24.229  0.00  0.00    -0.369 OA
ATOM     89  H45 non d ame     -31.456  11.164  24.180  0.00  0.00     0.212 HD
ENDBRANCH  83  88
ENDBRANCH  72  75
ENDBRANCH  47  72
ENDBRANCH  45  47
ENDBRANCH   1  43
BRANCH   1  90
ATOM     90  C16 non d ame     -34.007   9.898  30.758  0.00  0.00    -0.035 C 
ATOM     91  H21 non d ame     -33.494   8.958  30.957  0.00  0.00     0.037 H 
ATOM     92  H22 non d ame     -33.482  10.844  30.887  0.00  0.00     0.037 H 
BRANCH  90  93
ATOM     93  C17 non d ame     -35.236   9.941  31.722  0.00  0.00    -0.059 C 
ATOM     94  H23 non d ame     -36.126  10.108  31.114  0.00  0.00     0.038 H 
BRANCH  93  95
ATOM     95  C18 non d ame     -35.430   8.595  32.490  0.00  0.00    -0.073 C 
ATOM     96  H24 non d ame     -35.797   7.832  31.802  0.00  0.00     0.028 H 
ATOM     97  H25 non d ame     -34.477   8.275  32.910  0.00  0.00     0.028 H 
ATOM     98  H26 non d ame     -36.153   8.736  33.294  0.00  0.00     0.028 H 
ENDBRANCH  93  95
BRANCH  93  99
ATOM     99  C19 non d ame     -35.125  11.114  32.699  0.00  0.00    -0.073 C 
ATOM    100  H27 non d ame     -34.091  11.210  33.035  0.00  0.00     0.028 H 
ATOM    101  H28 non d ame     -35.431  12.034  32.200  0.00  0.00     0.028 H 
ATOM    102  H29 non d ame     -35.771  10.934  33.558  0.00  0.00     0.028 H 
ENDBRANCH  93  99
ENDBRANCH  90  93
ENDBRANCH   1  90
TORSDOF 26
ENDMDL
MODEL 4
REMARK VINA RESULT:      -6.3      2.476      5.674
REMARK  26 active torsions:
REMARK  status: ('A' for Active; 'I' for Inactive)
REMARK    1  A    between atoms: C2_2  and  C3_3 
REMARK    2  A    between atoms: C4_6  and  C5_7 
REMARK       I    between atoms: C5_7  and  N2_9 
REMARK    3  A    between atoms: N2_9  and  C6_10 
REMARK    4  A    between atoms: C6_10  and  C7_11 
REMARK    5  A    between atoms: C6_10  and  C8_13 
REMARK       I    between atoms: C7_11  and  N3_14 
REMARK    6  A    between atoms: N3_14  and  C9_15 
REMARK    7  A    between atoms: C9_15  and  C10_16 
REMARK    8  A    between atoms: C9_15  and  C11_18 
REMARK       I    between atoms: C10_16  and  N4_21 
REMARK    9  A    between atoms: C11_18  and  C12_19 
REMARK   10  A    between atoms: C11_18  and  C13_20 
REMARK   11  A    between atoms: N4_21  and  C14_22 
REMARK   12  A    between atoms: C14_22  and  C15_23 
REMARK   13  A    between atoms: C14_22  and  C16_25 
REMARK       I    between atoms: C15_23  and  N6_40 
REMARK   14  A    between atoms: C16_25  and  C17_26 
REMARK   15  A    between atoms: C17_26  and  C18_27 
REMARK   16  A    between atoms: C17_26  and  C19_28 
REMARK   17  A    between atoms: C20_29  and  C21_30 
REMARK   18  A    between atoms: C20_29  and  C24_33 
REMARK   19  A    between atoms: C20_29  and  N6_40 
REMARK   20  A    between atoms: C21_30  and  C22_31 
REMARK   21  A    between atoms: C22_31  and  C23_32 
REMARK   22  A    between atoms: C23_32  and  O8_43 
REMARK   23  A    between atoms: C24_33  and  C25_34 
REMARK   24  A    between atoms: C28_38  and  O6_39 
REMARK   25  A    between atoms: C29_42  and  O8_43 
REMARK   26  A    between atoms: C29_42  and  C35_49 
ROOT
ATOM      1  C14 non d ame     -36.185  13.320  26.267  0.00  0.00     0.089 C 
ATOM      2  H20 non d ame     -36.852  13.234  27.125  0.00  0.00     0.087 H 
ENDROOT
BRANCH   1   3
ATOM      3  N4  non d ame     -35.900  14.734  26.073  0.00  0.00    -0.346 N 
ATOM      4  C10 non d ame     -36.860  15.781  26.578  0.00  0.00     0.241 C 
ATOM      5  O4  non d ame     -37.858  15.461  27.136  0.00  0.00    -0.271 OA
ATOM      6  H19 non d ame     -35.048  14.985  25.594  0.00  0.00     0.163 HD
BRANCH   4   7
ATOM      7  C9  non d ame     -36.548  17.240  26.374  0.00  0.00     0.092 C 
ATOM      8  H11 non d ame     -36.805  17.792  27.277  0.00  0.00     0.088 H 
BRANCH   7   9
ATOM      9  N3  non d ame     -35.107  17.406  26.159  0.00  0.00    -0.346 N 
ATOM     10  C7  non d ame     -34.242  17.700  27.275  0.00  0.00     0.240 C 
ATOM     11  O3  non d ame     -34.688  17.806  28.352  0.00  0.00    -0.271 OA
ATOM     12  H10 non d ame     -34.708  17.319  25.236  0.00  0.00     0.163 HD
BRANCH  10  13
ATOM     13  C6  non d ame     -32.710  17.879  27.041  0.00  0.00     0.086 C 
ATOM     14  H6  non d ame     -32.106  17.347  27.776  0.00  0.00     0.086 H 
BRANCH  13  15
ATOM     15  N2  non d ame     -32.363  17.326  25.742  0.00  0.00    -0.343 N 
ATOM     16  C5  non d ame     -31.742  16.003  25.663  0.00  0.00     0.273 C 
ATOM     17  O2  non d ame     -31.521  15.391  26.650  0.00  0.00    -0.266 OA
ATOM     18  H5  non d ame     -32.553  17.857  24.904  0.00  0.00     0.163 HD
BRANCH  16  19
ATOM     19  C4  non d ame     -31.371  15.407  24.295  0.00  0.00     0.154 A 
ATOM     20  C1  non d ame     -31.302  16.094  23.043  0.00  0.00    -0.017 A 
ATOM     21  C2  non d ame     -30.921  15.107  22.107  0.00  0.00     0.077 A 
ATOM     22  H1  non d ame     -31.497  17.148  22.843  0.00  0.00     0.091 H 
ATOM     23  O1  non d ame     -30.789  13.988  22.757  0.00  0.00    -0.218 OA
ATOM     24  N1  non d ame     -31.046  14.138  24.036  0.00  0.00    -0.123 NA
BRANCH  21  25
ATOM     25  C3  non d ame     -30.705  15.315  20.615  0.00  0.00    -0.029 C 
ATOM     26  H2  non d ame     -30.288  14.408  20.178  0.00  0.00     0.036 H 
ATOM     27  H3  non d ame     -31.658  15.541  20.136  0.00  0.00     0.036 H 
ATOM     28  H4  non d ame     -30.015  16.144  20.458  0.00  0.00     0.036 H 
ENDBRANCH  21  25
ENDBRANCH  16  19
ENDBRANCH  13  15
BRANCH  13  29
ATOM     29  C8  non d ame     -32.359  19.344  27.090  0.00  0.00    -0.049 C 
ATOM     30  H7  non d ame     -32.823  19.800  27.964  0.00  0.00     0.030 H 
ATOM     31  H8  non d ame     -31.277  19.457  27.154  0.00  0.00     0.030 H 
ATOM     32  H9  non d ame     -32.724  19.835  26.187  0.00  0.00     0.030 H 
ENDBRANCH  13  29
ENDBRANCH  10  13
ENDBRANCH   7   9
BRANCH   7  33
ATOM     33  C11 non d ame     -37.318  17.765  25.126  0.00  0.00    -0.033 C 
ATOM     34  H12 non d ame     -36.718  18.555  24.677  0.00  0.00     0.042 H 
BRANCH  33  35
ATOM     35  C12 non d ame     -37.494  16.644  24.055  0.00  0.00    -0.071 C 
ATOM     36  H13 non d ame     -36.639  15.968  24.092  0.00  0.00     0.028 H 
ATOM     37  H14 non d ame     -38.408  16.086  24.259  0.00  0.00     0.028 H 
ATOM     38  H15 non d ame     -37.557  17.094  23.064  0.00  0.00     0.028 H 
ENDBRANCH  33  35
BRANCH  33  39
ATOM     39  C13 non d ame     -38.695  18.378  25.537  0.00  0.00    -0.071 C 
ATOM     40  H16 non d ame     -39.495  17.685  25.273  0.00  0.00     0.028 H 
ATOM     41  H17 non d ame     -38.708  18.557  26.612  0.00  0.00     0.028 H 
ATOM     42  H18 non d ame     -38.844  19.321  25.011  0.00  0.00     0.028 H 
ENDBRANCH  33  39
ENDBRANCH   7  33
ENDBRANCH   4   7
ENDBRANCH   1   3
BRANCH   1  43
ATOM     43  C15 non d ame     -34.840  12.571  26.492  0.00  0.00     0.240 C 
ATOM     44  O5  non d ame     -33.837  13.004  26.025  0.00  0.00    -0.271 OA
ATOM     45  N6  non d ame     -34.801  11.317  27.298  0.00  0.00    -0.355 N 
ATOM     46  H46 non d ame     -35.647  10.942  27.704  0.00  0.00     0.162 HD
BRANCH  45  47
ATOM     47  C20 non d ame     -33.515  10.618  27.503  0.00  0.00     0.013 C 
ATOM     48  H30 non d ame     -32.740  11.184  26.987  0.00  0.00     0.072 H 
BRANCH  47  49
ATOM     49  C21 non d ame     -33.606   9.223  26.927  0.00  0.00    -0.038 C 
ATOM     50  H31 non d ame     -34.666   8.967  26.943  0.00  0.00     0.036 H 
ATOM     51  H32 non d ame     -33.068   9.260  25.979  0.00  0.00     0.036 H 
BRANCH  49  52
ATOM     52  C22 non d ame     -32.888   8.167  27.796  0.00  0.00     0.018 C 
ATOM     53  H33 non d ame     -31.908   8.030  27.343  0.00  0.00     0.048 H 
ATOM     54  H34 non d ame     -32.971   8.525  28.822  0.00  0.00     0.048 H 
BRANCH  52  55
ATOM     55  C23 non d ame     -33.569   6.770  27.774  0.00  0.00     0.259 C 
ATOM     56  O7  non d ame     -32.992   5.825  27.342  0.00  0.00    -0.265 OA
BRANCH  55  57
ATOM     57  O8  non d ame     -34.898   6.635  28.263  0.00  0.00    -0.317 OA
BRANCH  57  58
ATOM     58  C29 non d ame     -34.980   6.429  29.676  0.00  0.00     0.052 C 
ATOM     59  H47 non d ame     -35.745   5.665  29.819  0.00  0.00     0.082 H 
ATOM     60  H48 non d ame     -33.959   6.247  30.008  0.00  0.00     0.082 H 
BRANCH  58  61
ATOM     61  C35 non d ame     -35.478   7.749  30.324  0.00  0.00    -0.034 A 
ATOM     62  C30 non d ame     -35.167   8.034  31.650  0.00  0.00    -0.075 A 
ATOM     63  C31 non d ame     -35.615   9.220  32.232  0.00  0.00    -0.082 A 
ATOM     64  H49 non d ame     -34.575   7.329  32.234  0.00  0.00     0.084 H 
ATOM     65  C32 non d ame     -36.376  10.121  31.484  0.00  0.00    -0.083 A 
ATOM     66  H50 non d ame     -35.368   9.441  33.272  0.00  0.00     0.083 H 
ATOM     67  C33 non d ame     -36.687   9.830  30.162  0.00  0.00    -0.082 A 
ATOM     68  H51 non d ame     -36.729  11.050  31.931  0.00  0.00     0.083 H 
ATOM     69  C34 non d ame     -36.241   8.647  29.576  0.00  0.00    -0.075 A 
ATOM     70  H52 non d ame     -37.284  10.534  29.582  0.00  0.00     0.083 H 
ATOM     71  H53 non d ame     -36.487   8.427  28.537  0.00  0.00     0.084 H 
ENDBRANCH  58  61
ENDBRANCH  57  58
ENDBRANCH  55  57
ENDBRANCH  52  55
ENDBRANCH  49  52
ENDBRANCH  47  49
BRANCH  47  72
ATOM     72  C24 non d ame     -33.205  10.534  28.996  0.00  0.00    -0.039 C 
ATOM     73  H35 non d ame     -34.144  10.245  29.471  0.00  0.00     0.036 H 
ATOM     74  H36 non d ame     -32.333   9.886  29.076  0.00  0.00     0.036 H 
BRANCH  72  75
ATOM     75  C25 non d ame     -32.791  11.960  29.597  0.00  0.00    -0.001 C 
ATOM     76  C26 non d ame     -31.505  12.564  28.769  0.00  0.00    -0.035 C 
ATOM     77  C27 non d ame     -30.546  12.926  29.655  0.00  0.00     0.085 C 
ATOM     78  H38 non d ame     -31.030  11.774  28.188  0.00  0.00     0.036 H 
ATOM     79  H39 non d ame     -31.777  13.505  28.289  0.00  0.00     0.036 H 
ATOM     80  N5  non d ame     -30.926  12.324  30.987  0.00  0.00    -0.049 N 
ATOM     81  H40 non d ame     -29.629  12.456  29.300  0.00  0.00     0.075 H 
ATOM     82  H41 non d ame     -30.610  14.011  29.725  0.00  0.00     0.075 H 
ATOM     83  C28 non d ame     -32.468  11.866  30.843  0.00  0.00     0.193 C 
ATOM     84  H42 non d ame     -30.355  11.499  31.100  0.00  0.00     0.280 HD
ATOM     85  H43 non d ame     -30.874  13.072  31.663  0.00  0.00     0.280 HD
ATOM     86  H44 non d ame     -33.264  12.455  31.299  0.00  0.00     0.129 H 
ATOM     87  H37 non d ame     -33.650  12.618  29.727  0.00  0.00     0.046 H 
BRANCH  83  88
ATOM     88  O6  non d ame     -32.637  10.539  31.346  0.00  0.00    -0.369 OA
ATOM     89  H45 non d ame     -32.117  10.431  32.146  0.00  0.00     0.212 HD
ENDBRANCH  83  88
ENDBRANCH  72  75
ENDBRANCH  47  72
ENDBRANCH  45  47
ENDBRANCH   1  43
BRANCH   1  90
ATOM     90  C16 non d ame     -36.871  12.776  25.024  0.00  0.00    -0.035 C 
ATOM     91  H21 non d ame     -36.922  13.616  24.332  0.00  0.00     0.037 H 
ATOM     92  H22 non d ame     -36.312  11.880  24.755  0.00  0.00     0.037 H 
BRANCH  90  93
ATOM     93  C17 non d ame     -38.344  12.320  25.271  0.00  0.00    -0.059 C 
ATOM     94  H23 non d ame     -38.510  11.411  24.693  0.00  0.00     0.038 H 
BRANCH  93  95
ATOM     95  C18 non d ame     -38.613  11.983  26.773  0.00  0.00    -0.073 C 
ATOM     96  H24 non d ame     -39.303  11.142  26.840  0.00  0.00     0.028 H 
ATOM     97  H25 non d ame     -37.674  11.721  27.260  0.00  0.00     0.028 H 
ATOM     98  H26 non d ame     -39.049  12.851  27.268  0.00  0.00     0.028 H 
ENDBRANCH  93  95
BRANCH  93  99
ATOM     99  C19 non d ame     -39.335  13.371  24.764  0.00  0.00    -0.073 C 
ATOM    100  H27 non d ame     -38.791  14.267  24.463  0.00  0.00     0.028 H 
ATOM    101  H28 non d ame     -39.881  12.974  23.908  0.00  0.00     0.028 H 
ATOM    102  H29 non d ame     -40.038  13.622  25.558  0.00  0.00     0.028 H 
ENDBRANCH  93  99
ENDBRANCH  90  93
ENDBRANCH   1  90
TORSDOF 26
ENDMDL
MODEL 5
REMARK VINA RESULT:      -6.3      3.524      8.848
REMARK  26 active torsions:
REMARK  status: ('A' for Active; 'I' for Inactive)
REMARK    1  A    between atoms: C2_2  and  C3_3 
REMARK    2  A    between atoms: C4_6  and  C5_7 
REMARK       I    between atoms: C5_7  and  N2_9 
REMARK    3  A    between atoms: N2_9  and  C6_10 
REMARK    4  A    between atoms: C6_10  and  C7_11 
REMARK    5  A    between atoms: C6_10  and  C8_13 
REMARK       I    between atoms: C7_11  and  N3_14 
REMARK    6  A    between atoms: N3_14  and  C9_15 
REMARK    7  A    between atoms: C9_15  and  C10_16 
REMARK    8  A    between atoms: C9_15  and  C11_18 
REMARK       I    between atoms: C10_16  and  N4_21 
REMARK    9  A    between atoms: C11_18  and  C12_19 
REMARK   10  A    between atoms: C11_18  and  C13_20 
REMARK   11  A    between atoms: N4_21  and  C14_22 
REMARK   12  A    between atoms: C14_22  and  C15_23 
REMARK   13  A    between atoms: C14_22  and  C16_25 
REMARK       I    between atoms: C15_23  and  N6_40 
REMARK   14  A    between atoms: C16_25  and  C17_26 
REMARK   15  A    between atoms: C17_26  and  C18_27 
REMARK   16  A    between atoms: C17_26  and  C19_28 
REMARK   17  A    between atoms: C20_29  and  C21_30 
REMARK   18  A    between atoms: C20_29  and  C24_33 
REMARK   19  A    between atoms: C20_29  and  N6_40 
REMARK   20  A    between atoms: C21_30  and  C22_31 
REMARK   21  A    between atoms: C22_31  and  C23_32 
REMARK   22  A    between atoms: C23_32  and  O8_43 
REMARK   23  A    between atoms: C24_33  and  C25_34 
REMARK   24  A    between atoms: C28_38  and  O6_39 
REMARK   25  A    between atoms: C29_42  and  O8_43 
REMARK   26  A    between atoms: C29_42  and  C35_49 
ROOT
ATOM      1  C14 non d ame     -35.468  10.069  25.385  0.00  0.00     0.089 C 
ATOM      2  H20 non d ame     -35.342  10.450  24.370  0.00  0.00     0.087 H 
ENDROOT
BRANCH   1   3
ATOM      3  N4  non d ame     -34.663   8.863  25.504  0.00  0.00    -0.346 N 
ATOM      4  C10 non d ame     -33.341   8.755  24.787  0.00  0.00     0.241 C 
ATOM      5  O4  non d ame     -32.946   9.652  24.117  0.00  0.00    -0.271 OA
ATOM      6  H19 non d ame     -35.018   8.110  26.076  0.00  0.00     0.163 HD
BRANCH   4   7
ATOM      7  C9  non d ame     -32.519   7.501  24.925  0.00  0.00     0.092 C 
ATOM      8  H11 non d ame     -31.586   7.738  25.436  0.00  0.00     0.088 H 
BRANCH   7   9
ATOM      9  N3  non d ame     -33.238   6.534  25.760  0.00  0.00    -0.346 N 
ATOM     10  C7  non d ame     -32.742   6.208  27.074  0.00  0.00     0.240 C 
ATOM     11  O3  non d ame     -31.765   6.714  27.475  0.00  0.00    -0.271 OA
ATOM     12  H10 non d ame     -34.080   6.088  25.426  0.00  0.00     0.163 HD
BRANCH  10  13
ATOM     13  C6  non d ame     -33.509   5.176  27.957  0.00  0.00     0.086 C 
ATOM     14  H6  non d ame     -32.922   4.829  28.807  0.00  0.00     0.086 H 
BRANCH  13  15
ATOM     15  N2  non d ame     -34.695   5.813  28.505  0.00  0.00    -0.343 N 
ATOM     16  C5  non d ame     -35.029   5.623  29.917  0.00  0.00     0.273 C 
ATOM     17  O2  non d ame     -34.340   4.953  30.605  0.00  0.00    -0.266 OA
ATOM     18  H5  non d ame     -35.281   6.381  27.909  0.00  0.00     0.163 HD
BRANCH  16  19
ATOM     19  C4  non d ame     -36.281   6.291  30.509  0.00  0.00     0.154 A 
ATOM     20  C1  non d ame     -36.559   7.693  30.583  0.00  0.00    -0.017 A 
ATOM     21  C2  non d ame     -37.823   7.779  31.208  0.00  0.00     0.077 A 
ATOM     22  H1  non d ame     -35.939   8.520  30.236  0.00  0.00     0.091 H 
ATOM     23  O1  non d ame     -38.216   6.565  31.459  0.00  0.00    -0.218 OA
ATOM     24  N1  non d ame     -37.332   5.679  31.060  0.00  0.00    -0.123 NA
BRANCH  21  25
ATOM     25  C3  non d ame     -38.585   9.058  31.528  0.00  0.00    -0.029 C 
ATOM     26  H2  non d ame     -37.904   9.787  31.968  0.00  0.00     0.036 H 
ATOM     27  H3  non d ame     -39.009   9.468  30.611  0.00  0.00     0.036 H 
ATOM     28  H4  non d ame     -39.386   8.839  32.232  0.00  0.00     0.036 H 
ENDBRANCH  21  25
ENDBRANCH  16  19
ENDBRANCH  13  15
BRANCH  13  29
ATOM     29  C8  non d ame     -33.901   3.986  27.119  0.00  0.00    -0.049 C 
ATOM     30  H7  non d ame     -33.252   3.926  26.246  0.00  0.00     0.030 H 
ATOM     31  H8  non d ame     -33.800   3.076  27.709  0.00  0.00     0.030 H 
ATOM     32  H9  non d ame     -34.937   4.096  26.794  0.00  0.00     0.030 H 
ENDBRANCH  13  29
ENDBRANCH  10  13
ENDBRANCH   7   9
BRANCH   7  33
ATOM     33  C11 non d ame     -32.274   6.884  23.516  0.00  0.00    -0.033 C 
ATOM     34  H12 non d ame     -32.765   7.527  22.786  0.00  0.00     0.042 H 
BRANCH  33  35
ATOM     35  C12 non d ame     -30.754   6.852  23.166  0.00  0.00    -0.071 C 
ATOM     36  H13 non d ame     -30.213   7.524  23.834  0.00  0.00     0.028 H 
ATOM     37  H14 non d ame     -30.374   5.838  23.285  0.00  0.00     0.028 H 
ATOM     38  H15 non d ame     -30.611   7.176  22.135  0.00  0.00     0.028 H 
ENDBRANCH  33  35
BRANCH  33  39
ATOM     39  C13 non d ame     -32.910   5.461  23.411  0.00  0.00    -0.071 C 
ATOM     40  H16 non d ame     -33.980   5.553  23.225  0.00  0.00     0.028 H 
ATOM     41  H17 non d ame     -32.444   4.914  22.590  0.00  0.00     0.028 H 
ATOM     42  H18 non d ame     -32.748   4.920  24.343  0.00  0.00     0.028 H 
ENDBRANCH  33  39
ENDBRANCH   7  33
ENDBRANCH   4   7
ENDBRANCH   1   3
BRANCH   1  43
ATOM     43  C15 non d ame     -34.991  11.091  26.457  0.00  0.00     0.240 C 
ATOM     44  O5  non d ame     -35.550  11.153  27.504  0.00  0.00    -0.271 OA
ATOM     45  N6  non d ame     -33.830  11.985  26.183  0.00  0.00    -0.355 N 
ATOM     46  H46 non d ame     -33.343  11.938  25.299  0.00  0.00     0.162 HD
BRANCH  45  47
ATOM     47  C20 non d ame     -33.389  12.950  27.214  0.00  0.00     0.013 C 
ATOM     48  H30 non d ame     -33.924  12.723  28.135  0.00  0.00     0.072 H 
BRANCH  47  49
ATOM     49  C21 non d ame     -33.715  14.354  26.757  0.00  0.00    -0.038 C 
ATOM     50  H31 non d ame     -33.502  14.372  25.688  0.00  0.00     0.036 H 
ATOM     51  H32 non d ame     -34.726  14.552  27.115  0.00  0.00     0.036 H 
BRANCH  49  52
ATOM     52  C22 non d ame     -32.806  15.421  27.404  0.00  0.00     0.018 C 
ATOM     53  H33 non d ame     -33.403  15.881  28.190  0.00  0.00     0.048 H 
ATOM     54  H34 non d ame     -31.879  14.905  27.654  0.00  0.00     0.048 H 
BRANCH  52  55
ATOM     55  C23 non d ame     -32.408  16.572  26.439  0.00  0.00     0.259 C 
ATOM     56  O7  non d ame     -32.976  17.616  26.479  0.00  0.00    -0.265 OA
BRANCH  55  57
ATOM     57  O8  non d ame     -31.365  16.361  25.495  0.00  0.00    -0.317 OA
BRANCH  57  58
ATOM     58  C29 non d ame     -31.809  16.316  24.136  0.00  0.00     0.052 C 
ATOM     59  H47 non d ame     -32.845  15.979  24.175  0.00  0.00     0.082 H 
ATOM     60  H48 non d ame     -31.568  17.291  23.713  0.00  0.00     0.082 H 
BRANCH  58  61
ATOM     61  C35 non d ame     -30.971  15.240  23.394  0.00  0.00    -0.034 A 
ATOM     62  C30 non d ame     -31.049  13.906  23.783  0.00  0.00    -0.075 A 
ATOM     63  C31 non d ame     -30.296  12.940  23.118  0.00  0.00    -0.082 A 
ATOM     64  H49 non d ame     -31.699  13.618  24.609  0.00  0.00     0.084 H 
ATOM     65  C32 non d ame     -29.461  13.312  22.061  0.00  0.00    -0.083 A 
ATOM     66  H50 non d ame     -30.361  11.895  23.424  0.00  0.00     0.083 H 
ATOM     67  C33 non d ame     -29.384  14.645  21.679  0.00  0.00    -0.082 A 
ATOM     68  H51 non d ame     -28.869  12.562  21.534  0.00  0.00     0.083 H 
ATOM     69  C34 non d ame     -30.136  15.613  22.340  0.00  0.00    -0.075 A 
ATOM     70  H52 non d ame     -28.729  14.932  20.855  0.00  0.00     0.083 H 
ATOM     71  H53 non d ame     -30.071  16.657  22.033  0.00  0.00     0.084 H 
ENDBRANCH  58  61
ENDBRANCH  57  58
ENDBRANCH  55  57
ENDBRANCH  52  55
ENDBRANCH  49  52
ENDBRANCH  47  49
BRANCH  47  72
ATOM     72  C24 non d ame     -31.882  12.820  27.430  0.00  0.00    -0.039 C 
ATOM     73  H35 non d ame     -31.510  12.280  26.559  0.00  0.00     0.036 H 
ATOM     74  H36 non d ame     -31.531  13.832  27.634  0.00  0.00     0.036 H 
BRANCH  72  75
ATOM     75  C25 non d ame     -31.543  11.932  28.719  0.00  0.00    -0.001 C 
ATOM     76  C26 non d ame     -32.909  11.673  29.596  0.00  0.00    -0.035 C 
ATOM     77  C27 non d ame     -32.671  12.009  30.886  0.00  0.00     0.085 C 
ATOM     78  H38 non d ame     -33.688  12.371  29.290  0.00  0.00     0.036 H 
ATOM     79  H39 non d ame     -33.124  10.605  29.647  0.00  0.00     0.036 H 
ATOM     80  N5  non d ame     -31.373  12.782  30.908  0.00  0.00    -0.049 N 
ATOM     81  H40 non d ame     -33.487  12.675  31.169  0.00  0.00     0.075 H 
ATOM     82  H41 non d ame     -32.531  11.066  31.412  0.00  0.00     0.075 H 
ATOM     83  C28 non d ame     -30.677  12.520  29.476  0.00  0.00     0.193 C 
ATOM     84  H42 non d ame     -31.623  13.758  30.970  0.00  0.00     0.280 HD
ATOM     85  H43 non d ame     -30.803  12.359  31.626  0.00  0.00     0.280 HD
ATOM     86  H44 non d ame     -29.837  11.830  29.387  0.00  0.00     0.129 H 
ATOM     87  H37 non d ame     -30.939  11.060  28.472  0.00  0.00     0.046 H 
BRANCH  83  88
ATOM     88  O6  non d ame     -30.220  13.753  28.917  0.00  0.00    -0.369 OA
ATOM     89  H45 non d ame     -29.783  14.271  29.598  0.00  0.00     0.212 HD
ENDBRANCH  83  88
ENDBRANCH  72  75
ENDBRANCH  47  72
ENDBRANCH  45  47
ENDBRANCH   1  43
BRANCH   1  90
ATOM     90  C16 non d ame     -36.927   9.719  25.626  0.00  0.00    -0.035 C 
ATOM     91  H21 non d ame     -37.186  10.197  26.569  0.00  0.00     0.037 H 
ATOM     92  H22 non d ame     -37.447  10.002  24.710  0.00  0.00     0.037 H 
BRANCH  90  93
ATOM     93  C17 non d ame     -37.180   8.190  25.823  0.00  0.00    -0.059 C 
ATOM     94  H23 non d ame     -36.212   7.690  25.794  0.00  0.00     0.038 H 
BRANCH  93  95
ATOM     95  C18 non d ame     -37.838   7.875  27.204  0.00  0.00    -0.073 C 
ATOM     96  H24 non d ame     -38.091   6.815  27.253  0.00  0.00     0.028 H 
ATOM     97  H25 non d ame     -37.139   8.118  28.004  0.00  0.00     0.028 H 
ATOM     98  H26 non d ame     -38.744   8.470  27.319  0.00  0.00     0.028 H 
ENDBRANCH  93  95
BRANCH  93  99
ATOM     99  C19 non d ame     -38.021   7.623  24.676  0.00  0.00    -0.073 C 
ATOM    100  H27 non d ame     -37.422   7.598  23.765  0.00  0.00     0.028 H 
ATOM    101  H28 non d ame     -38.342   6.612  24.926  0.00  0.00     0.028 H 
ATOM    102  H29 non d ame     -38.895   8.254  24.520  0.00  0.00     0.028 H 
ENDBRANCH  93  99
ENDBRANCH  90  93
ENDBRANCH   1  90
TORSDOF 26
ENDMDL
MODEL 6
REMARK VINA RESULT:      -6.2      2.860      7.898
REMARK  26 active torsions:
REMARK  status: ('A' for Active; 'I' for Inactive)
REMARK    1  A    between atoms: C2_2  and  C3_3 
REMARK    2  A    between atoms: C4_6  and  C5_7 
REMARK       I    between atoms: C5_7  and  N2_9 
REMARK    3  A    between atoms: N2_9  and  C6_10 
REMARK    4  A    between atoms: C6_10  and  C7_11 
REMARK    5  A    between atoms: C6_10  and  C8_13 
REMARK       I    between atoms: C7_11  and  N3_14 
REMARK    6  A    between atoms: N3_14  and  C9_15 
REMARK    7  A    between atoms: C9_15  and  C10_16 
REMARK    8  A    between atoms: C9_15  and  C11_18 
REMARK       I    between atoms: C10_16  and  N4_21 
REMARK    9  A    between atoms: C11_18  and  C12_19 
REMARK   10  A    between atoms: C11_18  and  C13_20 
REMARK   11  A    between atoms: N4_21  and  C14_22 
REMARK   12  A    between atoms: C14_22  and  C15_23 
REMARK   13  A    between atoms: C14_22  and  C16_25 
REMARK       I    between atoms: C15_23  and  N6_40 
REMARK   14  A    between atoms: C16_25  and  C17_26 
REMARK   15  A    between atoms: C17_26  and  C18_27 
REMARK   16  A    between atoms: C17_26  and  C19_28 
REMARK   17  A    between atoms: C20_29  and  C21_30 
REMARK   18  A    between atoms: C20_29  and  C24_33 
REMARK   19  A    between atoms: C20_29  and  N6_40 
REMARK   20  A    between atoms: C21_30  and  C22_31 
REMARK   21  A    between atoms: C22_31  and  C23_32 
REMARK   22  A    between atoms: C23_32  and  O8_43 
REMARK   23  A    between atoms: C24_33  and  C25_34 
REMARK   24  A    between atoms: C28_38  and  O6_39 
REMARK   25  A    between atoms: C29_42  and  O8_43 
REMARK   26  A    between atoms: C29_42  and  C35_49 
ROOT
ATOM      1  C14 non d ame     -32.495   9.239  24.261  0.00  0.00     0.089 C 
ATOM      2  H20 non d ame     -32.104   8.334  24.728  0.00  0.00     0.087 H 
ENDROOT
BRANCH   1   3
ATOM      3  N4  non d ame     -33.828   9.469  24.798  0.00  0.00    -0.346 N 
ATOM      4  C10 non d ame     -34.189   8.981  26.177  0.00  0.00     0.241 C 
ATOM      5  O4  non d ame     -33.390   8.403  26.838  0.00  0.00    -0.271 OA
ATOM      6  H19 non d ame     -34.494   9.960  24.218  0.00  0.00     0.163 HD
BRANCH   4   7
ATOM      7  C9  non d ame     -35.572   9.231  26.718  0.00  0.00     0.092 C 
ATOM      8  H11 non d ame     -35.508   9.434  27.787  0.00  0.00     0.088 H 
BRANCH   7   9
ATOM      9  N3  non d ame     -36.137  10.425  26.083  0.00  0.00    -0.346 N 
ATOM     10  C7  non d ame     -35.925  11.724  26.672  0.00  0.00     0.240 C 
ATOM     11  O3  non d ame     -35.303  11.826  27.658  0.00  0.00    -0.271 OA
ATOM     12  H10 non d ame     -36.678  10.351  25.233  0.00  0.00     0.163 HD
BRANCH  10  13
ATOM     13  C6  non d ame     -36.532  12.991  25.993  0.00  0.00     0.086 C 
ATOM     14  H6  non d ame     -37.386  13.393  26.537  0.00  0.00     0.086 H 
BRANCH  13  15
ATOM     15  N2  non d ame     -35.525  14.039  25.966  0.00  0.00    -0.343 N 
ATOM     16  C5  non d ame     -35.790  15.311  26.640  0.00  0.00     0.273 C 
ATOM     17  O2  non d ame     -36.817  15.484  27.199  0.00  0.00    -0.266 OA
ATOM     18  H5  non d ame     -34.651  13.884  25.483  0.00  0.00     0.163 HD
BRANCH  16  19
ATOM     19  C4  non d ame     -34.734  16.428  26.619  0.00  0.00     0.154 A 
ATOM     20  C1  non d ame     -34.271  17.201  27.731  0.00  0.00    -0.017 A 
ATOM     21  C2  non d ame     -33.312  18.083  27.185  0.00  0.00     0.077 A 
ATOM     22  H1  non d ame     -34.583  17.132  28.773  0.00  0.00     0.091 H 
ATOM     23  O1  non d ame     -33.239  17.836  25.911  0.00  0.00    -0.218 OA
ATOM     24  N1  non d ame     -34.060  16.874  25.556  0.00  0.00    -0.123 NA
BRANCH  21  25
ATOM     25  C3  non d ame     -32.510  19.127  27.950  0.00  0.00    -0.029 C 
ATOM     26  H2  non d ame     -31.583  18.682  28.310  0.00  0.00     0.036 H 
ATOM     27  H3  non d ame     -32.277  19.962  27.289  0.00  0.00     0.036 H 
ATOM     28  H4  non d ame     -33.094  19.486  28.797  0.00  0.00     0.036 H 
ENDBRANCH  21  25
ENDBRANCH  16  19
ENDBRANCH  13  15
BRANCH  13  29
ATOM     29  C8  non d ame     -36.964  12.653  24.589  0.00  0.00    -0.049 C 
ATOM     30  H7  non d ame     -36.091  12.401  23.989  0.00  0.00     0.030 H 
ATOM     31  H8  non d ame     -37.645  11.802  24.613  0.00  0.00     0.030 H 
ATOM     32  H9  non d ame     -37.472  13.513  24.149  0.00  0.00     0.030 H 
ENDBRANCH  13  29
ENDBRANCH  10  13
ENDBRANCH   7   9
BRANCH   7  33
ATOM     33  C11 non d ame     -36.479   8.004  26.409  0.00  0.00    -0.033 C 
ATOM     34  H12 non d ame     -36.005   7.438  25.608  0.00  0.00     0.042 H 
BRANCH  33  35
ATOM     35  C12 non d ame     -36.597   7.058  27.645  0.00  0.00    -0.071 C 
ATOM     36  H13 non d ame     -37.542   6.517  27.600  0.00  0.00     0.028 H 
ATOM     37  H14 non d ame     -35.770   6.348  27.640  0.00  0.00     0.028 H 
ATOM     38  H15 non d ame     -36.562   7.650  28.560  0.00  0.00     0.028 H 
ENDBRANCH  33  35
BRANCH  33  39
ATOM     39  C13 non d ame     -37.887   8.461  25.909  0.00  0.00    -0.071 C 
ATOM     40  H16 non d ame     -38.638   8.211  26.659  0.00  0.00     0.028 H 
ATOM     41  H17 non d ame     -37.882   9.539  25.743  0.00  0.00     0.028 H 
ATOM     42  H18 non d ame     -38.124   7.952  24.975  0.00  0.00     0.028 H 
ENDBRANCH  33  39
ENDBRANCH   7  33
ENDBRANCH   4   7
ENDBRANCH   1   3
BRANCH   1  43
ATOM     43  C15 non d ame     -31.615  10.485  24.572  0.00  0.00     0.240 C 
ATOM     44  O5  non d ame     -30.445  10.447  24.367  0.00  0.00    -0.271 OA
ATOM     45  N6  non d ame     -32.233  11.728  25.115  0.00  0.00    -0.355 N 
ATOM     46  H46 non d ame     -33.227  11.773  25.288  0.00  0.00     0.162 HD
BRANCH  45  47
ATOM     47  C20 non d ame     -31.383  12.903  25.403  0.00  0.00     0.013 C 
ATOM     48  H30 non d ame     -30.447  12.780  24.858  0.00  0.00     0.072 H 
BRANCH  47  49
ATOM     49  C21 non d ame     -31.112  12.972  26.889  0.00  0.00    -0.038 C 
ATOM     50  H31 non d ame     -31.011  11.937  27.218  0.00  0.00     0.036 H 
ATOM     51  H32 non d ame     -30.279  13.665  27.004  0.00  0.00     0.036 H 
BRANCH  49  52
ATOM     52  C22 non d ame     -32.292  13.571  27.686  0.00  0.00     0.018 C 
ATOM     53  H33 non d ame     -32.408  14.589  27.319  0.00  0.00     0.048 H 
ATOM     54  H34 non d ame     -33.109  12.856  27.584  0.00  0.00     0.048 H 
BRANCH  52  55
ATOM     55  C23 non d ame     -32.019  13.693  29.211  0.00  0.00     0.259 C 
ATOM     56  O7  non d ame     -31.169  14.420  29.615  0.00  0.00    -0.265 OA
BRANCH  55  57
ATOM     57  O8  non d ame     -32.787  12.915  30.121  0.00  0.00    -0.317 OA
BRANCH  57  58
ATOM     58  C29 non d ame     -32.342  11.561  30.250  0.00  0.00     0.052 C 
ATOM     59  H47 non d ame     -32.110  11.230  29.238  0.00  0.00     0.082 H 
ATOM     60  H48 non d ame     -31.563  11.577  31.011  0.00  0.00     0.082 H 
BRANCH  58  61
ATOM     61  C35 non d ame     -33.530  10.716  30.783  0.00  0.00    -0.034 A 
ATOM     62  C30 non d ame     -33.905   9.549  30.124  0.00  0.00    -0.075 A 
ATOM     63  C31 non d ame     -34.973   8.791  30.603  0.00  0.00    -0.082 A 
ATOM     64  H49 non d ame     -33.364   9.229  29.234  0.00  0.00     0.084 H 
ATOM     65  C32 non d ame     -35.667   9.203  31.743  0.00  0.00    -0.083 A 
ATOM     66  H50 non d ame     -35.263   7.875  30.086  0.00  0.00     0.083 H 
ATOM     67  C33 non d ame     -35.291  10.370  32.394  0.00  0.00    -0.082 A 
ATOM     68  H51 non d ame     -36.502   8.615  32.124  0.00  0.00     0.083 H 
ATOM     69  C34 non d ame     -34.224  11.131  31.921  0.00  0.00    -0.075 A 
ATOM     70  H52 non d ame     -35.837  10.691  33.283  0.00  0.00     0.083 H 
ATOM     71  H53 non d ame     -33.934  12.045  32.439  0.00  0.00     0.084 H 
ENDBRANCH  58  61
ENDBRANCH  57  58
ENDBRANCH  55  57
ENDBRANCH  52  55
ENDBRANCH  49  52
ENDBRANCH  47  49
BRANCH  47  72
ATOM     72  C24 non d ame     -32.095  14.177  24.954  0.00  0.00    -0.039 C 
ATOM     73  H35 non d ame     -33.118  13.874  24.731  0.00  0.00     0.036 H 
ATOM     74  H36 non d ame     -31.902  14.909  25.739  0.00  0.00     0.036 H 
BRANCH  72  75
ATOM     75  C25 non d ame     -31.468  14.761  23.600  0.00  0.00    -0.001 C 
ATOM     76  C26 non d ame     -30.447  13.657  22.935  0.00  0.00    -0.035 C 
ATOM     77  C27 non d ame     -29.262  14.260  22.675  0.00  0.00     0.085 C 
ATOM     78  H38 non d ame     -30.190  12.895  23.670  0.00  0.00     0.036 H 
ATOM     79  H39 non d ame     -30.805  13.363  21.948  0.00  0.00     0.036 H 
ATOM     80  N5  non d ame     -29.272  15.584  23.401  0.00  0.00    -0.049 N 
ATOM     81  H40 non d ame     -28.504  13.615  23.121  0.00  0.00     0.075 H 
ATOM     82  H41 non d ame     -29.258  14.444  21.602  0.00  0.00     0.075 H 
ATOM     83  C28 non d ame     -30.808  15.848  23.822  0.00  0.00     0.193 C 
ATOM     84  H42 non d ame     -28.727  15.453  24.241  0.00  0.00     0.280 HD
ATOM     85  H43 non d ame     -28.999  16.282  22.724  0.00  0.00     0.280 HD
ATOM     86  H44 non d ame     -31.417  16.565  23.270  0.00  0.00     0.129 H 
ATOM     87  H37 non d ame     -32.227  15.192  22.947  0.00  0.00     0.046 H 
BRANCH  83  88
ATOM     88  O6  non d ame     -30.882  16.255  25.189  0.00  0.00    -0.369 OA
ATOM     89  H45 non d ame     -30.021  16.569  25.477  0.00  0.00     0.212 HD
ENDBRANCH  83  88
ENDBRANCH  72  75
ENDBRANCH  47  72
ENDBRANCH  45  47
ENDBRANCH   1  43
BRANCH   1  90
ATOM     90  C16 non d ame     -32.590   9.043  22.757  0.00  0.00    -0.035 C 
ATOM     91  H21 non d ame     -33.613   8.719  22.573  0.00  0.00     0.037 H 
ATOM     92  H22 non d ame     -32.226   9.974  22.321  0.00  0.00     0.037 H 
BRANCH  90  93
ATOM     93  C17 non d ame     -31.664   7.909  22.214  0.00  0.00    -0.059 C 
ATOM     94  H23 non d ame     -32.163   7.458  21.356  0.00  0.00     0.038 H 
BRANCH  93  95
ATOM     95  C18 non d ame     -30.284   8.456  21.728  0.00  0.00    -0.073 C 
ATOM     96  H24 non d ame     -29.655   8.674  22.591  0.00  0.00     0.028 H 
ATOM     97  H25 non d ame     -29.796   7.708  21.104  0.00  0.00     0.028 H 
ATOM     98  H26 non d ame     -30.437   9.367  21.150  0.00  0.00     0.028 H 
ENDBRANCH  93  95
BRANCH  93  99
ATOM     99  C19 non d ame     -31.475   6.808  23.261  0.00  0.00    -0.073 C 
ATOM    100  H27 non d ame     -32.189   6.004  23.076  0.00  0.00     0.028 H 
ATOM    101  H28 non d ame     -30.460   6.414  23.197  0.00  0.00     0.028 H 
ATOM    102  H29 non d ame     -31.642   7.221  24.256  0.00  0.00     0.028 H 
ENDBRANCH  93  99
ENDBRANCH  90  93
ENDBRANCH   1  90
TORSDOF 26
ENDMDL
MODEL 7
REMARK VINA RESULT:      -6.2      3.081      6.956
REMARK  26 active torsions:
REMARK  status: ('A' for Active; 'I' for Inactive)
REMARK    1  A    between atoms: C2_2  and  C3_3 
REMARK    2  A    between atoms: C4_6  and  C5_7 
REMARK       I    between atoms: C5_7  and  N2_9 
REMARK    3  A    between atoms: N2_9  and  C6_10 
REMARK    4  A    between atoms: C6_10  and  C7_11 
REMARK    5  A    between atoms: C6_10  and  C8_13 
REMARK       I    between atoms: C7_11  and  N3_14 
REMARK    6  A    between atoms: N3_14  and  C9_15 
REMARK    7  A    between atoms: C9_15  and  C10_16 
REMARK    8  A    between atoms: C9_15  and  C11_18 
REMARK       I    between atoms: C10_16  and  N4_21 
REMARK    9  A    between atoms: C11_18  and  C12_19 
REMARK   10  A    between atoms: C11_18  and  C13_20 
REMARK   11  A    between atoms: N4_21  and  C14_22 
REMARK   12  A    between atoms: C14_22  and  C15_23 
REMARK   13  A    between atoms: C14_22  and  C16_25 
REMARK       I    between atoms: C15_23  and  N6_40 
REMARK   14  A    between atoms: C16_25  and  C17_26 
REMARK   15  A    between atoms: C17_26  and  C18_27 
REMARK   16  A    between atoms: C17_26  and  C19_28 
REMARK   17  A    between atoms: C20_29  and  C21_30 
REMARK   18  A    between atoms: C20_29  and  C24_33 
REMARK   19  A    between atoms: C20_29  and  N6_40 
REMARK   20  A    between atoms: C21_30  and  C22_31 
REMARK   21  A    between atoms: C22_31  and  C23_32 
REMARK   22  A    between atoms: C23_32  and  O8_43 
REMARK   23  A    between atoms: C24_33  and  C25_34 
REMARK   24  A    between atoms: C28_38  and  O6_39 
REMARK   25  A    between atoms: C29_42  and  O8_43 
REMARK   26  A    between atoms: C29_42  and  C35_49 
ROOT
ATOM      1  C14 non d ame     -36.100  13.050  26.075  0.00  0.00     0.089 C 
ATOM      2  H20 non d ame     -36.812  12.890  26.885  0.00  0.00     0.087 H 
ENDROOT
BRANCH   1   3
ATOM      3  N4  non d ame     -35.829  14.478  26.004  0.00  0.00    -0.346 N 
ATOM      4  C10 non d ame     -36.862  15.472  26.469  0.00  0.00     0.241 C 
ATOM      5  O4  non d ame     -37.905  15.101  26.896  0.00  0.00    -0.271 OA
ATOM      6  H19 non d ame     -34.937  14.774  25.636  0.00  0.00     0.163 HD
BRANCH   4   7
ATOM      7  C9  non d ame     -36.564  16.947  26.393  0.00  0.00     0.092 C 
ATOM      8  H11 non d ame     -36.895  17.428  27.313  0.00  0.00     0.088 H 
BRANCH   7   9
ATOM      9  N3  non d ame     -35.115  17.149  26.296  0.00  0.00    -0.346 N 
ATOM     10  C7  non d ame     -34.369  17.581  27.452  0.00  0.00     0.240 C 
ATOM     11  O3  non d ame     -34.918  17.773  28.467  0.00  0.00    -0.271 OA
ATOM     12  H10 non d ame     -34.628  16.989  25.426  0.00  0.00     0.163 HD
BRANCH  10  13
ATOM     13  C6  non d ame     -32.827  17.797  27.342  0.00  0.00     0.086 C 
ATOM     14  H6  non d ame     -32.267  17.215  28.073  0.00  0.00     0.086 H 
BRANCH  13  15
ATOM     15  N2  non d ame     -32.382  17.358  26.030  0.00  0.00    -0.343 N 
ATOM     16  C5  non d ame     -31.779  16.032  25.880  0.00  0.00     0.273 C 
ATOM     17  O2  non d ame     -31.654  15.327  26.821  0.00  0.00    -0.266 OA
ATOM     18  H5  non d ame     -32.489  17.967  25.232  0.00  0.00     0.163 HD
BRANCH  16  19
ATOM     19  C4  non d ame     -31.304  15.554  24.499  0.00  0.00     0.154 A 
ATOM     20  C1  non d ame     -30.560  14.368  24.203  0.00  0.00    -0.017 A 
ATOM     21  C2  non d ame     -30.380  14.393  22.802  0.00  0.00     0.077 A 
ATOM     22  H1  non d ame     -30.205  13.607  24.898  0.00  0.00     0.091 H 
ATOM     23  O1  non d ame     -30.957  15.469  22.355  0.00  0.00    -0.218 OA
ATOM     24  N1  non d ame     -31.504  16.163  23.327  0.00  0.00    -0.123 NA
BRANCH  21  25
ATOM     25  C3  non d ame     -29.646  13.351  21.969  0.00  0.00    -0.029 C 
ATOM     26  H2  non d ame     -28.770  13.805  21.507  0.00  0.00     0.036 H 
ATOM     27  H3  non d ame     -29.331  12.528  22.611  0.00  0.00     0.036 H 
ATOM     28  H4  non d ame     -30.310  12.971  21.193  0.00  0.00     0.036 H 
ENDBRANCH  21  25
ENDBRANCH  16  19
ENDBRANCH  13  15
BRANCH  13  29
ATOM     29  C8  non d ame     -32.507  19.258  27.534  0.00  0.00    -0.049 C 
ATOM     30  H7  non d ame     -31.672  19.359  28.227  0.00  0.00     0.030 H 
ATOM     31  H8  non d ame     -32.237  19.700  26.575  0.00  0.00     0.030 H 
ATOM     32  H9  non d ame     -33.380  19.771  27.939  0.00  0.00     0.030 H 
ENDBRANCH  13  29
ENDBRANCH  10  13
ENDBRANCH   7   9
BRANCH   7  33
ATOM     33  C11 non d ame     -37.254  17.551  25.134  0.00  0.00    -0.033 C 
ATOM     34  H12 non d ame     -36.578  18.296  24.714  0.00  0.00     0.042 H 
BRANCH  33  35
ATOM     35  C12 non d ame     -37.490  16.463  24.040  0.00  0.00    -0.071 C 
ATOM     36  H13 non d ame     -38.018  16.906  23.195  0.00  0.00     0.028 H 
ATOM     37  H14 non d ame     -36.531  16.071  23.704  0.00  0.00     0.028 H 
ATOM     38  H15 non d ame     -38.088  15.653  24.457  0.00  0.00     0.028 H 
ENDBRANCH  33  35
BRANCH  33  39
ATOM     39  C13 non d ame     -38.587  18.268  25.517  0.00  0.00    -0.071 C 
ATOM     40  H16 non d ame     -38.715  19.154  24.895  0.00  0.00     0.028 H 
ATOM     41  H17 non d ame     -39.425  17.588  25.360  0.00  0.00     0.028 H 
ATOM     42  H18 non d ame     -38.553  18.564  26.566  0.00  0.00     0.028 H 
ENDBRANCH  33  39
ENDBRANCH   7  33
ENDBRANCH   4   7
ENDBRANCH   1   3
BRANCH   1  43
ATOM     43  C15 non d ame     -34.757  12.303  26.320  0.00  0.00     0.240 C 
ATOM     44  O5  non d ame     -33.729  12.822  26.025  0.00  0.00    -0.271 OA
ATOM     45  N6  non d ame     -34.751  10.944  26.933  0.00  0.00    -0.355 N 
ATOM     46  H46 non d ame     -35.617  10.494  27.192  0.00  0.00     0.162 HD
BRANCH  45  47
ATOM     47  C20 non d ame     -33.465  10.248  27.159  0.00  0.00     0.013 C 
ATOM     48  H30 non d ame     -32.667  10.894  26.795  0.00  0.00     0.072 H 
BRANCH  47  49
ATOM     49  C21 non d ame     -33.463   8.941  26.399  0.00  0.00    -0.038 C 
ATOM     50  H31 non d ame     -34.466   8.531  26.516  0.00  0.00     0.036 H 
ATOM     51  H32 non d ame     -33.084   9.180  25.405  0.00  0.00     0.036 H 
BRANCH  49  52
ATOM     52  C22 non d ame     -32.491   7.901  26.998  0.00  0.00     0.018 C 
ATOM     53  H33 non d ame     -31.491   8.286  26.804  0.00  0.00     0.048 H 
ATOM     54  H34 non d ame     -32.826   7.742  28.023  0.00  0.00     0.048 H 
BRANCH  52  55
ATOM     55  C23 non d ame     -32.558   6.512  26.306  0.00  0.00     0.259 C 
ATOM     56  O7  non d ame     -33.394   5.724  26.613  0.00  0.00    -0.265 OA
BRANCH  55  57
ATOM     57  O8  non d ame     -31.598   6.183  25.308  0.00  0.00    -0.317 OA
BRANCH  57  58
ATOM     58  C29 non d ame     -32.048   6.411  23.970  0.00  0.00     0.052 C 
ATOM     59  H47 non d ame     -31.840   5.489  23.427  0.00  0.00     0.082 H 
ATOM     60  H48 non d ame     -33.072   6.772  24.060  0.00  0.00     0.082 H 
BRANCH  58  61
ATOM     61  C35 non d ame     -31.181   7.545  23.360  0.00  0.00    -0.034 A 
ATOM     62  C30 non d ame     -29.898   7.268  22.897  0.00  0.00    -0.075 A 
ATOM     63  C31 non d ame     -29.118   8.287  22.351  0.00  0.00    -0.082 A 
ATOM     64  H49 non d ame     -29.503   6.255  22.964  0.00  0.00     0.084 H 
ATOM     65  C32 non d ame     -29.625   9.587  22.269  0.00  0.00    -0.083 A 
ATOM     66  H50 non d ame     -28.114   8.067  21.987  0.00  0.00     0.083 H 
ATOM     67  C33 non d ame     -30.904   9.858  22.736  0.00  0.00    -0.082 A 
ATOM     68  H51 non d ame     -29.023  10.389  21.842  0.00  0.00     0.083 H 
ATOM     69  C34 non d ame     -31.687   8.843  23.281  0.00  0.00    -0.075 A 
ATOM     70  H52 non d ame     -31.296  10.875  22.673  0.00  0.00     0.083 H 
ATOM     71  H53 non d ame     -32.691   9.064  23.644  0.00  0.00     0.084 H 
ENDBRANCH  58  61
ENDBRANCH  57  58
ENDBRANCH  55  57
ENDBRANCH  52  55
ENDBRANCH  49  52
ENDBRANCH  47  49
BRANCH  47  72
ATOM     72  C24 non d ame     -33.284   9.972  28.651  0.00  0.00    -0.039 C 
ATOM     73  H35 non d ame     -34.245   9.583  28.992  0.00  0.00     0.036 H 
ATOM     74  H36 non d ame     -32.390   9.353  28.725  0.00  0.00     0.036 H 
BRANCH  72  75
ATOM     75  C25 non d ame     -32.999  11.317  29.473  0.00  0.00    -0.001 C 
ATOM     76  C26 non d ame     -31.610  12.015  28.938  0.00  0.00    -0.035 C 
ATOM     77  C27 non d ame     -30.812  12.270  30.002  0.00  0.00     0.085 C 
ATOM     78  H38 non d ame     -31.033  11.301  28.352  0.00  0.00     0.036 H 
ATOM     79  H39 non d ame     -31.821  13.006  28.535  0.00  0.00     0.036 H 
ATOM     80  N5  non d ame     -31.386  11.513  31.176  0.00  0.00    -0.049 N 
ATOM     81  H40 non d ame     -29.841  11.846  29.746  0.00  0.00     0.075 H 
ATOM     82  H41 non d ame     -30.907  13.339  30.188  0.00  0.00     0.075 H 
ATOM     83  C28 non d ame     -32.876  11.075  30.735  0.00  0.00     0.193 C 
ATOM     84  H42 non d ame     -30.825  10.681  31.282  0.00  0.00     0.280 HD
ATOM     85  H43 non d ame     -31.457  12.176  31.935  0.00  0.00     0.280 HD
ATOM     86  H44 non d ame     -33.746  11.605  31.124  0.00  0.00     0.129 H 
ATOM     87  H37 non d ame     -33.881  11.954  29.540  0.00  0.00     0.046 H 
BRANCH  83  88
ATOM     88  O6  non d ame     -33.097   9.698  31.045  0.00  0.00    -0.369 OA
ATOM     89  H45 non d ame     -33.975   9.441  30.753  0.00  0.00     0.212 HD
ENDBRANCH  83  88
ENDBRANCH  72  75
ENDBRANCH  47  72
ENDBRANCH  45  47
ENDBRANCH   1  43
BRANCH   1  90
ATOM     90  C16 non d ame     -36.706  12.592  24.758  0.00  0.00    -0.035 C 
ATOM     91  H21 non d ame     -36.780  13.490  24.147  0.00  0.00     0.037 H 
ATOM     92  H22 non d ame     -36.086  11.757  24.430  0.00  0.00     0.037 H 
BRANCH  90  93
ATOM     93  C17 non d ame     -38.159  12.035  24.898  0.00  0.00    -0.059 C 
ATOM     94  H23 non d ame     -38.669  12.629  25.656  0.00  0.00     0.038 H 
BRANCH  93  95
ATOM     95  C18 non d ame     -38.969  12.161  23.569  0.00  0.00    -0.073 C 
ATOM     96  H24 non d ame     -39.901  11.603  23.657  0.00  0.00     0.028 H 
ATOM     97  H25 non d ame     -39.193  13.211  23.379  0.00  0.00     0.028 H 
ATOM     98  H26 non d ame     -38.381  11.759  22.745  0.00  0.00     0.028 H 
ENDBRANCH  93  95
BRANCH  93  99
ATOM     99  C19 non d ame     -38.143  10.585  25.391  0.00  0.00    -0.073 C 
ATOM    100  H27 non d ame     -37.381  10.025  24.847  0.00  0.00     0.028 H 
ATOM    101  H28 non d ame     -37.917  10.565  26.457  0.00  0.00     0.028 H 
ATOM    102  H29 non d ame     -39.119  10.132  25.218  0.00  0.00     0.028 H 
ENDBRANCH  93  99
ENDBRANCH  90  93
ENDBRANCH   1  90
TORSDOF 26
ENDMDL
MODEL 8
REMARK VINA RESULT:      -6.1      3.379      6.986
REMARK  26 active torsions:
REMARK  status: ('A' for Active; 'I' for Inactive)
REMARK    1  A    between atoms: C2_2  and  C3_3 
REMARK    2  A    between atoms: C4_6  and  C5_7 
REMARK       I    between atoms: C5_7  and  N2_9 
REMARK    3  A    between atoms: N2_9  and  C6_10 
REMARK    4  A    between atoms: C6_10  and  C7_11 
REMARK    5  A    between atoms: C6_10  and  C8_13 
REMARK       I    between atoms: C7_11  and  N3_14 
REMARK    6  A    between atoms: N3_14  and  C9_15 
REMARK    7  A    between atoms: C9_15  and  C10_16 
REMARK    8  A    between atoms: C9_15  and  C11_18 
REMARK       I    between atoms: C10_16  and  N4_21 
REMARK    9  A    between atoms: C11_18  and  C12_19 
REMARK   10  A    between atoms: C11_18  and  C13_20 
REMARK   11  A    between atoms: N4_21  and  C14_22 
REMARK   12  A    between atoms: C14_22  and  C15_23 
REMARK   13  A    between atoms: C14_22  and  C16_25 
REMARK       I    between atoms: C15_23  and  N6_40 
REMARK   14  A    between atoms: C16_25  and  C17_26 
REMARK   15  A    between atoms: C17_26  and  C18_27 
REMARK   16  A    between atoms: C17_26  and  C19_28 
REMARK   17  A    between atoms: C20_29  and  C21_30 
REMARK   18  A    between atoms: C20_29  and  C24_33 
REMARK   19  A    between atoms: C20_29  and  N6_40 
REMARK   20  A    between atoms: C21_30  and  C22_31 
REMARK   21  A    between atoms: C22_31  and  C23_32 
REMARK   22  A    between atoms: C23_32  and  O8_43 
REMARK   23  A    between atoms: C24_33  and  C25_34 
REMARK   24  A    between atoms: C28_38  and  O6_39 
REMARK   25  A    between atoms: C29_42  and  O8_43 
REMARK   26  A    between atoms: C29_42  and  C35_49 
ROOT
ATOM      1  C14 non d ame     -34.229   9.615  27.271  0.00  0.00     0.089 C 
ATOM      2  H20 non d ame     -33.535   8.973  27.813  0.00  0.00     0.087 H 
ENDROOT
BRANCH   1   3
ATOM      3  N4  non d ame     -33.654  10.952  27.236  0.00  0.00    -0.346 N 
ATOM      4  C10 non d ame     -32.174  11.139  27.023  0.00  0.00     0.241 C 
ATOM      5  O4  non d ame     -31.463  10.198  26.884  0.00  0.00    -0.271 OA
ATOM      6  H19 non d ame     -34.275  11.739  27.359  0.00  0.00     0.163 HD
BRANCH   4   7
ATOM      7  C9  non d ame     -31.596  12.529  26.985  0.00  0.00     0.092 C 
ATOM      8  H11 non d ame     -30.575  12.483  26.610  0.00  0.00     0.088 H 
BRANCH   7   9
ATOM      9  N3  non d ame     -32.366  13.353  26.048  0.00  0.00    -0.346 N 
ATOM     10  C7  non d ame     -31.681  14.187  25.091  0.00  0.00     0.240 C 
ATOM     11  O3  non d ame     -30.511  14.208  25.062  0.00  0.00    -0.271 OA
ATOM     12  H10 non d ame     -33.376  13.347  26.063  0.00  0.00     0.163 HD
BRANCH  10  13
ATOM     13  C6  non d ame     -32.505  15.064  24.099  0.00  0.00     0.086 C 
ATOM     14  H6  non d ame     -33.428  14.582  23.777  0.00  0.00     0.086 H 
BRANCH  13  15
ATOM     15  N2  non d ame     -32.891  16.296  24.766  0.00  0.00    -0.343 N 
ATOM     16  C5  non d ame     -34.145  16.347  25.519  0.00  0.00     0.273 C 
ATOM     17  O2  non d ame     -34.840  15.392  25.580  0.00  0.00    -0.266 OA
ATOM     18  H5  non d ame     -32.293  17.109  24.706  0.00  0.00     0.163 HD
BRANCH  16  19
ATOM     19  C4  non d ame     -34.565  17.644  26.230  0.00  0.00     0.154 A 
ATOM     20  C1  non d ame     -35.485  18.631  25.756  0.00  0.00    -0.017 A 
ATOM     21  C2  non d ame     -35.520  19.612  26.771  0.00  0.00     0.077 A 
ATOM     22  H1  non d ame     -36.043  18.634  24.819  0.00  0.00     0.091 H 
ATOM     23  O1  non d ame     -34.712  19.225  27.713  0.00  0.00    -0.218 OA
ATOM     24  N1  non d ame     -34.143  18.078  27.420  0.00  0.00    -0.123 NA
BRANCH  21  25
ATOM     25  C3  non d ame     -36.351  20.888  26.763  0.00  0.00    -0.029 C 
ATOM     26  H2  non d ame     -37.125  20.822  27.528  0.00  0.00     0.036 H 
ATOM     27  H3  non d ame     -35.708  21.743  26.973  0.00  0.00     0.036 H 
ATOM     28  H4  non d ame     -36.816  21.015  25.786  0.00  0.00     0.036 H 
ENDBRANCH  21  25
ENDBRANCH  16  19
ENDBRANCH  13  15
BRANCH  13  29
ATOM     29  C8  non d ame     -31.669  15.374  22.884  0.00  0.00    -0.049 C 
ATOM     30  H7  non d ame     -30.712  15.789  23.197  0.00  0.00     0.030 H 
ATOM     31  H8  non d ame     -31.498  14.459  22.317  0.00  0.00     0.030 H 
ATOM     32  H9  non d ame     -32.192  16.098  22.257  0.00  0.00     0.030 H 
ENDBRANCH  13  29
ENDBRANCH  10  13
ENDBRANCH   7   9
BRANCH   7  33
ATOM     33  C11 non d ame     -31.671  13.160  28.407  0.00  0.00    -0.033 C 
ATOM     34  H12 non d ame     -31.780  12.346  29.123  0.00  0.00     0.042 H 
BRANCH  33  35
ATOM     35  C12 non d ame     -30.354  13.921  28.760  0.00  0.00    -0.071 C 
ATOM     36  H13 non d ame     -30.366  14.905  28.289  0.00  0.00     0.028 H 
ATOM     37  H14 non d ame     -30.279  14.036  29.840  0.00  0.00     0.028 H 
ATOM     38  H15 non d ame     -29.498  13.355  28.393  0.00  0.00     0.028 H 
ENDBRANCH  33  35
BRANCH  33  39
ATOM     39  C13 non d ame     -32.917  14.092  28.541  0.00  0.00    -0.071 C 
ATOM     40  H16 non d ame     -33.814  13.484  28.665  0.00  0.00     0.028 H 
ATOM     41  H17 non d ame     -32.794  14.742  29.408  0.00  0.00     0.028 H 
ATOM     42  H18 non d ame     -33.014  14.702  27.643  0.00  0.00     0.028 H 
ENDBRANCH  33  39
ENDBRANCH   7  33
ENDBRANCH   4   7
ENDBRANCH   1   3
BRANCH   1  43
ATOM     43  C15 non d ame     -34.453   9.134  25.808  0.00  0.00     0.240 C 
ATOM     44  O5  non d ame     -35.482   9.367  25.260  0.00  0.00    -0.271 OA
ATOM     45  N6  non d ame     -33.381   8.391  25.087  0.00  0.00    -0.355 N 
ATOM     46  H46 non d ame     -32.501   8.191  25.540  0.00  0.00     0.162 HD
BRANCH  45  47
ATOM     47  C20 non d ame     -33.610   7.942  23.696  0.00  0.00     0.013 C 
ATOM     48  H30 non d ame     -34.679   8.006  23.495  0.00  0.00     0.072 H 
BRANCH  47  49
ATOM     49  C21 non d ame     -33.141   6.512  23.549  0.00  0.00    -0.038 C 
ATOM     50  H31 non d ame     -34.047   5.912  23.465  0.00  0.00     0.036 H 
ATOM     51  H32 non d ame     -32.416   6.522  22.735  0.00  0.00     0.036 H 
BRANCH  49  52
ATOM     52  C22 non d ame     -32.389   5.996  24.796  0.00  0.00     0.018 C 
ATOM     53  H33 non d ame     -31.615   5.330  24.419  0.00  0.00     0.048 H 
ATOM     54  H34 non d ame     -32.116   6.886  25.364  0.00  0.00     0.048 H 
BRANCH  52  55
ATOM     55  C23 non d ame     -33.269   5.137  25.746  0.00  0.00     0.259 C 
ATOM     56  O7  non d ame     -33.402   3.971  25.555  0.00  0.00    -0.265 OA
BRANCH  55  57
ATOM     57  O8  non d ame     -33.928   5.762  26.842  0.00  0.00    -0.317 OA
BRANCH  57  58
ATOM     58  C29 non d ame     -33.611   5.190  28.114  0.00  0.00     0.052 C 
ATOM     59  H47 non d ame     -33.566   4.114  27.951  0.00  0.00     0.082 H 
ATOM     60  H48 non d ame     -32.731   5.726  28.468  0.00  0.00     0.082 H 
BRANCH  58  61
ATOM     61  C35 non d ame     -34.789   5.492  29.080  0.00  0.00    -0.034 A 
ATOM     62  C30 non d ame     -36.032   5.853  28.570  0.00  0.00    -0.075 A 
ATOM     63  C31 non d ame     -37.090   6.125  29.437  0.00  0.00    -0.082 A 
ATOM     64  H49 non d ame     -36.178   5.924  27.492  0.00  0.00     0.084 H 
ATOM     65  C32 non d ame     -36.900   6.036  30.819  0.00  0.00    -0.083 A 
ATOM     66  H50 non d ame     -38.064   6.406  29.035  0.00  0.00     0.083 H 
ATOM     67  C33 non d ame     -35.656   5.680  31.323  0.00  0.00    -0.082 A 
ATOM     68  H51 non d ame     -37.722   6.246  31.504  0.00  0.00     0.083 H 
ATOM     69  C34 non d ame     -34.597   5.406  30.460  0.00  0.00    -0.075 A 
ATOM     70  H52 non d ame     -35.510   5.614  32.402  0.00  0.00     0.083 H 
ATOM     71  H53 non d ame     -33.624   5.125  30.863  0.00  0.00     0.084 H 
ENDBRANCH  58  61
ENDBRANCH  57  58
ENDBRANCH  55  57
ENDBRANCH  52  55
ENDBRANCH  49  52
ENDBRANCH  47  49
BRANCH  47  72
ATOM     72  C24 non d ame     -32.834   8.835  22.731  0.00  0.00    -0.039 C 
ATOM     73  H35 non d ame     -32.727   8.250  21.817  0.00  0.00     0.036 H 
ATOM     74  H36 non d ame     -33.377   9.781  22.711  0.00  0.00     0.036 H 
BRANCH  72  75
ATOM     75  C25 non d ame     -31.358   9.148  23.268  0.00  0.00    -0.001 C 
ATOM     76  C26 non d ame     -31.176  10.766  23.494  0.00  0.00    -0.035 C 
ATOM     77  C27 non d ame     -30.051  11.173  22.858  0.00  0.00     0.085 C 
ATOM     78  H38 non d ame     -31.969  11.308  22.980  0.00  0.00     0.036 H 
ATOM     79  H39 non d ame     -30.965  10.977  24.543  0.00  0.00     0.036 H 
ATOM     80  N5  non d ame     -29.628  10.044  21.948  0.00  0.00    -0.049 N 
ATOM     81  H40 non d ame     -30.353  12.026  22.251  0.00  0.00     0.075 H 
ATOM     82  H41 non d ame     -29.303  11.298  23.640  0.00  0.00     0.075 H 
ATOM     83  C28 non d ame     -30.461   8.749  22.430  0.00  0.00     0.193 C 
ATOM     84  H42 non d ame     -29.933  10.296  21.019  0.00  0.00     0.280 HD
ATOM     85  H43 non d ame     -28.647   9.883  22.131  0.00  0.00     0.280 HD
ATOM     86  H44 non d ame     -29.978   7.966  23.015  0.00  0.00     0.129 H 
ATOM     87  H37 non d ame     -31.073   8.497  24.094  0.00  0.00     0.046 H 
BRANCH  83  88
ATOM     88  O6  non d ame     -31.035   8.085  21.302  0.00  0.00    -0.369 OA
ATOM     89  H45 non d ame     -31.270   8.733  20.634  0.00  0.00     0.212 HD
ENDBRANCH  83  88
ENDBRANCH  72  75
ENDBRANCH  47  72
ENDBRANCH  45  47
ENDBRANCH   1  43
BRANCH   1  90
ATOM     90  C16 non d ame     -35.561   9.665  28.002  0.00  0.00    -0.035 C 
ATOM     91  H21 non d ame     -36.089  10.520  27.581  0.00  0.00     0.037 H 
ATOM     92  H22 non d ame     -35.980   8.664  27.907  0.00  0.00     0.037 H 
BRANCH  90  93
ATOM     93  C17 non d ame     -35.425   9.944  29.533  0.00  0.00    -0.059 C 
ATOM     94  H23 non d ame     -35.123  10.984  29.654  0.00  0.00     0.038 H 
BRANCH  93  95
ATOM     95  C18 non d ame     -36.777   9.749  30.290  0.00  0.00    -0.073 C 
ATOM     96  H24 non d ame     -36.776  10.353  31.198  0.00  0.00     0.028 H 
ATOM     97  H25 non d ame     -37.601  10.062  29.649  0.00  0.00     0.028 H 
ATOM     98  H26 non d ame     -36.899   8.699  30.553  0.00  0.00     0.028 H 
ENDBRANCH  93  95
BRANCH  93  99
ATOM     99  C19 non d ame     -34.325   9.076  30.151  0.00  0.00    -0.073 C 
ATOM    100  H27 non d ame     -34.577   8.855  31.189  0.00  0.00     0.028 H 
ATOM    101  H28 non d ame     -34.240   8.144  29.592  0.00  0.00     0.028 H 
ATOM    102  H29 non d ame     -33.376   9.611  30.113  0.00  0.00     0.028 H 
ENDBRANCH  93  99
ENDBRANCH  90  93
ENDBRANCH   1  90
TORSDOF 26
ENDMDL
MODEL 9
REMARK VINA RESULT:      -6.1      3.367      9.331
REMARK  26 active torsions:
REMARK  status: ('A' for Active; 'I' for Inactive)
REMARK    1  A    between atoms: C2_2  and  C3_3 
REMARK    2  A    between atoms: C4_6  and  C5_7 
REMARK       I    between atoms: C5_7  and  N2_9 
REMARK    3  A    between atoms: N2_9  and  C6_10 
REMARK    4  A    between atoms: C6_10  and  C7_11 
REMARK    5  A    between atoms: C6_10  and  C8_13 
REMARK       I    between atoms: C7_11  and  N3_14 
REMARK    6  A    between atoms: N3_14  and  C9_15 
REMARK    7  A    between atoms: C9_15  and  C10_16 
REMARK    8  A    between atoms: C9_15  and  C11_18 
REMARK       I    between atoms: C10_16  and  N4_21 
REMARK    9  A    between atoms: C11_18  and  C12_19 
REMARK   10  A    between atoms: C11_18  and  C13_20 
REMARK   11  A    between atoms: N4_21  and  C14_22 
REMARK   12  A    between atoms: C14_22  and  C15_23 
REMARK   13  A    between atoms: C14_22  and  C16_25 
REMARK       I    between atoms: C15_23  and  N6_40 
REMARK   14  A    between atoms: C16_25  and  C17_26 
REMARK   15  A    between atoms: C17_26  and  C18_27 
REMARK   16  A    between atoms: C17_26  and  C19_28 
REMARK   17  A    between atoms: C20_29  and  C21_30 
REMARK   18  A    between atoms: C20_29  and  C24_33 
REMARK   19  A    between atoms: C20_29  and  N6_40 
REMARK   20  A    between atoms: C21_30  and  C22_31 
REMARK   21  A    between atoms: C22_31  and  C23_32 
REMARK   22  A    between atoms: C23_32  and  O8_43 
REMARK   23  A    between atoms: C24_33  and  C25_34 
REMARK   24  A    between atoms: C28_38  and  O6_39 
REMARK   25  A    between atoms: C29_42  and  O8_43 
REMARK   26  A    between atoms: C29_42  and  C35_49 
ROOT
ATOM      1  C14 non d ame     -33.384  11.801  28.419  0.00  0.00     0.089 C 
ATOM      2  H20 non d ame     -33.577  12.224  29.405  0.00  0.00     0.087 H 
ENDROOT
BRANCH   1   3
ATOM      3  N4  non d ame     -33.988  10.478  28.383  0.00  0.00    -0.346 N 
ATOM      4  C10 non d ame     -34.092   9.653  29.640  0.00  0.00     0.241 C 
ATOM      5  O4  non d ame     -33.681  10.074  30.671  0.00  0.00    -0.271 OA
ATOM      6  H19 non d ame     -34.329  10.136  27.495  0.00  0.00     0.163 HD
BRANCH   4   7
ATOM      7  C9  non d ame     -34.725   8.287  29.585  0.00  0.00     0.092 C 
ATOM      8  H11 non d ame     -35.697   8.361  29.098  0.00  0.00     0.088 H 
BRANCH   7   9
ATOM      9  N3  non d ame     -33.897   7.397  28.765  0.00  0.00    -0.346 N 
ATOM     10  C7  non d ame     -34.177   7.244  27.359  0.00  0.00     0.240 C 
ATOM     11  O3  non d ame     -35.065   7.829  26.871  0.00  0.00    -0.271 OA
ATOM     12  H10 non d ame     -33.128   6.885  29.174  0.00  0.00     0.163 HD
BRANCH  10  13
ATOM     13  C6  non d ame     -33.294   6.294  26.493  0.00  0.00     0.086 C 
ATOM     14  H6  non d ame     -33.873   5.734  25.758  0.00  0.00     0.086 H 
BRANCH  13  15
ATOM     15  N2  non d ame     -32.334   7.090  25.747  0.00  0.00    -0.343 N 
ATOM     16  C5  non d ame     -32.649   7.505  24.379  0.00  0.00     0.273 C 
ATOM     17  O2  non d ame     -33.675   7.190  23.884  0.00  0.00    -0.266 OA
ATOM     18  H5  non d ame     -31.458   7.352  26.176  0.00  0.00     0.163 HD
BRANCH  16  19
ATOM     19  C4  non d ame     -31.643   8.348  23.579  0.00  0.00     0.154 A 
ATOM     20  C1  non d ame     -31.455   9.765  23.647  0.00  0.00    -0.017 A 
ATOM     21  C2  non d ame     -30.422  10.039  22.724  0.00  0.00     0.077 A 
ATOM     22  H1  non d ame     -31.987  10.483  24.271  0.00  0.00     0.091 H 
ATOM     23  O1  non d ame     -30.064   8.906  22.194  0.00  0.00    -0.218 OA
ATOM     24  N1  non d ame     -30.762   7.905  22.678  0.00  0.00    -0.123 NA
BRANCH  21  25
ATOM     25  C3  non d ame     -29.835  11.408  22.408  0.00  0.00    -0.029 C 
ATOM     26  H2  non d ame     -30.039  11.660  21.368  0.00  0.00     0.036 H 
ATOM     27  H3  non d ame     -30.288  12.157  23.057  0.00  0.00     0.036 H 
ATOM     28  H4  non d ame     -28.758  11.389  22.573  0.00  0.00     0.036 H 
ENDBRANCH  21  25
ENDBRANCH  16  19
ENDBRANCH  13  15
BRANCH  13  29
ATOM     29  C8  non d ame     -32.573   5.319  27.388  0.00  0.00    -0.049 C 
ATOM     30  H7  non d ame     -32.206   4.482  26.794  0.00  0.00     0.030 H 
ATOM     31  H8  non d ame     -31.732   5.819  27.868  0.00  0.00     0.030 H 
ATOM     32  H9  non d ame     -33.259   4.949  28.151  0.00  0.00     0.030 H 
ENDBRANCH  13  29
ENDBRANCH  10  13
ENDBRANCH   7   9
BRANCH   7  33
ATOM     33  C11 non d ame     -34.834   7.708  31.027  0.00  0.00    -0.033 C 
ATOM     34  H12 non d ame     -33.961   8.048  31.584  0.00  0.00     0.042 H 
BRANCH  33  35
ATOM     35  C12 non d ame     -36.100   8.249  31.761  0.00  0.00    -0.071 C 
ATOM     36  H13 non d ame     -35.912   9.265  32.109  0.00  0.00     0.028 H 
ATOM     37  H14 non d ame     -36.946   8.250  31.075  0.00  0.00     0.028 H 
ATOM     38  H15 non d ame     -36.325   7.610  32.615  0.00  0.00     0.028 H 
ENDBRANCH  33  35
BRANCH  33  39
ATOM     39  C13 non d ame     -34.814   6.146  31.005  0.00  0.00    -0.071 C 
ATOM     40  H16 non d ame     -33.798   5.798  30.820  0.00  0.00     0.028 H 
ATOM     41  H17 non d ame     -35.161   5.764  31.965  0.00  0.00     0.028 H 
ATOM     42  H18 non d ame     -35.471   5.785  30.213  0.00  0.00     0.028 H 
ENDBRANCH  33  39
ENDBRANCH   7  33
ENDBRANCH   4   7
ENDBRANCH   1   3
BRANCH   1  43
ATOM     43  C15 non d ame     -34.005  12.661  27.281  0.00  0.00     0.240 C 
ATOM     44  O5  non d ame     -34.068  12.224  26.177  0.00  0.00    -0.271 OA
ATOM     45  N6  non d ame     -34.532  14.025  27.569  0.00  0.00    -0.355 N 
ATOM     46  H46 non d ame     -34.489  14.405  28.504  0.00  0.00     0.162 HD
BRANCH  45  47
ATOM     47  C20 non d ame     -35.120  14.829  26.476  0.00  0.00     0.013 C 
ATOM     48  H30 non d ame     -34.768  14.417  25.530  0.00  0.00     0.072 H 
BRANCH  47  49
ATOM     49  C21 non d ame     -34.671  16.266  26.613  0.00  0.00    -0.038 C 
ATOM     50  H31 non d ame     -34.692  16.679  25.604  0.00  0.00     0.036 H 
ATOM     51  H32 non d ame     -35.299  16.698  27.392  0.00  0.00     0.036 H 
BRANCH  49  52
ATOM     52  C22 non d ame     -33.213  16.393  27.108  0.00  0.00     0.018 C 
ATOM     53  H33 non d ame     -33.260  16.999  28.011  0.00  0.00     0.048 H 
ATOM     54  H34 non d ame     -32.828  15.374  27.153  0.00  0.00     0.048 H 
BRANCH  52  55
ATOM     55  C23 non d ame     -32.284  17.159  26.126  0.00  0.00     0.259 C 
ATOM     56  O7  non d ame     -32.567  18.253  25.757  0.00  0.00    -0.265 OA
BRANCH  55  57
ATOM     57  O8  non d ame     -31.094  16.532  25.660  0.00  0.00    -0.317 OA
BRANCH  57  58
ATOM     58  C29 non d ame     -31.320  15.312  24.947  0.00  0.00     0.052 C 
ATOM     59  H47 non d ame     -30.761  14.548  25.486  0.00  0.00     0.082 H 
ATOM     60  H48 non d ame     -32.400  15.226  24.843  0.00  0.00     0.082 H 
BRANCH  58  61
ATOM     61  C35 non d ame     -30.702  15.465  23.531  0.00  0.00    -0.034 A 
ATOM     62  C30 non d ame     -31.434  16.071  22.514  0.00  0.00    -0.075 A 
ATOM     63  C31 non d ame     -30.879  16.207  21.242  0.00  0.00    -0.082 A 
ATOM     64  H49 non d ame     -32.441  16.437  22.713  0.00  0.00     0.084 H 
ATOM     65  C32 non d ame     -29.589  15.734  20.988  0.00  0.00    -0.083 A 
ATOM     66  H50 non d ame     -31.455  16.684  20.447  0.00  0.00     0.083 H 
ATOM     67  C33 non d ame     -28.865  15.127  22.005  0.00  0.00    -0.082 A 
ATOM     68  H51 non d ame     -29.148  15.838  19.996  0.00  0.00     0.083 H 
ATOM     69  C34 non d ame     -29.414  14.990  23.278  0.00  0.00    -0.075 A 
ATOM     70  H52 non d ame     -27.859  14.757  21.803  0.00  0.00     0.083 H 
ATOM     71  H53 non d ame     -28.838  14.514  24.072  0.00  0.00     0.084 H 
ENDBRANCH  58  61
ENDBRANCH  57  58
ENDBRANCH  55  57
ENDBRANCH  52  55
ENDBRANCH  49  52
ENDBRANCH  47  49
BRANCH  47  72
ATOM     72  C24 non d ame     -36.644  14.762  26.549  0.00  0.00    -0.039 C 
ATOM     73  H35 non d ame     -36.865  14.114  27.398  0.00  0.00     0.036 H 
ATOM     74  H36 non d ame     -36.981  15.799  26.553  0.00  0.00     0.036 H 
BRANCH  72  75
ATOM     75  C25 non d ame     -37.270  14.067  25.248  0.00  0.00    -0.001 C 
ATOM     76  C26 non d ame     -38.647  14.848  24.805  0.00  0.00    -0.035 C 
ATOM     77  C27 non d ame     -39.639  13.936  24.657  0.00  0.00     0.085 C 
ATOM     78  H38 non d ame     -39.000  15.478  25.621  0.00  0.00     0.036 H 
ATOM     79  H39 non d ame     -38.535  15.266  23.804  0.00  0.00     0.036 H 
ATOM     80  N5  non d ame     -39.148  12.648  25.276  0.00  0.00    -0.049 N 
ATOM     81  H40 non d ame     -40.475  14.317  25.244  0.00  0.00     0.075 H 
ATOM     82  H41 non d ame     -39.747  13.795  23.583  0.00  0.00     0.075 H 
ATOM     83  C28 non d ame     -37.556  12.828  25.472  0.00  0.00     0.193 C 
ATOM     84  H42 non d ame     -39.580  12.587  26.186  0.00  0.00     0.280 HD
ATOM     85  H43 non d ame     -39.309  11.924  24.590  0.00  0.00     0.280 HD
ATOM     86  H44 non d ame     -36.857  12.338  24.795  0.00  0.00     0.129 H 
ATOM     87  H37 non d ame     -36.525  13.897  24.472  0.00  0.00     0.046 H 
BRANCH  83  88
ATOM     88  O6  non d ame     -37.172  12.415  26.785  0.00  0.00    -0.369 OA
ATOM     89  H45 non d ame     -36.636  11.620  26.726  0.00  0.00     0.212 HD
ENDBRANCH  83  88
ENDBRANCH  72  75
ENDBRANCH  47  72
ENDBRANCH  45  47
ENDBRANCH   1  43
BRANCH   1  90
ATOM     90  C16 non d ame     -31.885  11.670  28.200  0.00  0.00    -0.035 C 
ATOM     91  H21 non d ame     -31.631  10.667  28.539  0.00  0.00     0.037 H 
ATOM     92  H22 non d ame     -31.720  11.953  27.160  0.00  0.00     0.037 H 
BRANCH  90  93
ATOM     93  C17 non d ame     -31.037  12.656  29.066  0.00  0.00    -0.059 C 
ATOM     94  H23 non d ame     -30.104  12.153  29.320  0.00  0.00     0.038 H 
BRANCH  93  95
ATOM     95  C18 non d ame     -30.678  13.963  28.290  0.00  0.00    -0.073 C 
ATOM     96  H24 non d ame     -31.591  14.509  28.053  0.00  0.00     0.028 H 
ATOM     97  H25 non d ame     -30.033  14.587  28.909  0.00  0.00     0.028 H 
ATOM     98  H26 non d ame     -30.158  13.706  27.367  0.00  0.00     0.028 H 
ENDBRANCH  93  95
BRANCH  93  99
ATOM     99  C19 non d ame     -31.752  12.982  30.380  0.00  0.00    -0.073 C 
ATOM    100  H27 non d ame     -31.191  12.557  31.214  0.00  0.00     0.028 H 
ATOM    101  H28 non d ame     -31.816  14.064  30.501  0.00  0.00     0.028 H 
ATOM    102  H29 non d ame     -32.756  12.559  30.363  0.00  0.00     0.028 H 
ENDBRANCH  93  99
ENDBRANCH  90  93
ENDBRANCH   1  90
TORSDOF 26
ENDMDL
MODEL 10
REMARK VINA RESULT:      -6.1      3.416      8.922
REMARK  26 active torsions:
REMARK  status: ('A' for Active; 'I' for Inactive)
REMARK    1  A    between atoms: C2_2  and  C3_3 
REMARK    2  A    between atoms: C4_6  and  C5_7 
REMARK       I    between atoms: C5_7  and  N2_9 
REMARK    3  A    between atoms: N2_9  and  C6_10 
REMARK    4  A    between atoms: C6_10  and  C7_11 
REMARK    5  A    between atoms: C6_10  and  C8_13 
REMARK       I    between atoms: C7_11  and  N3_14 
REMARK    6  A    between atoms: N3_14  and  C9_15 
REMARK    7  A    between atoms: C9_15  and  C10_16 
REMARK    8  A    between atoms: C9_15  and  C11_18 
REMARK       I    between atoms: C10_16  and  N4_21 
REMARK    9  A    between atoms: C11_18  and  C12_19 
REMARK   10  A    between atoms: C11_18  and  C13_20 
REMARK   11  A    between atoms: N4_21  and  C14_22 
REMARK   12  A    between atoms: C14_22  and  C15_23 
REMARK   13  A    between atoms: C14_22  and  C16_25 
REMARK       I    between atoms: C15_23  and  N6_40 
REMARK   14  A    between atoms: C16_25  and  C17_26 
REMARK   15  A    between atoms: C17_26  and  C18_27 
REMARK   16  A    between atoms: C17_26  and  C19_28 
REMARK   17  A    between atoms: C20_29  and  C21_30 
REMARK   18  A    between atoms: C20_29  and  C24_33 
REMARK   19  A    between atoms: C20_29  and  N6_40 
REMARK   20  A    between atoms: C21_30  and  C22_31 
REMARK   21  A    between atoms: C22_31  and  C23_32 
REMARK   22  A    between atoms: C23_32  and  O8_43 
REMARK   23  A    between atoms: C24_33  and  C25_34 
REMARK   24  A    between atoms: C28_38  and  O6_39 
REMARK   25  A    between atoms: C29_42  and  O8_43 
REMARK   26  A    between atoms: C29_42  and  C35_49 
ROOT
ATOM      1  C14 non d ame     -30.774  13.898  24.534  0.00  0.00     0.089 C 
ATOM      2  H20 non d ame     -29.782  13.628  24.897  0.00  0.00     0.087 H 
ENDROOT
BRANCH   1   3
ATOM      3  N4  non d ame     -31.412  12.682  24.053  0.00  0.00    -0.346 N 
ATOM      4  C10 non d ame     -31.301  11.401  24.841  0.00  0.00     0.241 C 
ATOM      5  O4  non d ame     -30.691  11.373  25.859  0.00  0.00    -0.271 OA
ATOM      6  H19 non d ame     -31.923  12.726  23.184  0.00  0.00     0.163 HD
BRANCH   4   7
ATOM      7  C9  non d ame     -31.971  10.152  24.331  0.00  0.00     0.092 C 
ATOM      8  H11 non d ame     -31.806   9.342  25.040  0.00  0.00     0.088 H 
BRANCH   7   9
ATOM      9  N3  non d ame     -33.419  10.372  24.252  0.00  0.00    -0.346 N 
ATOM     10  C7  non d ame     -34.322   9.466  24.917  0.00  0.00     0.240 C 
ATOM     11  O3  non d ame     -33.901   8.555  25.519  0.00  0.00    -0.271 OA
ATOM     12  H10 non d ame     -33.796  11.153  23.734  0.00  0.00     0.163 HD
BRANCH  10  13
ATOM     13  C6  non d ame     -35.861   9.702  24.826  0.00  0.00     0.086 C 
ATOM     14  H6  non d ame     -36.411   9.208  25.627  0.00  0.00     0.086 H 
BRANCH  13  15
ATOM     15  N2  non d ame     -36.129  11.125  24.955  0.00  0.00    -0.343 N 
ATOM     16  C5  non d ame     -37.293  11.574  25.722  0.00  0.00     0.273 C 
ATOM     17  O2  non d ame     -38.010  10.783  26.228  0.00  0.00    -0.266 OA
ATOM     18  H5  non d ame     -35.512  11.794  24.517  0.00  0.00     0.163 HD
BRANCH  16  19
ATOM     19  C4  non d ame     -37.587  13.075  25.867  0.00  0.00     0.154 A 
ATOM     20  C1  non d ame     -38.273  13.916  24.935  0.00  0.00    -0.017 A 
ATOM     21  C2  non d ame     -38.278  15.195  25.534  0.00  0.00     0.077 A 
ATOM     22  H1  non d ame     -38.703  13.640  23.971  0.00  0.00     0.091 H 
ATOM     23  O1  non d ame     -37.665  15.090  26.676  0.00  0.00    -0.218 OA
ATOM     24  N1  non d ame     -37.252  13.862  26.892  0.00  0.00    -0.123 NA
BRANCH  21  25
ATOM     25  C3  non d ame     -38.890  16.462  24.951  0.00  0.00    -0.029 C 
ATOM     26  H2  non d ame     -39.626  16.195  24.194  0.00  0.00     0.036 H 
ATOM     27  H3  non d ame     -39.377  17.029  25.745  0.00  0.00     0.036 H 
ATOM     28  H4  non d ame     -38.107  17.069  24.498  0.00  0.00     0.036 H 
ENDBRANCH  21  25
ENDBRANCH  16  19
ENDBRANCH  13  15
BRANCH  13  29
ATOM     29  C8  non d ame     -36.373   9.198  23.501  0.00  0.00    -0.049 C 
ATOM     30  H7  non d ame     -37.288   9.728  23.239  0.00  0.00     0.030 H 
ATOM     31  H8  non d ame     -35.621   9.370  22.732  0.00  0.00     0.030 H 
ATOM     32  H9  non d ame     -36.581   8.129  23.575  0.00  0.00     0.030 H 
ENDBRANCH  13  29
ENDBRANCH  10  13
ENDBRANCH   7   9
BRANCH   7  33
ATOM     33  C11 non d ame     -31.423   9.812  22.913  0.00  0.00    -0.033 C 
ATOM     34  H12 non d ame     -31.731  10.613  22.241  0.00  0.00     0.042 H 
BRANCH  33  35
ATOM     35  C12 non d ame     -29.863   9.766  22.904  0.00  0.00    -0.071 C 
ATOM     36  H13 non d ame     -29.472  10.738  22.602  0.00  0.00     0.028 H 
ATOM     37  H14 non d ame     -29.501   9.523  23.902  0.00  0.00     0.028 H 
ATOM     38  H15 non d ame     -29.526   9.006  22.199  0.00  0.00     0.028 H 
ENDBRANCH  33  35
BRANCH  33  39
ATOM     39  C13 non d ame     -32.033   8.475  22.384  0.00  0.00    -0.071 C 
ATOM     40  H16 non d ame     -32.371   7.871  23.226  0.00  0.00     0.028 H 
ATOM     41  H17 non d ame     -32.878   8.694  21.730  0.00  0.00     0.028 H 
ATOM     42  H18 non d ame     -31.275   7.926  21.825  0.00  0.00     0.028 H 
ENDBRANCH  33  39
ENDBRANCH   7  33
ENDBRANCH   4   7
ENDBRANCH   1   3
BRANCH   1  43
ATOM     43  C15 non d ame     -31.661  14.513  25.655  0.00  0.00     0.240 C 
ATOM     44  O5  non d ame     -31.456  15.622  26.029  0.00  0.00    -0.271 OA
ATOM     45  N6  non d ame     -32.772  13.721  26.256  0.00  0.00    -0.355 N 
ATOM     46  H46 non d ame     -32.958  12.779  25.943  0.00  0.00     0.162 HD
BRANCH  45  47
ATOM     47  C20 non d ame     -33.606  14.320  27.320  0.00  0.00     0.013 C 
ATOM     48  H30 non d ame     -34.434  13.639  27.519  0.00  0.00     0.072 H 
BRANCH  47  49
ATOM     49  C21 non d ame     -34.135  15.655  26.849  0.00  0.00    -0.038 C 
ATOM     50  H31 non d ame     -33.398  16.030  26.138  0.00  0.00     0.036 H 
ATOM     51  H32 non d ame     -35.159  15.468  26.525  0.00  0.00     0.036 H 
BRANCH  49  52
ATOM     52  C22 non d ame     -34.220  16.700  27.983  0.00  0.00     0.018 C 
ATOM     53  H33 non d ame     -35.209  17.148  27.898  0.00  0.00     0.048 H 
ATOM     54  H34 non d ame     -33.937  16.171  28.893  0.00  0.00     0.048 H 
BRANCH  52  55
ATOM     55  C23 non d ame     -33.206  17.868  27.835  0.00  0.00     0.259 C 
ATOM     56  O7  non d ame     -32.565  18.232  28.767  0.00  0.00    -0.265 OA
BRANCH  55  57
ATOM     57  O8  non d ame     -33.061  18.510  26.573  0.00  0.00    -0.317 OA
BRANCH  57  58
ATOM     58  C29 non d ame     -33.397  19.900  26.584  0.00  0.00     0.052 C 
ATOM     59  H47 non d ame     -33.183  20.247  27.595  0.00  0.00     0.082 H 
ATOM     60  H48 non d ame     -32.875  20.337  25.734  0.00  0.00     0.082 H 
BRANCH  58  61
ATOM     61  C35 non d ame     -34.925  20.025  26.336  0.00  0.00    -0.034 A 
ATOM     62  C30 non d ame     -35.507  19.388  25.244  0.00  0.00    -0.075 A 
ATOM     63  C31 non d ame     -36.879  19.500  25.021  0.00  0.00    -0.082 A 
ATOM     64  H49 non d ame     -34.889  18.803  24.563  0.00  0.00     0.084 H 
ATOM     65  C32 non d ame     -37.669  20.253  25.893  0.00  0.00    -0.083 A 
ATOM     66  H50 non d ame     -37.332  18.998  24.165  0.00  0.00     0.083 H 
ATOM     67  C33 non d ame     -37.082  20.889  26.979  0.00  0.00    -0.082 A 
ATOM     68  H51 non d ame     -38.742  20.345  25.726  0.00  0.00     0.083 H 
ATOM     69  C34 non d ame     -35.713  20.779  27.207  0.00  0.00    -0.075 A 
ATOM     70  H52 non d ame     -37.702  21.479  27.657  0.00  0.00     0.083 H 
ATOM     71  H53 non d ame     -35.260  21.280  28.063  0.00  0.00     0.084 H 
ENDBRANCH  58  61
ENDBRANCH  57  58
ENDBRANCH  55  57
ENDBRANCH  52  55
ENDBRANCH  49  52
ENDBRANCH  47  49
BRANCH  47  72
ATOM     72  C24 non d ame     -32.768  14.519  28.582  0.00  0.00    -0.039 C 
ATOM     73  H35 non d ame     -32.051  15.301  28.333  0.00  0.00     0.036 H 
ATOM     74  H36 non d ame     -33.488  14.676  29.386  0.00  0.00     0.036 H 
BRANCH  72  75
ATOM     75  C25 non d ame     -31.928  13.205  28.949  0.00  0.00    -0.001 C 
ATOM     76  C26 non d ame     -32.941  12.020  29.469  0.00  0.00    -0.035 C 
ATOM     77  C27 non d ame     -32.484  11.542  30.652  0.00  0.00     0.085 C 
ATOM     78  H38 non d ame     -33.913  12.443  29.724  0.00  0.00     0.036 H 
ATOM     79  H39 non d ame     -32.880  11.157  28.806  0.00  0.00     0.036 H 
ATOM     80  N5  non d ame     -31.439  12.514  31.146  0.00  0.00    -0.049 N 
ATOM     81  H40 non d ame     -33.341  11.567  31.326  0.00  0.00     0.075 H 
ATOM     82  H41 non d ame     -32.004  10.594  30.416  0.00  0.00     0.075 H 
ATOM     83  C28 non d ame     -31.068  13.447  29.882  0.00  0.00     0.193 C 
ATOM     84  H42 non d ame     -31.889  13.086  31.846  0.00  0.00     0.280 HD
ATOM     85  H43 non d ame     -30.629  11.962  31.388  0.00  0.00     0.280 HD
ATOM     86  H44 non d ame     -30.136  13.294  29.336  0.00  0.00     0.129 H 
ATOM     87  H37 non d ame     -31.214  12.941  28.170  0.00  0.00     0.046 H 
BRANCH  83  88
ATOM     88  O6  non d ame     -31.063  14.822  30.268  0.00  0.00    -0.369 OA
ATOM     89  H45 non d ame     -31.770  14.980  30.899  0.00  0.00     0.212 HD
ENDBRANCH  83  88
ENDBRANCH  72  75
ENDBRANCH  47  72
ENDBRANCH  45  47
ENDBRANCH   1  43
BRANCH   1  90
ATOM     90  C16 non d ame     -30.650  14.884  23.383  0.00  0.00    -0.035 C 
ATOM     91  H21 non d ame     -31.646  15.306  23.257  0.00  0.00     0.037 H 
ATOM     92  H22 non d ame     -29.813  15.530  23.645  0.00  0.00     0.037 H 
BRANCH  90  93
ATOM     93  C17 non d ame     -30.281  14.213  22.021  0.00  0.00    -0.059 C 
ATOM     94  H23 non d ame     -30.906  13.326  21.910  0.00  0.00     0.038 H 
BRANCH  93  95
ATOM     95  C18 non d ame     -30.566  15.151  20.805  0.00  0.00    -0.073 C 
ATOM     96  H24 non d ame     -29.664  15.248  20.202  0.00  0.00     0.028 H 
ATOM     97  H25 non d ame     -31.364  14.725  20.197  0.00  0.00     0.028 H 
ATOM     98  H26 non d ame     -30.870  16.133  21.167  0.00  0.00     0.028 H 
ENDBRANCH  93  95
BRANCH  93  99
ATOM     99  C19 non d ame     -28.823  13.746  22.019  0.00  0.00    -0.073 C 
ATOM    100  H27 non d ame     -28.340  14.058  22.946  0.00  0.00     0.028 H 
ATOM    101  H28 non d ame     -28.788  12.659  21.941  0.00  0.00     0.028 H 
ATOM    102  H29 non d ame     -28.301  14.189  21.171  0.00  0.00     0.028 H 
ENDBRANCH  93  99
ENDBRANCH  90  93
ENDBRANCH   1  90
TORSDOF 26
ENDMDL
MODEL 11
REMARK VINA RESULT:      -6.0      3.572      7.975
REMARK  26 active torsions:
REMARK  status: ('A' for Active; 'I' for Inactive)
REMARK    1  A    between atoms: C2_2  and  C3_3 
REMARK    2  A    between atoms: C4_6  and  C5_7 
REMARK       I    between atoms: C5_7  and  N2_9 
REMARK    3  A    between atoms: N2_9  and  C6_10 
REMARK    4  A    between atoms: C6_10  and  C7_11 
REMARK    5  A    between atoms: C6_10  and  C8_13 
REMARK       I    between atoms: C7_11  and  N3_14 
REMARK    6  A    between atoms: N3_14  and  C9_15 
REMARK    7  A    between atoms: C9_15  and  C10_16 
REMARK    8  A    between atoms: C9_15  and  C11_18 
REMARK       I    between atoms: C10_16  and  N4_21 
REMARK    9  A    between atoms: C11_18  and  C12_19 
REMARK   10  A    between atoms: C11_18  and  C13_20 
REMARK   11  A    between atoms: N4_21  and  C14_22 
REMARK   12  A    between atoms: C14_22  and  C15_23 
REMARK   13  A    between atoms: C14_22  and  C16_25 
REMARK       I    between atoms: C15_23  and  N6_40 
REMARK   14  A    between atoms: C16_25  and  C17_26 
REMARK   15  A    between atoms: C17_26  and  C18_27 
REMARK   16  A    between atoms: C17_26  and  C19_28 
REMARK   17  A    between atoms: C20_29  and  C21_30 
REMARK   18  A    between atoms: C20_29  and  C24_33 
REMARK   19  A    between atoms: C20_29  and  N6_40 
REMARK   20  A    between atoms: C21_30  and  C22_31 
REMARK   21  A    between atoms: C22_31  and  C23_32 
REMARK   22  A    between atoms: C23_32  and  O8_43 
REMARK   23  A    between atoms: C24_33  and  C25_34 
REMARK   24  A    between atoms: C28_38  and  O6_39 
REMARK   25  A    between atoms: C29_42  and  O8_43 
REMARK   26  A    between atoms: C29_42  and  C35_49 
ROOT
ATOM      1  C14 non d ame     -32.872  10.349  26.381  0.00  0.00     0.089 C 
ATOM      2  H20 non d ame     -33.712  10.672  25.764  0.00  0.00     0.087 H 
ENDROOT
BRANCH   1   3
ATOM      3  N4  non d ame     -32.186   9.284  25.665  0.00  0.00    -0.346 N 
ATOM      4  C10 non d ame     -32.551   8.968  24.237  0.00  0.00     0.241 C 
ATOM      5  O4  non d ame     -33.402   9.584  23.684  0.00  0.00    -0.271 OA
ATOM      6  H19 non d ame     -31.467   8.771  26.154  0.00  0.00     0.163 HD
BRANCH   4   7
ATOM      7  C9  non d ame     -31.827   7.866  23.509  0.00  0.00     0.092 C 
ATOM      8  H11 non d ame     -30.871   7.681  23.998  0.00  0.00     0.088 H 
BRANCH   7   9
ATOM      9  N3  non d ame     -32.606   6.627  23.599  0.00  0.00    -0.346 N 
ATOM     10  C7  non d ame     -32.502   5.794  24.772  0.00  0.00     0.240 C 
ATOM     11  O3  non d ame     -31.796   6.105  25.652  0.00  0.00    -0.271 OA
ATOM     12  H10 non d ame     -33.218   6.345  22.847  0.00  0.00     0.163 HD
BRANCH  10  13
ATOM     13  C6  non d ame     -33.331   4.475  24.861  0.00  0.00     0.086 C 
ATOM     14  H6  non d ame     -32.814   3.689  25.411  0.00  0.00     0.086 H 
BRANCH  13  15
ATOM     15  N2  non d ame     -34.566   4.742  25.579  0.00  0.00    -0.343 N 
ATOM     16  C5  non d ame     -34.902   3.942  26.758  0.00  0.00     0.273 C 
ATOM     17  O2  non d ame     -34.174   3.083  27.120  0.00  0.00    -0.266 OA
ATOM     18  H5  non d ame     -35.184   5.475  25.261  0.00  0.00     0.163 HD
BRANCH  16  19
ATOM     19  C4  non d ame     -36.205   4.214  27.527  0.00  0.00     0.154 A 
ATOM     20  C1  non d ame     -37.381   3.399  27.552  0.00  0.00    -0.017 A 
ATOM     21  C2  non d ame     -38.280   4.085  28.397  0.00  0.00     0.077 A 
ATOM     22  H1  non d ame     -37.554   2.455  27.035  0.00  0.00     0.091 H 
ATOM     23  O1  non d ame     -37.681   5.165  28.806  0.00  0.00    -0.218 OA
ATOM     24  N1  non d ame     -36.469   5.262  28.312  0.00  0.00    -0.123 NA
BRANCH  21  25
ATOM     25  C3  non d ame     -39.690   3.642  28.764  0.00  0.00    -0.029 C 
ATOM     26  H2  non d ame     -40.326   4.517  28.887  0.00  0.00     0.036 H 
ATOM     27  H3  non d ame     -40.092   3.012  27.969  0.00  0.00     0.036 H 
ATOM     28  H4  non d ame     -39.664   3.077  29.695  0.00  0.00     0.036 H 
ENDBRANCH  21  25
ENDBRANCH  16  19
ENDBRANCH  13  15
BRANCH  13  29
ATOM     29  C8  non d ame     -33.638   3.977  23.472  0.00  0.00    -0.049 C 
ATOM     30  H7  non d ame     -32.714   3.673  22.982  0.00  0.00     0.030 H 
ATOM     31  H8  non d ame     -34.313   3.124  23.533  0.00  0.00     0.030 H 
ATOM     32  H9  non d ame     -34.109   4.774  22.896  0.00  0.00     0.030 H 
ENDBRANCH  13  29
ENDBRANCH  10  13
ENDBRANCH   7   9
BRANCH   7  33
ATOM     33  C11 non d ame     -31.655   8.259  22.012  0.00  0.00    -0.033 C 
ATOM     34  H12 non d ame     -32.244   9.159  21.839  0.00  0.00     0.042 H 
BRANCH  33  35
ATOM     35  C12 non d ame     -30.168   8.600  21.683  0.00  0.00    -0.071 C 
ATOM     36  H13 non d ame     -30.000   8.496  20.611  0.00  0.00     0.028 H 
ATOM     37  H14 non d ame     -29.954   9.625  21.986  0.00  0.00     0.028 H 
ATOM     38  H15 non d ame     -29.510   7.917  22.221  0.00  0.00     0.028 H 
ENDBRANCH  33  35
BRANCH  33  39
ATOM     39  C13 non d ame     -32.200   7.136  21.073  0.00  0.00    -0.071 C 
ATOM     40  H16 non d ame     -33.264   6.992  21.259  0.00  0.00     0.028 H 
ATOM     41  H17 non d ame     -32.047   7.425  20.033  0.00  0.00     0.028 H 
ATOM     42  H18 non d ame     -31.667   6.206  21.272  0.00  0.00     0.028 H 
ENDBRANCH  33  39
ENDBRANCH   7  33
ENDBRANCH   4   7
ENDBRANCH   1   3
BRANCH   1  43
ATOM     43  C15 non d ame     -31.860  11.502  26.642  0.00  0.00     0.240 C 
ATOM     44  O5  non d ame     -30.729  11.385  26.298  0.00  0.00    -0.271 OA
ATOM     45  N6  non d ame     -32.304  12.757  27.313  0.00  0.00    -0.355 N 
ATOM     46  H46 non d ame     -33.264  12.870  27.606  0.00  0.00     0.162 HD
BRANCH  45  47
ATOM     47  C20 non d ame     -31.330  13.844  27.553  0.00  0.00     0.013 C 
ATOM     48  H30 non d ame     -30.481  13.685  26.888  0.00  0.00     0.072 H 
BRANCH  47  49
ATOM     49  C21 non d ame     -30.874  13.797  28.994  0.00  0.00    -0.038 C 
ATOM     50  H31 non d ame     -30.036  13.100  29.015  0.00  0.00     0.036 H 
ATOM     51  H32 non d ame     -30.726  14.836  29.290  0.00  0.00     0.036 H 
BRANCH  49  52
ATOM     52  C22 non d ame     -31.946  13.221  29.944  0.00  0.00     0.018 C 
ATOM     53  H33 non d ame     -32.103  13.981  30.708  0.00  0.00     0.048 H 
ATOM     54  H34 non d ame     -32.772  12.913  29.303  0.00  0.00     0.048 H 
BRANCH  52  55
ATOM     55  C23 non d ame     -31.491  11.941  30.699  0.00  0.00     0.259 C 
ATOM     56  O7  non d ame     -30.354  11.802  31.019  0.00  0.00    -0.265 OA
BRANCH  55  57
ATOM     57  O8  non d ame     -32.446  10.929  30.994  0.00  0.00    -0.317 OA
BRANCH  57  58
ATOM     58  C29 non d ame     -33.718  11.432  31.413  0.00  0.00     0.052 C 
ATOM     59  H47 non d ame     -33.590  11.726  32.455  0.00  0.00     0.082 H 
ATOM     60  H48 non d ame     -34.002  12.173  30.668  0.00  0.00     0.082 H 
BRANCH  58  61
ATOM     61  C35 non d ame     -34.737  10.263  31.355  0.00  0.00    -0.034 A 
ATOM     62  C30 non d ame     -34.290   8.958  31.173  0.00  0.00    -0.075 A 
ATOM     63  C31 non d ame     -35.205   7.907  31.119  0.00  0.00    -0.082 A 
ATOM     64  H49 non d ame     -33.223   8.758  31.071  0.00  0.00     0.084 H 
ATOM     65  C32 non d ame     -36.573   8.166  31.247  0.00  0.00    -0.083 A 
ATOM     66  H50 non d ame     -34.852   6.885  30.979  0.00  0.00     0.083 H 
ATOM     67  C33 non d ame     -37.014   9.470  31.425  0.00  0.00    -0.082 A 
ATOM     68  H51 non d ame     -37.295   7.350  31.208  0.00  0.00     0.083 H 
ATOM     69  C34 non d ame     -36.103  10.523  31.480  0.00  0.00    -0.075 A 
ATOM     70  H52 non d ame     -38.082   9.669  31.522  0.00  0.00     0.083 H 
ATOM     71  H53 non d ame     -36.457  11.544  31.622  0.00  0.00     0.084 H 
ENDBRANCH  58  61
ENDBRANCH  57  58
ENDBRANCH  55  57
ENDBRANCH  52  55
ENDBRANCH  49  52
ENDBRANCH  47  49
BRANCH  47  72
ATOM     72  C24 non d ame     -31.983  15.195  27.268  0.00  0.00    -0.039 C 
ATOM     73  H35 non d ame     -31.781  15.805  28.149  0.00  0.00     0.036 H 
ATOM     74  H36 non d ame     -31.602  15.501  26.294  0.00  0.00     0.036 H 
BRANCH  72  75
ATOM     75  C25 non d ame     -33.574  15.068  27.135  0.00  0.00    -0.001 C 
ATOM     76  C26 non d ame     -34.035  15.405  25.593  0.00  0.00    -0.035 C 
ATOM     77  C27 non d ame     -35.020  16.334  25.625  0.00  0.00     0.085 C 
ATOM     78  H38 non d ame     -33.227  15.909  25.062  0.00  0.00     0.036 H 
ATOM     79  H39 non d ame     -34.520  14.536  25.148  0.00  0.00     0.036 H 
ATOM     80  N5  non d ame     -35.046  16.901  27.025  0.00  0.00    -0.049 N 
ATOM     81  H40 non d ame     -34.707  17.115  24.931  0.00  0.00     0.075 H 
ATOM     82  H41 non d ame     -35.944  15.786  25.447  0.00  0.00     0.075 H 
ATOM     83  C28 non d ame     -34.176  15.887  27.930  0.00  0.00     0.193 C 
ATOM     84  H42 non d ame     -34.566  17.788  26.983  0.00  0.00     0.280 HD
ATOM     85  H43 non d ame     -36.008  16.861  27.330  0.00  0.00     0.280 HD
ATOM     86  H44 non d ame     -34.669  15.184  28.602  0.00  0.00     0.129 H 
ATOM     87  H37 non d ame     -33.953  14.146  27.575  0.00  0.00     0.046 H 
BRANCH  83  88
ATOM     88  O6  non d ame     -33.259  16.618  28.747  0.00  0.00    -0.369 OA
ATOM     89  H45 non d ame     -32.867  17.327  28.231  0.00  0.00     0.212 HD
ENDBRANCH  83  88
ENDBRANCH  72  75
ENDBRANCH  47  72
ENDBRANCH  45  47
ENDBRANCH   1  43
BRANCH   1  90
ATOM     90  C16 non d ame     -33.384   9.809  27.706  0.00  0.00    -0.035 C 
ATOM     91  H21 non d ame     -33.079   8.764  27.728  0.00  0.00     0.037 H 
ATOM     92  H22 non d ame     -33.014  10.502  28.462  0.00  0.00     0.037 H 
BRANCH  90  93
ATOM     93  C17 non d ame     -34.942   9.815  27.825  0.00  0.00    -0.059 C 
ATOM     94  H23 non d ame     -35.198   9.456  28.822  0.00  0.00     0.038 H 
BRANCH  93  95
ATOM     95  C18 non d ame     -35.539  11.250  27.667  0.00  0.00    -0.073 C 
ATOM     96  H24 non d ame     -36.101  11.511  28.564  0.00  0.00     0.028 H 
ATOM     97  H25 non d ame     -34.730  11.966  27.525  0.00  0.00     0.028 H 
ATOM     98  H26 non d ame     -36.203  11.274  26.803  0.00  0.00     0.028 H 
ENDBRANCH  93  95
BRANCH  93  99
ATOM     99  C19 non d ame     -35.571   8.850  26.817  0.00  0.00    -0.073 C 
ATOM    100  H27 non d ame     -36.586   9.176  26.587  0.00  0.00     0.028 H 
ATOM    101  H28 non d ame     -34.978   8.840  25.902  0.00  0.00     0.028 H 
ATOM    102  H29 non d ame     -35.599   7.847  27.243  0.00  0.00     0.028 H 
ENDBRANCH  93  99
ENDBRANCH  90  93
ENDBRANCH   1  90
TORSDOF 26
ENDMDL
MODEL 12
REMARK VINA RESULT:      -5.9      3.828      9.641
REMARK  26 active torsions:
REMARK  status: ('A' for Active; 'I' for Inactive)
REMARK    1  A    between atoms: C2_2  and  C3_3 
REMARK    2  A    between atoms: C4_6  and  C5_7 
REMARK       I    between atoms: C5_7  and  N2_9 
REMARK    3  A    between atoms: N2_9  and  C6_10 
REMARK    4  A    between atoms: C6_10  and  C7_11 
REMARK    5  A    between atoms: C6_10  and  C8_13 
REMARK       I    between atoms: C7_11  and  N3_14 
REMARK    6  A    between atoms: N3_14  and  C9_15 
REMARK    7  A    between atoms: C9_15  and  C10_16 
REMARK    8  A    between atoms: C9_15  and  C11_18 
REMARK       I    between atoms: C10_16  and  N4_21 
REMARK    9  A    between atoms: C11_18  and  C12_19 
REMARK   10  A    between atoms: C11_18  and  C13_20 
REMARK   11  A    between atoms: N4_21  and  C14_22 
REMARK   12  A    between atoms: C14_22  and  C15_23 
REMARK   13  A    between atoms: C14_22  and  C16_25 
REMARK       I    between atoms: C15_23  and  N6_40 
REMARK   14  A    between atoms: C16_25  and  C17_26 
REMARK   15  A    between atoms: C17_26  and  C18_27 
REMARK   16  A    between atoms: C17_26  and  C19_28 
REMARK   17  A    between atoms: C20_29  and  C21_30 
REMARK   18  A    between atoms: C20_29  and  C24_33 
REMARK   19  A    between atoms: C20_29  and  N6_40 
REMARK   20  A    between atoms: C21_30  and  C22_31 
REMARK   21  A    between atoms: C22_31  and  C23_32 
REMARK   22  A    between atoms: C23_32  and  O8_43 
REMARK   23  A    between atoms: C24_33  and  C25_34 
REMARK   24  A    between atoms: C28_38  and  O6_39 
REMARK   25  A    between atoms: C29_42  and  O8_43 
REMARK   26  A    between atoms: C29_42  and  C35_49 
ROOT
ATOM      1  C14 non d ame     -32.156   8.581  24.986  0.00  0.00     0.089 C 
ATOM      2  H20 non d ame     -31.240   8.036  25.216  0.00  0.00     0.087 H 
ENDROOT
BRANCH   1   3
ATOM      3  N4  non d ame     -33.241   7.612  24.931  0.00  0.00    -0.346 N 
ATOM      4  C10 non d ame     -32.942   6.134  24.919  0.00  0.00     0.241 C 
ATOM      5  O4  non d ame     -31.821   5.748  24.954  0.00  0.00    -0.271 OA
ATOM      6  H19 non d ame     -34.188   7.961  24.899  0.00  0.00     0.163 HD
BRANCH   4   7
ATOM      7  C9  non d ame     -34.077   5.145  24.866  0.00  0.00     0.092 C 
ATOM      8  H11 non d ame     -33.691   4.146  25.061  0.00  0.00     0.088 H 
BRANCH   7   9
ATOM      9  N3  non d ame     -35.044   5.452  25.924  0.00  0.00    -0.346 N 
ATOM     10  C7  non d ame     -35.073   4.655  27.125  0.00  0.00     0.240 C 
ATOM     11  O3  non d ame     -34.327   3.762  27.257  0.00  0.00    -0.271 OA
ATOM     12  H10 non d ame     -35.694   6.218  25.824  0.00  0.00     0.163 HD
BRANCH  10  13
ATOM     13  C6  non d ame     -36.106   4.984  28.248  0.00  0.00     0.086 C 
ATOM     14  H6  non d ame     -36.035   4.306  29.098  0.00  0.00     0.086 H 
BRANCH  13  15
ATOM     15  N2  non d ame     -35.841   6.319  28.757  0.00  0.00    -0.343 N 
ATOM     16  C5  non d ame     -36.065   6.608  30.175  0.00  0.00     0.273 C 
ATOM     17  O2  non d ame     -36.462   5.761  30.897  0.00  0.00    -0.266 OA
ATOM     18  H5  non d ame     -35.504   7.037  28.132  0.00  0.00     0.163 HD
BRANCH  16  19
ATOM     19  C4  non d ame     -35.787   8.016  30.726  0.00  0.00     0.154 A 
ATOM     20  C1  non d ame     -35.580   8.383  32.093  0.00  0.00    -0.017 A 
ATOM     21  C2  non d ame     -35.368   9.779  32.066  0.00  0.00     0.077 A 
ATOM     22  H1  non d ame     -35.581   7.736  32.970  0.00  0.00     0.091 H 
ATOM     23  O1  non d ame     -35.446  10.159  30.824  0.00  0.00    -0.218 OA
ATOM     24  N1  non d ame     -35.690   9.147  30.024  0.00  0.00    -0.123 NA
BRANCH  21  25
ATOM     25  C3  non d ame     -35.097  10.674  33.268  0.00  0.00    -0.029 C 
ATOM     26  H2  non d ame     -34.892  10.057  34.142  0.00  0.00     0.036 H 
ATOM     27  H3  non d ame     -34.234  11.308  33.062  0.00  0.00     0.036 H 
ATOM     28  H4  non d ame     -35.969  11.299  33.461  0.00  0.00     0.036 H 
ENDBRANCH  21  25
ENDBRANCH  16  19
ENDBRANCH  13  15
BRANCH  13  29
ATOM     29  C8  non d ame     -37.503   4.913  27.685  0.00  0.00    -0.049 C 
ATOM     30  H7  non d ame     -38.216   4.775  28.497  0.00  0.00     0.030 H 
ATOM     31  H8  non d ame     -37.730   5.839  27.158  0.00  0.00     0.030 H 
ATOM     32  H9  non d ame     -37.574   4.073  26.993  0.00  0.00     0.030 H 
ENDBRANCH  13  29
ENDBRANCH  10  13
ENDBRANCH   7   9
BRANCH   7  33
ATOM     33  C11 non d ame     -34.782   5.241  23.480  0.00  0.00    -0.033 C 
ATOM     34  H12 non d ame     -34.895   6.298  23.241  0.00  0.00     0.042 H 
BRANCH  33  35
ATOM     35  C12 non d ame     -33.914   4.595  22.356  0.00  0.00    -0.071 C 
ATOM     36  H13 non d ame     -33.056   5.234  22.147  0.00  0.00     0.028 H 
ATOM     37  H14 non d ame     -33.566   3.615  22.682  0.00  0.00     0.028 H 
ATOM     38  H15 non d ame     -34.513   4.486  21.452  0.00  0.00     0.028 H 
ENDBRANCH  33  35
BRANCH  33  39
ATOM     39  C13 non d ame     -36.207   4.603  23.533  0.00  0.00    -0.071 C 
ATOM     40  H16 non d ame     -36.870   5.242  24.116  0.00  0.00     0.028 H 
ATOM     41  H17 non d ame     -36.598   4.500  22.520  0.00  0.00     0.028 H 
ATOM     42  H18 non d ame     -36.149   3.620  24.000  0.00  0.00     0.028 H 
ENDBRANCH  33  39
ENDBRANCH   7  33
ENDBRANCH   4   7
ENDBRANCH   1   3
BRANCH   1  43
ATOM     43  C15 non d ame     -32.495   9.642  26.073  0.00  0.00     0.240 C 
ATOM     44  O5  non d ame     -32.789   9.291  27.170  0.00  0.00    -0.271 OA
ATOM     45  N6  non d ame     -32.445  11.096  25.749  0.00  0.00    -0.355 N 
ATOM     46  H46 non d ame     -32.192  11.406  24.821  0.00  0.00     0.162 HD
BRANCH  45  47
ATOM     47  C20 non d ame     -32.769  12.091  26.794  0.00  0.00     0.013 C 
ATOM     48  H30 non d ame     -33.280  11.571  27.604  0.00  0.00     0.072 H 
BRANCH  47  49
ATOM     49  C21 non d ame     -33.673  13.153  26.209  0.00  0.00    -0.038 C 
ATOM     50  H31 non d ame     -33.278  13.359  25.213  0.00  0.00     0.036 H 
ATOM     51  H32 non d ame     -34.688  12.773  26.325  0.00  0.00     0.036 H 
BRANCH  49  52
ATOM     52  C22 non d ame     -33.613  14.485  26.988  0.00  0.00     0.018 C 
ATOM     53  H33 non d ame     -34.648  14.744  27.209  0.00  0.00     0.048 H 
ATOM     54  H34 non d ame     -32.907  14.320  27.801  0.00  0.00     0.048 H 
BRANCH  52  55
ATOM     55  C23 non d ame     -33.043  15.670  26.160  0.00  0.00     0.259 C 
ATOM     56  O7  non d ame     -32.734  16.686  26.694  0.00  0.00    -0.265 OA
BRANCH  55  57
ATOM     57  O8  non d ame     -32.905  15.532  24.750  0.00  0.00    -0.317 OA
BRANCH  57  58
ATOM     58  C29 non d ame     -31.812  16.271  24.197  0.00  0.00     0.052 C 
ATOM     59  H47 non d ame     -32.256  16.967  23.486  0.00  0.00     0.082 H 
ATOM     60  H48 non d ame     -31.248  16.647  25.049  0.00  0.00     0.082 H 
BRANCH  58  61
ATOM     61  C35 non d ame     -30.911  15.278  23.414  0.00  0.00    -0.034 A 
ATOM     62  C30 non d ame     -30.081  15.743  22.399  0.00  0.00    -0.075 A 
ATOM     63  C31 non d ame     -29.272  14.851  21.695  0.00  0.00    -0.082 A 
ATOM     64  H49 non d ame     -30.064  16.805  22.153  0.00  0.00     0.084 H 
ATOM     65  C32 non d ame     -29.297  13.490  22.009  0.00  0.00    -0.083 A 
ATOM     66  H50 non d ame     -28.621  15.219  20.901  0.00  0.00     0.083 H 
ATOM     67  C33 non d ame     -30.130  13.030  23.020  0.00  0.00    -0.082 A 
ATOM     68  H51 non d ame     -28.667  12.786  21.464  0.00  0.00     0.083 H 
ATOM     69  C34 non d ame     -30.938  13.918  23.727  0.00  0.00    -0.075 A 
ATOM     70  H52 non d ame     -30.149  11.966  23.261  0.00  0.00     0.083 H 
ATOM     71  H53 non d ame     -31.588  13.550  24.521  0.00  0.00     0.084 H 
ENDBRANCH  58  61
ENDBRANCH  57  58
ENDBRANCH  55  57
ENDBRANCH  52  55
ENDBRANCH  49  52
ENDBRANCH  47  49
BRANCH  47  72
ATOM     72  C24 non d ame     -31.485  12.738  27.306  0.00  0.00    -0.039 C 
ATOM     73  H35 non d ame     -30.708  12.438  26.602  0.00  0.00     0.036 H 
ATOM     74  H36 non d ame     -31.723  13.794  27.435  0.00  0.00     0.036 H 
BRANCH  72  75
ATOM     75  C25 non d ame     -31.066  12.169  28.744  0.00  0.00    -0.001 C 
ATOM     76  C26 non d ame     -32.391  11.586  29.522  0.00  0.00    -0.035 C 
ATOM     77  C27 non d ame     -32.447  12.132  30.760  0.00  0.00     0.085 C 
ATOM     78  H38 non d ame     -33.299  11.951  29.041  0.00  0.00     0.036 H 
ATOM     79  H39 non d ame     -32.271  10.520  29.719  0.00  0.00     0.036 H 
ATOM     80  N5  non d ame     -31.467  13.281  30.779  0.00  0.00    -0.049 N 
ATOM     81  H40 non d ame     -33.459  12.525  30.860  0.00  0.00     0.075 H 
ATOM     82  H41 non d ame     -32.096  11.355  31.437  0.00  0.00     0.075 H 
ATOM     83  C28 non d ame     -30.535  13.091  29.475  0.00  0.00     0.193 C 
ATOM     84  H42 non d ame     -32.012  14.123  30.665  0.00  0.00     0.280 HD
ATOM     85  H43 non d ame     -30.897  13.155  31.604  0.00  0.00     0.280 HD
ATOM     86  H44 non d ame     -29.520  12.706  29.572  0.00  0.00     0.129 H 
ATOM     87  H37 non d ame     -30.195  11.517  28.691  0.00  0.00     0.046 H 
BRANCH  83  88
ATOM     88  O6  non d ame     -30.410  14.330  28.774  0.00  0.00    -0.369 OA
ATOM     89  H45 non d ame     -30.995  14.328  28.013  0.00  0.00     0.212 HD
ENDBRANCH  83  88
ENDBRANCH  72  75
ENDBRANCH  47  72
ENDBRANCH  45  47
ENDBRANCH   1  43
BRANCH   1  90
ATOM     90  C16 non d ame     -32.025   9.260  23.633  0.00  0.00    -0.035 C 
ATOM     91  H21 non d ame     -33.031   9.269  23.216  0.00  0.00     0.037 H 
ATOM     92  H22 non d ame     -31.508  10.199  23.830  0.00  0.00     0.037 H 
BRANCH  90  93
ATOM     93  C17 non d ame     -31.136   8.470  22.620  0.00  0.00    -0.059 C 
ATOM     94  H23 non d ame     -30.654   7.660  23.166  0.00  0.00     0.038 H 
BRANCH  93  95
ATOM     95  C18 non d ame     -31.978   7.833  21.469  0.00  0.00    -0.073 C 
ATOM     96  H24 non d ame     -32.390   8.622  20.839  0.00  0.00     0.028 H 
ATOM     97  H25 non d ame     -31.340   7.186  20.867  0.00  0.00     0.028 H 
ATOM     98  H26 non d ame     -32.792   7.247  21.895  0.00  0.00     0.028 H 
ENDBRANCH  93  95
BRANCH  93  99
ATOM     99  C19 non d ame     -30.028   9.362  22.054  0.00  0.00    -0.073 C 
ATOM    100  H27 non d ame     -30.389   9.864  21.155  0.00  0.00     0.028 H 
ATOM    101  H28 non d ame     -29.746  10.108  22.797  0.00  0.00     0.028 H 
ATOM    102  H29 non d ame     -29.161   8.750  21.806  0.00  0.00     0.028 H 
ENDBRANCH  93  99
ENDBRANCH  90  93
ENDBRANCH   1  90
TORSDOF 26
ENDMDL
MODEL 13
REMARK VINA RESULT:      -5.9      3.911      9.170
REMARK  26 active torsions:
REMARK  status: ('A' for Active; 'I' for Inactive)
REMARK    1  A    between atoms: C2_2  and  C3_3 
REMARK    2  A    between atoms: C4_6  and  C5_7 
REMARK       I    between atoms: C5_7  and  N2_9 
REMARK    3  A    between atoms: N2_9  and  C6_10 
REMARK    4  A    between atoms: C6_10  and  C7_11 
REMARK    5  A    between atoms: C6_10  and  C8_13 
REMARK       I    between atoms: C7_11  and  N3_14 
REMARK    6  A    between atoms: N3_14  and  C9_15 
REMARK    7  A    between atoms: C9_15  and  C10_16 
REMARK    8  A    between atoms: C9_15  and  C11_18 
REMARK       I    between atoms: C10_16  and  N4_21 
REMARK    9  A    between atoms: C11_18  and  C12_19 
REMARK   10  A    between atoms: C11_18  and  C13_20 
REMARK   11  A    between atoms: N4_21  and  C14_22 
REMARK   12  A    between atoms: C14_22  and  C15_23 
REMARK   13  A    between atoms: C14_22  and  C16_25 
REMARK       I    between atoms: C15_23  and  N6_40 
REMARK   14  A    between atoms: C16_25  and  C17_26 
REMARK   15  A    between atoms: C17_26  and  C18_27 
REMARK   16  A    between atoms: C17_26  and  C19_28 
REMARK   17  A    between atoms: C20_29  and  C21_30 
REMARK   18  A    between atoms: C20_29  and  C24_33 
REMARK   19  A    between atoms: C20_29  and  N6_40 
REMARK   20  A    between atoms: C21_30  and  C22_31 
REMARK   21  A    between atoms: C22_31  and  C23_32 
REMARK   22  A    between atoms: C23_32  and  O8_43 
REMARK   23  A    between atoms: C24_33  and  C25_34 
REMARK   24  A    between atoms: C28_38  and  O6_39 
REMARK   25  A    between atoms: C29_42  and  O8_43 
REMARK   26  A    between atoms: C29_42  and  C35_49 
ROOT
ATOM      1  C14 non d ame     -33.169  12.131  28.627  0.00  0.00     0.089 C 
ATOM      2  H20 non d ame     -33.215  12.505  29.650  0.00  0.00     0.087 H 
ENDROOT
BRANCH   1   3
ATOM      3  N4  non d ame     -33.917  10.884  28.581  0.00  0.00    -0.346 N 
ATOM      4  C10 non d ame     -34.039  10.024  29.813  0.00  0.00     0.241 C 
ATOM      5  O4  non d ame     -33.526  10.355  30.830  0.00  0.00    -0.271 OA
ATOM      6  H19 non d ame     -34.344  10.618  27.705  0.00  0.00     0.163 HD
BRANCH   4   7
ATOM      7  C9  non d ame     -34.821   8.737  29.749  0.00  0.00     0.092 C 
ATOM      8  H11 non d ame     -35.747   8.907  29.202  0.00  0.00     0.088 H 
BRANCH   7   9
ATOM      9  N3  non d ame     -34.054   7.735  29.002  0.00  0.00    -0.346 N 
ATOM     10  C7  non d ame     -34.431   7.398  27.652  0.00  0.00     0.240 C 
ATOM     11  O3  non d ame     -35.350   7.923  27.151  0.00  0.00    -0.271 OA
ATOM     12  H10 non d ame     -33.260   7.274  29.422  0.00  0.00     0.163 HD
BRANCH  10  13
ATOM     13  C6  non d ame     -33.613   6.329  26.863  0.00  0.00     0.086 C 
ATOM     14  H6  non d ame     -33.975   5.315  27.029  0.00  0.00     0.086 H 
BRANCH  13  15
ATOM     15  N2  non d ame     -33.746   6.590  25.440  0.00  0.00    -0.343 N 
ATOM     16  C5  non d ame     -33.778   5.467  24.501  0.00  0.00     0.273 C 
ATOM     17  O2  non d ame     -33.694   4.357  24.900  0.00  0.00    -0.266 OA
ATOM     18  H5  non d ame     -33.815   7.541  25.107  0.00  0.00     0.163 HD
BRANCH  16  19
ATOM     19  C4  non d ame     -33.919   5.728  22.992  0.00  0.00     0.154 A 
ATOM     20  C1  non d ame     -32.943   5.477  21.977  0.00  0.00    -0.017 A 
ATOM     21  C2  non d ame     -33.558   5.886  20.773  0.00  0.00     0.077 A 
ATOM     22  H1  non d ame     -31.942   5.062  22.095  0.00  0.00     0.091 H 
ATOM     23  O1  non d ame     -34.748   6.318  21.073  0.00  0.00    -0.218 OA
ATOM     24  N1  non d ame     -34.981   6.236  22.362  0.00  0.00    -0.123 NA
BRANCH  21  25
ATOM     25  C3  non d ame     -32.943   5.830  19.382  0.00  0.00    -0.029 C 
ATOM     26  H2  non d ame     -32.324   4.938  19.293  0.00  0.00     0.036 H 
ATOM     27  H3  non d ame     -33.736   5.796  18.634  0.00  0.00     0.036 H 
ATOM     28  H4  non d ame     -32.329   6.715  19.218  0.00  0.00     0.036 H 
ENDBRANCH  21  25
ENDBRANCH  16  19
ENDBRANCH  13  15
BRANCH  13  29
ATOM     29  C8  non d ame     -32.164   6.402  27.269  0.00  0.00    -0.049 C 
ATOM     30  H7  non d ame     -31.533   6.206  26.403  0.00  0.00     0.030 H 
ATOM     31  H8  non d ame     -31.944   7.396  27.659  0.00  0.00     0.030 H 
ATOM     32  H9  non d ame     -31.964   5.656  28.040  0.00  0.00     0.030 H 
ENDBRANCH  13  29
ENDBRANCH  10  13
ENDBRANCH   7   9
BRANCH   7  33
ATOM     33  C11 non d ame     -35.080   8.216  31.194  0.00  0.00    -0.033 C 
ATOM     34  H12 non d ame     -34.285   8.604  31.830  0.00  0.00     0.042 H 
BRANCH  33  35
ATOM     35  C12 non d ame     -36.434   8.752  31.755  0.00  0.00    -0.071 C 
ATOM     36  H13 non d ame     -36.342   9.816  31.973  0.00  0.00     0.028 H 
ATOM     37  H14 non d ame     -37.220   8.599  31.017  0.00  0.00     0.028 H 
ATOM     38  H15 non d ame     -36.685   8.215  32.670  0.00  0.00     0.028 H 
ENDBRANCH  33  35
BRANCH  33  39
ATOM     39  C13 non d ame     -35.022   6.656  31.244  0.00  0.00    -0.071 C 
ATOM     40  H16 non d ame     -34.024   6.320  30.962  0.00  0.00     0.028 H 
ATOM     41  H17 non d ame     -35.249   6.316  32.255  0.00  0.00     0.028 H 
ATOM     42  H18 non d ame     -35.754   6.243  30.551  0.00  0.00     0.028 H 
ENDBRANCH  33  39
ENDBRANCH   7  33
ENDBRANCH   4   7
ENDBRANCH   1   3
BRANCH   1  43
ATOM     43  C15 non d ame     -33.803  13.126  27.611  0.00  0.00     0.240 C 
ATOM     44  O5  non d ame     -34.822  12.846  27.067  0.00  0.00    -0.271 OA
ATOM     45  N6  non d ame     -33.143  14.431  27.323  0.00  0.00    -0.355 N 
ATOM     46  H46 non d ame     -32.279  14.682  27.783  0.00  0.00     0.162 HD
BRANCH  45  47
ATOM     47  C20 non d ame     -33.759  15.365  26.356  0.00  0.00     0.013 C 
ATOM     48  H30 non d ame     -34.566  14.837  25.848  0.00  0.00     0.072 H 
BRANCH  47  49
ATOM     49  C21 non d ame     -32.717  15.805  25.353  0.00  0.00    -0.038 C 
ATOM     50  H31 non d ame     -33.156  15.622  24.372  0.00  0.00     0.036 H 
ATOM     51  H32 non d ame     -32.437  16.818  25.644  0.00  0.00     0.036 H 
BRANCH  49  52
ATOM     52  C22 non d ame     -31.426  14.959  25.419  0.00  0.00     0.018 C 
ATOM     53  H33 non d ame     -30.720  15.544  26.006  0.00  0.00     0.048 H 
ATOM     54  H34 non d ame     -31.738  13.973  25.764  0.00  0.00     0.048 H 
BRANCH  52  55
ATOM     55  C23 non d ame     -30.753  14.736  24.037  0.00  0.00     0.259 C 
ATOM     56  O7  non d ame     -30.315  15.656  23.424  0.00  0.00    -0.265 OA
BRANCH  55  57
ATOM     57  O8  non d ame     -30.676  13.419  23.503  0.00  0.00    -0.317 OA
BRANCH  57  58
ATOM     58  C29 non d ame     -31.062  12.394  24.423  0.00  0.00     0.052 C 
ATOM     59  H47 non d ame     -30.312  12.410  25.214  0.00  0.00     0.082 H 
ATOM     60  H48 non d ame     -32.108  12.588  24.659  0.00  0.00     0.082 H 
BRANCH  58  61
ATOM     61  C35 non d ame     -30.971  11.031  23.686  0.00  0.00    -0.034 A 
ATOM     62  C30 non d ame     -29.948  10.801  22.772  0.00  0.00    -0.075 A 
ATOM     63  C31 non d ame     -29.867   9.577  22.109  0.00  0.00    -0.082 A 
ATOM     64  H49 non d ame     -29.211  11.579  22.573  0.00  0.00     0.084 H 
ATOM     65  C32 non d ame     -30.814   8.581  22.363  0.00  0.00    -0.083 A 
ATOM     66  H50 non d ame     -29.062   9.399  21.394  0.00  0.00     0.083 H 
ATOM     67  C33 non d ame     -31.835   8.817  23.273  0.00  0.00    -0.082 A 
ATOM     68  H51 non d ame     -30.757   7.621  21.850  0.00  0.00     0.083 H 
ATOM     69  C34 non d ame     -31.919  10.038  23.939  0.00  0.00    -0.075 A 
ATOM     70  H52 non d ame     -32.574   8.039  23.467  0.00  0.00     0.083 H 
ATOM     71  H53 non d ame     -32.723  10.215  24.654  0.00  0.00     0.084 H 
ENDBRANCH  58  61
ENDBRANCH  57  58
ENDBRANCH  55  57
ENDBRANCH  52  55
ENDBRANCH  49  52
ENDBRANCH  47  49
BRANCH  47  72
ATOM     72  C24 non d ame     -34.306  16.586  27.093  0.00  0.00    -0.039 C 
ATOM     73  H35 non d ame     -35.315  16.730  26.706  0.00  0.00     0.036 H 
ATOM     74  H36 non d ame     -34.153  16.377  28.152  0.00  0.00     0.036 H 
BRANCH  72  75
ATOM     75  C25 non d ame     -33.473  17.910  26.747  0.00  0.00    -0.001 C 
ATOM     76  C26 non d ame     -32.563  18.353  28.042  0.00  0.00    -0.035 C 
ATOM     77  C27 non d ame     -32.793  19.661  28.311  0.00  0.00     0.085 C 
ATOM     78  H38 non d ame     -32.913  17.843  28.938  0.00  0.00     0.036 H 
ATOM     79  H39 non d ame     -31.504  18.330  27.781  0.00  0.00     0.036 H 
ATOM     80  N5  non d ame     -34.020  20.062  27.526  0.00  0.00    -0.049 N 
ATOM     81  H40 non d ame     -33.023  19.702  29.376  0.00  0.00     0.075 H 
ATOM     82  H41 non d ame     -31.930  20.195  27.919  0.00  0.00     0.075 H 
ATOM     83  C28 non d ame     -34.258  18.889  26.444  0.00  0.00     0.193 C 
ATOM     84  H42 non d ame     -34.790  20.059  28.179  0.00  0.00     0.280 HD
ATOM     85  H43 non d ame     -33.777  20.911  27.034  0.00  0.00     0.280 HD
ATOM     86  H44 non d ame     -33.991  19.040  25.397  0.00  0.00     0.129 H 
ATOM     87  H37 non d ame     -32.966  17.838  25.785  0.00  0.00     0.046 H 
BRANCH  83  88
ATOM     88  O6  non d ame     -35.632  18.497  26.436  0.00  0.00    -0.369 OA
ATOM     89  H45 non d ame     -35.982  18.539  27.330  0.00  0.00     0.212 HD
ENDBRANCH  83  88
ENDBRANCH  72  75
ENDBRANCH  47  72
ENDBRANCH  45  47
ENDBRANCH   1  43
BRANCH   1  90
ATOM     90  C16 non d ame     -31.724  11.860  28.242  0.00  0.00    -0.035 C 
ATOM     91  H21 non d ame     -31.599  10.782  28.334  0.00  0.00     0.037 H 
ATOM     92  H22 non d ame     -31.587  12.345  27.276  0.00  0.00     0.037 H 
BRANCH  90  93
ATOM     93  C17 non d ame     -30.686  12.507  29.213  0.00  0.00    -0.059 C 
ATOM     94  H23 non d ame     -29.787  11.890  29.196  0.00  0.00     0.038 H 
BRANCH  93  95
ATOM     95  C18 non d ame     -30.281  13.949  28.768  0.00  0.00    -0.073 C 
ATOM     96  H24 non d ame     -29.202  14.070  28.864  0.00  0.00     0.028 H 
ATOM     97  H25 non d ame     -30.572  14.103  27.729  0.00  0.00     0.028 H 
ATOM     98  H26 non d ame     -30.787  14.679  29.399  0.00  0.00     0.028 H 
ENDBRANCH  93  95
BRANCH  93  99
ATOM     99  C19 non d ame     -31.209  12.509  30.652  0.00  0.00    -0.073 C 
ATOM    100  H27 non d ame     -30.512  13.052  31.292  0.00  0.00     0.028 H 
ATOM    101  H28 non d ame     -32.185  12.995  30.684  0.00  0.00     0.028 H 
ATOM    102  H29 non d ame     -31.303  11.482  31.006  0.00  0.00     0.028 H 
ENDBRANCH  93  99
ENDBRANCH  90  93
ENDBRANCH   1  90
TORSDOF 26
ENDMDL
MODEL 14
REMARK VINA RESULT:      -5.9      4.071      9.869
REMARK  26 active torsions:
REMARK  status: ('A' for Active; 'I' for Inactive)
REMARK    1  A    between atoms: C2_2  and  C3_3 
REMARK    2  A    between atoms: C4_6  and  C5_7 
REMARK       I    between atoms: C5_7  and  N2_9 
REMARK    3  A    between atoms: N2_9  and  C6_10 
REMARK    4  A    between atoms: C6_10  and  C7_11 
REMARK    5  A    between atoms: C6_10  and  C8_13 
REMARK       I    between atoms: C7_11  and  N3_14 
REMARK    6  A    between atoms: N3_14  and  C9_15 
REMARK    7  A    between atoms: C9_15  and  C10_16 
REMARK    8  A    between atoms: C9_15  and  C11_18 
REMARK       I    between atoms: C10_16  and  N4_21 
REMARK    9  A    between atoms: C11_18  and  C12_19 
REMARK   10  A    between atoms: C11_18  and  C13_20 
REMARK   11  A    between atoms: N4_21  and  C14_22 
REMARK   12  A    between atoms: C14_22  and  C15_23 
REMARK   13  A    between atoms: C14_22  and  C16_25 
REMARK       I    between atoms: C15_23  and  N6_40 
REMARK   14  A    between atoms: C16_25  and  C17_26 
REMARK   15  A    between atoms: C17_26  and  C18_27 
REMARK   16  A    between atoms: C17_26  and  C19_28 
REMARK   17  A    between atoms: C20_29  and  C21_30 
REMARK   18  A    between atoms: C20_29  and  C24_33 
REMARK   19  A    between atoms: C20_29  and  N6_40 
REMARK   20  A    between atoms: C21_30  and  C22_31 
REMARK   21  A    between atoms: C22_31  and  C23_32 
REMARK   22  A    between atoms: C23_32  and  O8_43 
REMARK   23  A    between atoms: C24_33  and  C25_34 
REMARK   24  A    between atoms: C28_38  and  O6_39 
REMARK   25  A    between atoms: C29_42  and  O8_43 
REMARK   26  A    between atoms: C29_42  and  C35_49 
ROOT
ATOM      1  C14 non d ame     -35.132   9.493  28.509  0.00  0.00     0.089 C 
ATOM      2  H20 non d ame     -35.846   9.671  27.705  0.00  0.00     0.087 H 
ENDROOT
BRANCH   1   3
ATOM      3  N4  non d ame     -35.244   8.094  28.893  0.00  0.00    -0.346 N 
ATOM      4  C10 non d ame     -36.518   7.332  28.632  0.00  0.00     0.241 C 
ATOM      5  O4  non d ame     -37.442   7.866  28.113  0.00  0.00    -0.271 OA
ATOM      6  H19 non d ame     -34.448   7.658  29.336  0.00  0.00     0.163 HD
BRANCH   4   7
ATOM      7  C9  non d ame     -36.615   5.883  29.032  0.00  0.00     0.092 C 
ATOM      8  H11 non d ame     -37.385   5.396  28.434  0.00  0.00     0.088 H 
BRANCH   7   9
ATOM      9  N3  non d ame     -35.347   5.208  28.739  0.00  0.00    -0.346 N 
ATOM     10  C7  non d ame     -35.268   4.262  27.654  0.00  0.00     0.240 C 
ATOM     11  O3  non d ame     -36.216   4.030  27.007  0.00  0.00    -0.271 OA
ATOM     12  H10 non d ame     -34.522   5.397  29.290  0.00  0.00     0.163 HD
BRANCH  10  13
ATOM     13  C6  non d ame     -33.917   3.545  27.349  0.00  0.00     0.086 C 
ATOM     14  H6  non d ame     -34.005   2.458  27.353  0.00  0.00     0.086 H 
BRANCH  13  15
ATOM     15  N2  non d ame     -33.473   3.920  26.017  0.00  0.00    -0.343 N 
ATOM     16  C5  non d ame     -33.003   5.285  25.771  0.00  0.00     0.273 C 
ATOM     17  O2  non d ame     -32.988   6.075  26.650  0.00  0.00    -0.266 OA
ATOM     18  H5  non d ame     -33.492   3.240  25.270  0.00  0.00     0.163 HD
BRANCH  16  19
ATOM     19  C4  non d ame     -32.531   5.695  24.367  0.00  0.00     0.154 A 
ATOM     20  C1  non d ame     -33.167   5.399  23.120  0.00  0.00    -0.017 A 
ATOM     21  C2  non d ame     -32.341   5.995  22.141  0.00  0.00     0.077 A 
ATOM     22  H1  non d ame     -34.086   4.837  22.951  0.00  0.00     0.091 H 
ATOM     23  O1  non d ame     -31.352   6.566  22.763  0.00  0.00    -0.218 OA
ATOM     24  N1  non d ame     -31.441   6.405  24.063  0.00  0.00    -0.123 NA
BRANCH  21  25
ATOM     25  C3  non d ame     -32.569   5.976  20.636  0.00  0.00    -0.029 C 
ATOM     26  H2  non d ame     -31.618   5.828  20.125  0.00  0.00     0.036 H 
ATOM     27  H3  non d ame     -33.246   5.160  20.381  0.00  0.00     0.036 H 
ATOM     28  H4  non d ame     -33.008   6.922  20.321  0.00  0.00     0.036 H 
ENDBRANCH  21  25
ENDBRANCH  16  19
ENDBRANCH  13  15
BRANCH  13  29
ATOM     29  C8  non d ame     -32.886   3.952  28.371  0.00  0.00    -0.049 C 
ATOM     30  H7  non d ame     -31.901   3.619  28.047  0.00  0.00     0.030 H 
ATOM     31  H8  non d ame     -32.886   5.037  28.474  0.00  0.00     0.030 H 
ATOM     32  H9  non d ame     -33.127   3.496  29.332  0.00  0.00     0.030 H 
ENDBRANCH  13  29
ENDBRANCH  10  13
ENDBRANCH   7   9
BRANCH   7  33
ATOM     33  C11 non d ame     -36.910   5.785  30.558  0.00  0.00    -0.033 C 
ATOM     34  H12 non d ame     -37.415   4.836  30.736  0.00  0.00     0.042 H 
BRANCH  33  35
ATOM     35  C12 non d ame     -35.591   5.778  31.392  0.00  0.00    -0.071 C 
ATOM     36  H13 non d ame     -34.834   5.193  30.869  0.00  0.00     0.028 H 
ATOM     37  H14 non d ame     -35.236   6.800  31.521  0.00  0.00     0.028 H 
ATOM     38  H15 non d ame     -35.781   5.333  32.369  0.00  0.00     0.028 H 
ENDBRANCH  33  35
BRANCH  33  39
ATOM     39  C13 non d ame     -37.865   6.933  31.017  0.00  0.00    -0.071 C 
ATOM     40  H16 non d ame     -37.839   7.015  32.104  0.00  0.00     0.028 H 
ATOM     41  H17 non d ame     -37.541   7.876  30.574  0.00  0.00     0.028 H 
ATOM     42  H18 non d ame     -38.882   6.712  30.694  0.00  0.00     0.028 H 
ENDBRANCH  33  39
ENDBRANCH   7  33
ENDBRANCH   4   7
ENDBRANCH   1   3
BRANCH   1  43
ATOM     43  C15 non d ame     -33.666   9.768  28.063  0.00  0.00     0.240 C 
ATOM     44  O5  non d ame     -32.868   8.888  28.080  0.00  0.00    -0.271 OA
ATOM     45  N6  non d ame     -33.261  11.127  27.604  0.00  0.00    -0.355 N 
ATOM     46  H46 non d ame     -33.932  11.882  27.580  0.00  0.00     0.162 HD
BRANCH  45  47
ATOM     47  C20 non d ame     -31.865  11.372  27.183  0.00  0.00     0.013 C 
ATOM     48  H30 non d ame     -31.264  10.520  27.503  0.00  0.00     0.072 H 
BRANCH  47  49
ATOM     49  C21 non d ame     -31.359  12.637  27.837  0.00  0.00    -0.038 C 
ATOM     50  H31 non d ame     -32.168  12.977  28.485  0.00  0.00     0.036 H 
ATOM     51  H32 non d ame     -30.389  12.380  28.265  0.00  0.00     0.036 H 
BRANCH  49  52
ATOM     52  C22 non d ame     -31.102  13.775  26.824  0.00  0.00     0.018 C 
ATOM     53  H33 non d ame     -30.493  14.507  27.352  0.00  0.00     0.048 H 
ATOM     54  H34 non d ame     -30.718  13.289  25.927  0.00  0.00     0.048 H 
BRANCH  52  55
ATOM     55  C23 non d ame     -32.391  14.525  26.386  0.00  0.00     0.259 C 
ATOM     56  O7  non d ame     -33.397  14.409  27.009  0.00  0.00    -0.265 OA
BRANCH  55  57
ATOM     57  O8  non d ame     -32.359  15.343  25.223  0.00  0.00    -0.317 OA
BRANCH  57  58
ATOM     58  C29 non d ame     -31.074  15.902  24.938  0.00  0.00     0.052 C 
ATOM     59  H47 non d ame     -31.211  16.983  24.961  0.00  0.00     0.082 H 
ATOM     60  H48 non d ame     -30.384  15.425  25.633  0.00  0.00     0.082 H 
BRANCH  58  61
ATOM     61  C35 non d ame     -30.680  15.487  23.495  0.00  0.00    -0.034 A 
ATOM     62  C30 non d ame     -29.942  14.327  23.281  0.00  0.00    -0.075 A 
ATOM     63  C31 non d ame     -29.588  13.954  21.985  0.00  0.00    -0.082 A 
ATOM     64  H49 non d ame     -29.640  13.710  24.128  0.00  0.00     0.084 H 
ATOM     65  C32 non d ame     -29.974  14.746  20.901  0.00  0.00    -0.083 A 
ATOM     66  H50 non d ame     -29.011  13.043  21.821  0.00  0.00     0.083 H 
ATOM     67  C33 non d ame     -30.707  15.905  21.120  0.00  0.00    -0.082 A 
ATOM     68  H51 non d ame     -29.702  14.461  19.884  0.00  0.00     0.083 H 
ATOM     69  C34 non d ame     -31.064  16.280  22.413  0.00  0.00    -0.075 A 
ATOM     70  H52 non d ame     -31.004  16.523  20.271  0.00  0.00     0.083 H 
ATOM     71  H53 non d ame     -31.642  17.190  22.577  0.00  0.00     0.084 H 
ENDBRANCH  58  61
ENDBRANCH  57  58
ENDBRANCH  55  57
ENDBRANCH  52  55
ENDBRANCH  49  52
ENDBRANCH  47  49
BRANCH  47  72
ATOM     72  C24 non d ame     -31.803  11.522  25.664  0.00  0.00    -0.039 C 
ATOM     73  H35 non d ame     -32.821  11.761  25.355  0.00  0.00     0.036 H 
ATOM     74  H36 non d ame     -30.996  12.231  25.475  0.00  0.00     0.036 H 
BRANCH  72  75
ATOM     75  C25 non d ame     -31.401  10.147  24.948  0.00  0.00    -0.001 C 
ATOM     76  C26 non d ame     -30.226  10.420  23.832  0.00  0.00    -0.035 C 
ATOM     77  C27 non d ame     -30.606   9.872  22.653  0.00  0.00     0.085 C 
ATOM     78  H38 non d ame     -30.161  11.484  23.608  0.00  0.00     0.036 H 
ATOM     79  H39 non d ame     -29.325   9.863  24.092  0.00  0.00     0.036 H 
ATOM     80  N5  non d ame     -32.074   9.537  22.776  0.00  0.00    -0.049 N 
ATOM     81  H40 non d ame     -30.482  10.661  21.911  0.00  0.00     0.075 H 
ATOM     82  H41 non d ame     -30.037   8.947  22.564  0.00  0.00     0.075 H 
ATOM     83  C28 non d ame     -32.417   9.617  24.351  0.00  0.00     0.193 C 
ATOM     84  H42 non d ame     -32.575  10.272  22.300  0.00  0.00     0.280 HD
ATOM     85  H43 non d ame     -32.173   8.578  22.473  0.00  0.00     0.280 HD
ATOM     86  H44 non d ame     -32.538   8.706  24.938  0.00  0.00     0.129 H 
ATOM     87  H37 non d ame     -31.229   9.344  25.664  0.00  0.00     0.046 H 
BRANCH  83  88
ATOM     88  O6  non d ame     -33.615  10.367  24.557  0.00  0.00    -0.369 OA
ATOM     89  H45 non d ame     -34.366   9.770  24.585  0.00  0.00     0.212 HD
ENDBRANCH  83  88
ENDBRANCH  72  75
ENDBRANCH  47  72
ENDBRANCH  45  47
ENDBRANCH   1  43
BRANCH   1  90
ATOM     90  C16 non d ame     -35.474  10.366  29.705  0.00  0.00    -0.035 C 
ATOM     91  H21 non d ame     -35.195  11.377  29.413  0.00  0.00     0.037 H 
ATOM     92  H22 non d ame     -36.512  10.134  29.944  0.00  0.00     0.037 H 
BRANCH  90  93
ATOM     93  C17 non d ame     -34.641  10.031  30.983  0.00  0.00    -0.059 C 
ATOM     94  H23 non d ame     -34.028   9.158  30.758  0.00  0.00     0.038 H 
BRANCH  93  95
ATOM     95  C18 non d ame     -33.682  11.196  31.384  0.00  0.00    -0.073 C 
ATOM     96  H24 non d ame     -33.965  11.580  32.364  0.00  0.00     0.028 H 
ATOM     97  H25 non d ame     -32.657  10.827  31.422  0.00  0.00     0.028 H 
ATOM     98  H26 non d ame     -33.753  11.996  30.646  0.00  0.00     0.028 H 
ENDBRANCH  93  95
BRANCH  93  99
ATOM     99  C19 non d ame     -35.558   9.655  32.150  0.00  0.00    -0.073 C 
ATOM    100  H27 non d ame     -35.667  10.512  32.817  0.00  0.00     0.028 H 
ATOM    101  H28 non d ame     -36.537   9.368  31.767  0.00  0.00     0.028 H 
ATOM    102  H29 non d ame     -35.124   8.820  32.699  0.00  0.00     0.028 H 
ENDBRANCH  93  99
ENDBRANCH  90  93
ENDBRANCH   1  90
TORSDOF 26
ENDMDL
MODEL 15
REMARK VINA RESULT:      -5.9      3.475      8.990
REMARK  26 active torsions:
REMARK  status: ('A' for Active; 'I' for Inactive)
REMARK    1  A    between atoms: C2_2  and  C3_3 
REMARK    2  A    between atoms: C4_6  and  C5_7 
REMARK       I    between atoms: C5_7  and  N2_9 
REMARK    3  A    between atoms: N2_9  and  C6_10 
REMARK    4  A    between atoms: C6_10  and  C7_11 
REMARK    5  A    between atoms: C6_10  and  C8_13 
REMARK       I    between atoms: C7_11  and  N3_14 
REMARK    6  A    between atoms: N3_14  and  C9_15 
REMARK    7  A    between atoms: C9_15  and  C10_16 
REMARK    8  A    between atoms: C9_15  and  C11_18 
REMARK       I    between atoms: C10_16  and  N4_21 
REMARK    9  A    between atoms: C11_18  and  C12_19 
REMARK   10  A    between atoms: C11_18  and  C13_20 
REMARK   11  A    between atoms: N4_21  and  C14_22 
REMARK   12  A    between atoms: C14_22  and  C15_23 
REMARK   13  A    between atoms: C14_22  and  C16_25 
REMARK       I    between atoms: C15_23  and  N6_40 
REMARK   14  A    between atoms: C16_25  and  C17_26 
REMARK   15  A    between atoms: C17_26  and  C18_27 
REMARK   16  A    between atoms: C17_26  and  C19_28 
REMARK   17  A    between atoms: C20_29  and  C21_30 
REMARK   18  A    between atoms: C20_29  and  C24_33 
REMARK   19  A    between atoms: C20_29  and  N6_40 
REMARK   20  A    between atoms: C21_30  and  C22_31 
REMARK   21  A    between atoms: C22_31  and  C23_32 
REMARK   22  A    between atoms: C23_32  and  O8_43 
REMARK   23  A    between atoms: C24_33  and  C25_34 
REMARK   24  A    between atoms: C28_38  and  O6_39 
REMARK   25  A    between atoms: C29_42  and  O8_43 
REMARK   26  A    between atoms: C29_42  and  C35_49 
ROOT
ATOM      1  C14 non d ame     -32.142  11.764  28.601  0.00  0.00     0.089 C 
ATOM      2  H20 non d ame     -31.243  12.336  28.833  0.00  0.00     0.087 H 
ENDROOT
BRANCH   1   3
ATOM      3  N4  non d ame     -33.225  12.715  28.397  0.00  0.00    -0.346 N 
ATOM      4  C10 non d ame     -32.931  14.113  27.918  0.00  0.00     0.241 C 
ATOM      5  O4  non d ame     -31.814  14.453  27.705  0.00  0.00    -0.271 OA
ATOM      6  H19 non d ame     -34.168  12.407  28.587  0.00  0.00     0.163 HD
BRANCH   4   7
ATOM      7  C9  non d ame     -34.064  15.083  27.708  0.00  0.00     0.092 C 
ATOM      8  H11 non d ame     -34.445  15.405  28.677  0.00  0.00     0.088 H 
BRANCH   7   9
ATOM      9  N3  non d ame     -33.565  16.277  27.019  0.00  0.00    -0.346 N 
ATOM     10  C7  non d ame     -33.907  17.588  27.512  0.00  0.00     0.240 C 
ATOM     11  O3  non d ame     -34.583  17.701  28.461  0.00  0.00    -0.271 OA
ATOM     12  H10 non d ame     -32.982  16.195  26.199  0.00  0.00     0.163 HD
BRANCH  10  13
ATOM     13  C6  non d ame     -33.375  18.856  26.773  0.00  0.00     0.086 C 
ATOM     14  H6  non d ame     -32.741  18.612  25.922  0.00  0.00     0.086 H 
BRANCH  13  15
ATOM     15  N2  non d ame     -34.505  19.605  26.249  0.00  0.00    -0.343 N 
ATOM     16  C5  non d ame     -35.440  18.953  25.331  0.00  0.00     0.273 C 
ATOM     17  O2  non d ame     -35.273  17.826  25.016  0.00  0.00    -0.266 OA
ATOM     18  H5  non d ame     -34.638  20.569  26.521  0.00  0.00     0.163 HD
BRANCH  16  19
ATOM     19  C4  non d ame     -36.639  19.734  24.770  0.00  0.00     0.154 A 
ATOM     20  C1  non d ame     -37.926  19.893  25.374  0.00  0.00    -0.017 A 
ATOM     21  C2  non d ame     -38.658  20.688  24.465  0.00  0.00     0.077 A 
ATOM     22  H1  non d ame     -38.275  19.494  26.326  0.00  0.00     0.091 H 
ATOM     23  O1  non d ame     -37.874  20.951  23.461  0.00  0.00    -0.218 OA
ATOM     24  N1  non d ame     -36.690  20.404  23.616  0.00  0.00    -0.123 NA
BRANCH  21  25
ATOM     25  C3  non d ame     -40.098  21.154  24.631  0.00  0.00    -0.029 C 
ATOM     26  H2  non d ame     -40.275  21.425  25.671  0.00  0.00     0.036 H 
ATOM     27  H3  non d ame     -40.275  22.022  23.996  0.00  0.00     0.036 H 
ATOM     28  H4  non d ame     -40.776  20.351  24.345  0.00  0.00     0.036 H 
ENDBRANCH  21  25
ENDBRANCH  16  19
ENDBRANCH  13  15
BRANCH  13  29
ATOM     29  C8  non d ame     -32.590  19.710  27.736  0.00  0.00    -0.049 C 
ATOM     30  H7  non d ame     -33.009  20.715  27.755  0.00  0.00     0.030 H 
ATOM     31  H8  non d ame     -32.644  19.276  28.734  0.00  0.00     0.030 H 
ATOM     32  H9  non d ame     -31.549  19.756  27.415  0.00  0.00     0.030 H 
ENDBRANCH  13  29
ENDBRANCH  10  13
ENDBRANCH   7   9
BRANCH   7  33
ATOM     33  C11 non d ame     -35.167  14.410  26.839  0.00  0.00    -0.033 C 
ATOM     34  H12 non d ame     -35.362  13.424  27.260  0.00  0.00     0.042 H 
BRANCH  33  35
ATOM     35  C12 non d ame     -36.503  15.215  26.893  0.00  0.00    -0.071 C 
ATOM     36  H13 non d ame     -36.752  15.575  25.894  0.00  0.00     0.028 H 
ATOM     37  H14 non d ame     -37.302  14.570  27.256  0.00  0.00     0.028 H 
ATOM     38  H15 non d ame     -36.388  16.065  27.566  0.00  0.00     0.028 H 
ENDBRANCH  33  35
BRANCH  33  39
ATOM     39  C13 non d ame     -34.680  14.219  25.367  0.00  0.00    -0.071 C 
ATOM     40  H16 non d ame     -34.758  13.167  25.092  0.00  0.00     0.028 H 
ATOM     41  H17 non d ame     -35.300  14.817  24.698  0.00  0.00     0.028 H 
ATOM     42  H18 non d ame     -33.642  14.540  25.283  0.00  0.00     0.028 H 
ENDBRANCH  33  39
ENDBRANCH   7  33
ENDBRANCH   4   7
ENDBRANCH   1   3
BRANCH   1  43
ATOM     43  C15 non d ame     -31.979  10.914  27.308  0.00  0.00     0.240 C 
ATOM     44  O5  non d ame     -31.066  11.120  26.576  0.00  0.00    -0.271 OA
ATOM     45  N6  non d ame     -32.957   9.835  26.988  0.00  0.00    -0.355 N 
ATOM     46  H46 non d ame     -33.734   9.647  27.605  0.00  0.00     0.162 HD
BRANCH  45  47
ATOM     47  C20 non d ame     -32.787   9.035  25.755  0.00  0.00     0.013 C 
ATOM     48  H30 non d ame     -31.726   8.817  25.642  0.00  0.00     0.072 H 
BRANCH  47  49
ATOM     49  C21 non d ame     -33.282   9.832  24.570  0.00  0.00    -0.038 C 
ATOM     50  H31 non d ame     -34.370   9.805  24.630  0.00  0.00     0.036 H 
ATOM     51  H32 non d ame     -32.757  10.787  24.618  0.00  0.00     0.036 H 
BRANCH  49  52
ATOM     52  C22 non d ame     -32.902   9.192  23.217  0.00  0.00     0.018 C 
ATOM     53  H33 non d ame     -32.976   8.117  23.368  0.00  0.00     0.048 H 
ATOM     54  H34 non d ame     -33.529   9.683  22.472  0.00  0.00     0.048 H 
BRANCH  52  55
ATOM     55  C23 non d ame     -31.434   9.464  22.786  0.00  0.00     0.259 C 
ATOM     56  O7  non d ame     -30.887   8.741  22.017  0.00  0.00    -0.265 OA
BRANCH  55  57
ATOM     57  O8  non d ame     -30.743  10.582  23.332  0.00  0.00    -0.317 OA
BRANCH  57  58
ATOM     58  C29 non d ame     -29.909  11.267  22.393  0.00  0.00     0.052 C 
ATOM     59  H47 non d ame     -28.890  10.962  22.626  0.00  0.00     0.082 H 
ATOM     60  H48 non d ame     -30.332  11.053  21.412  0.00  0.00     0.082 H 
BRANCH  58  61
ATOM     61  C35 non d ame     -30.040  12.791  22.660  0.00  0.00    -0.034 A 
ATOM     62  C30 non d ame     -29.505  13.704  21.756  0.00  0.00    -0.075 A 
ATOM     63  C31 non d ame     -29.621  15.072  21.996  0.00  0.00    -0.082 A 
ATOM     64  H49 non d ame     -28.994  13.348  20.862  0.00  0.00     0.084 H 
ATOM     65  C32 non d ame     -30.274  15.527  23.145  0.00  0.00    -0.083 A 
ATOM     66  H50 non d ame     -29.202  15.786  21.285  0.00  0.00     0.083 H 
ATOM     67  C33 non d ame     -30.803  14.611  24.045  0.00  0.00    -0.082 A 
ATOM     68  H51 non d ame     -30.371  16.595  23.340  0.00  0.00     0.083 H 
ATOM     69  C34 non d ame     -30.690  13.243  23.809  0.00  0.00    -0.075 A 
ATOM     70  H52 non d ame     -31.310  14.969  24.942  0.00  0.00     0.083 H 
ATOM     71  H53 non d ame     -31.110  12.530  24.519  0.00  0.00     0.084 H 
ENDBRANCH  58  61
ENDBRANCH  57  58
ENDBRANCH  55  57
ENDBRANCH  52  55
ENDBRANCH  49  52
ENDBRANCH  47  49
BRANCH  47  72
ATOM     72  C24 non d ame     -33.586   7.738  25.868  0.00  0.00    -0.039 C 
ATOM     73  H35 non d ame     -34.096   7.795  26.830  0.00  0.00     0.036 H 
ATOM     74  H36 non d ame     -34.166   7.674  24.947  0.00  0.00     0.036 H 
BRANCH  72  75
ATOM     75  C25 non d ame     -32.629   6.455  25.915  0.00  0.00    -0.001 C 
ATOM     76  C26 non d ame     -33.275   5.242  25.013  0.00  0.00    -0.035 C 
ATOM     77  C27 non d ame     -33.315   4.113  25.762  0.00  0.00     0.085 C 
ATOM     78  H38 non d ame     -34.325   5.447  24.807  0.00  0.00     0.036 H 
ATOM     79  H39 non d ame     -32.601   4.981  24.197  0.00  0.00     0.036 H 
ATOM     80  N5  non d ame     -33.060   4.525  27.193  0.00  0.00    -0.049 N 
ATOM     81  H40 non d ame     -34.336   3.742  25.675  0.00  0.00     0.075 H 
ATOM     82  H41 non d ame     -32.482   3.504  25.414  0.00  0.00     0.075 H 
ATOM     83  C28 non d ame     -32.478   6.029  27.125  0.00  0.00     0.193 C 
ATOM     84  H42 non d ame     -33.960   4.549  27.648  0.00  0.00     0.280 HD
ATOM     85  H43 non d ame     -32.334   3.914  27.540  0.00  0.00     0.280 HD
ATOM     86  H44 non d ame     -31.413   6.217  27.269  0.00  0.00     0.129 H 
ATOM     87  H37 non d ame     -31.587   6.710  25.728  0.00  0.00     0.046 H 
BRANCH  83  88
ATOM     88  O6  non d ame     -33.145   6.860  28.076  0.00  0.00    -0.369 OA
ATOM     89  H45 non d ame     -32.552   7.558  28.364  0.00  0.00     0.212 HD
ENDBRANCH  83  88
ENDBRANCH  72  75
ENDBRANCH  47  72
ENDBRANCH  45  47
ENDBRANCH   1  43
BRANCH   1  90
ATOM     90  C16 non d ame     -32.491  10.856  29.769  0.00  0.00    -0.035 C 
ATOM     91  H21 non d ame     -32.368   9.842  29.392  0.00  0.00     0.037 H 
ATOM     92  H22 non d ame     -31.878  11.207  30.600  0.00  0.00     0.037 H 
BRANCH  90  93
ATOM     93  C17 non d ame     -33.977  10.977  30.234  0.00  0.00    -0.059 C 
ATOM     94  H23 non d ame     -34.382  11.896  29.810  0.00  0.00     0.038 H 
BRANCH  93  95
ATOM     95  C18 non d ame     -34.853   9.790  29.721  0.00  0.00    -0.073 C 
ATOM     96  H24 non d ame     -35.886  10.122  29.608  0.00  0.00     0.028 H 
ATOM     97  H25 non d ame     -34.475   9.449  28.758  0.00  0.00     0.028 H 
ATOM     98  H26 non d ame     -34.811   8.971  30.439  0.00  0.00     0.028 H 
ENDBRANCH  93  95
BRANCH  93  99
ATOM     99  C19 non d ame     -34.066  11.101  31.758  0.00  0.00    -0.073 C 
ATOM    100  H27 non d ame     -33.913  10.120  32.211  0.00  0.00     0.028 H 
ATOM    101  H28 non d ame     -33.297  11.787  32.113  0.00  0.00     0.028 H 
ATOM    102  H29 non d ame     -35.049  11.481  32.035  0.00  0.00     0.028 H 
ENDBRANCH  93  99
ENDBRANCH  90  93
ENDBRANCH   1  90
TORSDOF 26
ENDMDL
MODEL 16
REMARK VINA RESULT:      -5.9      3.826      8.425
REMARK  26 active torsions:
REMARK  status: ('A' for Active; 'I' for Inactive)
REMARK    1  A    between atoms: C2_2  and  C3_3 
REMARK    2  A    between atoms: C4_6  and  C5_7 
REMARK       I    between atoms: C5_7  and  N2_9 
REMARK    3  A    between atoms: N2_9  and  C6_10 
REMARK    4  A    between atoms: C6_10  and  C7_11 
REMARK    5  A    between atoms: C6_10  and  C8_13 
REMARK       I    between atoms: C7_11  and  N3_14 
REMARK    6  A    between atoms: N3_14  and  C9_15 
REMARK    7  A    between atoms: C9_15  and  C10_16 
REMARK    8  A    between atoms: C9_15  and  C11_18 
REMARK       I    between atoms: C10_16  and  N4_21 
REMARK    9  A    between atoms: C11_18  and  C12_19 
REMARK   10  A    between atoms: C11_18  and  C13_20 
REMARK   11  A    between atoms: N4_21  and  C14_22 
REMARK   12  A    between atoms: C14_22  and  C15_23 
REMARK   13  A    between atoms: C14_22  and  C16_25 
REMARK       I    between atoms: C15_23  and  N6_40 
REMARK   14  A    between atoms: C16_25  and  C17_26 
REMARK   15  A    between atoms: C17_26  and  C18_27 
REMARK   16  A    between atoms: C17_26  and  C19_28 
REMARK   17  A    between atoms: C20_29  and  C21_30 
REMARK   18  A    between atoms: C20_29  and  C24_33 
REMARK   19  A    between atoms: C20_29  and  N6_40 
REMARK   20  A    between atoms: C21_30  and  C22_31 
REMARK   21  A    between atoms: C22_31  and  C23_32 
REMARK   22  A    between atoms: C23_32  and  O8_43 
REMARK   23  A    between atoms: C24_33  and  C25_34 
REMARK   24  A    between atoms: C28_38  and  O6_39 
REMARK   25  A    between atoms: C29_42  and  O8_43 
REMARK   26  A    between atoms: C29_42  and  C35_49 
ROOT
ATOM      1  C14 non d ame     -34.958   8.370  31.178  0.00  0.00     0.089 C 
ATOM      2  H20 non d ame     -34.580   8.425  32.199  0.00  0.00     0.087 H 
ENDROOT
BRANCH   1   3
ATOM      3  N4  non d ame     -34.002   9.054  30.320  0.00  0.00    -0.346 N 
ATOM      4  C10 non d ame     -33.413  10.377  30.738  0.00  0.00     0.241 C 
ATOM      5  O4  non d ame     -33.725  10.874  31.770  0.00  0.00    -0.271 OA
ATOM      6  H19 non d ame     -33.752   8.616  29.445  0.00  0.00     0.163 HD
BRANCH   4   7
ATOM      7  C9  non d ame     -32.422  11.069  29.839  0.00  0.00     0.092 C 
ATOM      8  H11 non d ame     -31.678  10.348  29.503  0.00  0.00     0.088 H 
BRANCH   7   9
ATOM      9  N3  non d ame     -33.110  11.571  28.646  0.00  0.00    -0.346 N 
ATOM     10  C7  non d ame     -33.095  10.800  27.428  0.00  0.00     0.240 C 
ATOM     11  O3  non d ame     -32.533   9.774  27.390  0.00  0.00    -0.271 OA
ATOM     12  H10 non d ame     -33.598  12.456  28.665  0.00  0.00     0.163 HD
BRANCH  10  13
ATOM     13  C6  non d ame     -33.827  11.341  26.161  0.00  0.00     0.086 C 
ATOM     14  H6  non d ame     -34.695  11.952  26.404  0.00  0.00     0.086 H 
BRANCH  13  15
ATOM     15  N2  non d ame     -32.915  12.193  25.416  0.00  0.00    -0.343 N 
ATOM     16  C5  non d ame     -32.803  13.610  25.766  0.00  0.00     0.273 C 
ATOM     17  O2  non d ame     -33.454  14.057  26.645  0.00  0.00    -0.266 OA
ATOM     18  H5  non d ame     -32.364  11.803  24.664  0.00  0.00     0.163 HD
BRANCH  16  19
ATOM     19  C4  non d ame     -31.841  14.522  24.987  0.00  0.00     0.154 A 
ATOM     20  C1  non d ame     -31.064  14.176  23.837  0.00  0.00    -0.017 A 
ATOM     21  C2  non d ame     -30.357  15.355  23.509  0.00  0.00     0.077 A 
ATOM     22  H1  non d ame     -31.019  13.218  23.319  0.00  0.00     0.091 H 
ATOM     23  O1  non d ame     -30.697  16.264  24.374  0.00  0.00    -0.218 OA
ATOM     24  N1  non d ame     -31.563  15.802  25.247  0.00  0.00    -0.123 NA
BRANCH  21  25
ATOM     25  C3  non d ame     -29.379  15.529  22.355  0.00  0.00    -0.029 C 
ATOM     26  H2  non d ame     -29.078  16.574  22.287  0.00  0.00     0.036 H 
ATOM     27  H3  non d ame     -28.499  14.909  22.528  0.00  0.00     0.036 H 
ATOM     28  H4  non d ame     -29.858  15.227  21.423  0.00  0.00     0.036 H 
ENDBRANCH  21  25
ENDBRANCH  16  19
ENDBRANCH  13  15
BRANCH  13  29
ATOM     29  C8  non d ame     -34.271  10.184  25.302  0.00  0.00    -0.049 C 
ATOM     30  H7  non d ame     -34.571  10.553  24.322  0.00  0.00     0.030 H 
ATOM     31  H8  non d ame     -33.449   9.479  25.188  0.00  0.00     0.030 H 
ATOM     32  H9  non d ame     -35.117   9.684  25.776  0.00  0.00     0.030 H 
ENDBRANCH  13  29
ENDBRANCH  10  13
ENDBRANCH   7   9
BRANCH   7  33
ATOM     33  C11 non d ame     -31.776  12.263  30.603  0.00  0.00    -0.033 C 
ATOM     34  H12 non d ame     -32.348  12.416  31.518  0.00  0.00     0.042 H 
BRANCH  33  35
ATOM     35  C12 non d ame     -30.305  11.944  31.016  0.00  0.00    -0.071 C 
ATOM     36  H13 non d ame     -29.819  12.857  31.361  0.00  0.00     0.028 H 
ATOM     37  H14 non d ame     -30.304  11.206  31.817  0.00  0.00     0.028 H 
ATOM     38  H15 non d ame     -29.764  11.549  30.156  0.00  0.00     0.028 H 
ENDBRANCH  33  35
BRANCH  33  39
ATOM     39  C13 non d ame     -31.856  13.575  29.759  0.00  0.00    -0.071 C 
ATOM     40  H16 non d ame     -31.484  13.384  28.753  0.00  0.00     0.028 H 
ATOM     41  H17 non d ame     -32.892  13.912  29.707  0.00  0.00     0.028 H 
ATOM     42  H18 non d ame     -31.248  14.348  30.230  0.00  0.00     0.028 H 
ENDBRANCH  33  39
ENDBRANCH   7  33
ENDBRANCH   4   7
ENDBRANCH   1   3
BRANCH   1  43
ATOM     43  C15 non d ame     -35.104   6.902  30.684  0.00  0.00     0.240 C 
ATOM     44  O5  non d ame     -35.506   6.066  31.427  0.00  0.00    -0.271 OA
ATOM     45  N6  non d ame     -34.753   6.540  29.282  0.00  0.00    -0.355 N 
ATOM     46  H46 non d ame     -34.415   7.243  28.639  0.00  0.00     0.162 HD
BRANCH  45  47
ATOM     47  C20 non d ame     -34.898   5.140  28.828  0.00  0.00     0.013 C 
ATOM     48  H30 non d ame     -35.417   4.587  29.611  0.00  0.00     0.072 H 
BRANCH  47  49
ATOM     49  C21 non d ame     -33.528   4.544  28.595  0.00  0.00    -0.038 C 
ATOM     50  H31 non d ame     -32.835   5.172  29.155  0.00  0.00     0.036 H 
ATOM     51  H32 non d ame     -33.623   3.485  28.838  0.00  0.00     0.036 H 
BRANCH  49  52
ATOM     52  C22 non d ame     -33.087   4.616  27.117  0.00  0.00     0.018 C 
ATOM     53  H33 non d ame     -32.435   3.758  26.962  0.00  0.00     0.048 H 
ATOM     54  H34 non d ame     -34.007   4.714  26.539  0.00  0.00     0.048 H 
BRANCH  52  55
ATOM     55  C23 non d ame     -32.234   5.870  26.778  0.00  0.00     0.259 C 
ATOM     56  O7  non d ame     -31.858   6.594  27.642  0.00  0.00    -0.265 OA
BRANCH  55  57
ATOM     57  O8  non d ame     -31.917   6.151  25.420  0.00  0.00    -0.317 OA
BRANCH  57  58
ATOM     58  C29 non d ame     -32.565   5.290  24.480  0.00  0.00     0.052 C 
ATOM     59  H47 non d ame     -31.937   4.402  24.411  0.00  0.00     0.082 H 
ATOM     60  H48 non d ame     -33.596   5.204  24.820  0.00  0.00     0.082 H 
BRANCH  58  61
ATOM     61  C35 non d ame     -32.564   6.001  23.100  0.00  0.00    -0.034 A 
ATOM     62  C30 non d ame     -32.488   7.390  23.033  0.00  0.00    -0.075 A 
ATOM     63  C31 non d ame     -32.487   8.029  21.793  0.00  0.00    -0.082 A 
ATOM     64  H49 non d ame     -32.430   7.976  23.949  0.00  0.00     0.084 H 
ATOM     65  C32 non d ame     -32.564   7.275  20.619  0.00  0.00    -0.083 A 
ATOM     66  H50 non d ame     -32.426   9.117  21.744  0.00  0.00     0.083 H 
ATOM     67  C33 non d ame     -32.643   5.891  20.692  0.00  0.00    -0.082 A 
ATOM     68  H51 non d ame     -32.563   7.767  19.646  0.00  0.00     0.083 H 
ATOM     69  C34 non d ame     -32.643   5.248  21.928  0.00  0.00    -0.075 A 
ATOM     70  H52 non d ame     -32.706   5.306  19.774  0.00  0.00     0.083 H 
ATOM     71  H53 non d ame     -32.703   4.161  21.977  0.00  0.00     0.084 H 
ENDBRANCH  58  61
ENDBRANCH  57  58
ENDBRANCH  55  57
ENDBRANCH  52  55
ENDBRANCH  49  52
ENDBRANCH  47  49
BRANCH  47  72
ATOM     72  C24 non d ame     -35.701   5.099  27.529  0.00  0.00    -0.039 C 
ATOM     73  H35 non d ame     -35.201   5.799  26.858  0.00  0.00     0.036 H 
ATOM     74  H36 non d ame     -35.769   4.044  27.263  0.00  0.00     0.036 H 
BRANCH  72  75
ATOM     75  C25 non d ame     -37.197   5.631  27.739  0.00  0.00    -0.001 C 
ATOM     76  C26 non d ame     -37.838   4.974  29.103  0.00  0.00    -0.035 C 
ATOM     77  C27 non d ame     -39.041   4.428  28.802  0.00  0.00     0.085 C 
ATOM     78  H38 non d ame     -37.243   4.119  29.422  0.00  0.00     0.036 H 
ATOM     79  H39 non d ame     -38.087   5.760  29.816  0.00  0.00     0.036 H 
ATOM     80  N5  non d ame     -39.130   4.363  27.295  0.00  0.00    -0.049 N 
ATOM     81  H40 non d ame     -39.008   3.414  29.200  0.00  0.00     0.075 H 
ATOM     82  H41 non d ame     -39.782   5.135  29.171  0.00  0.00     0.075 H 
ATOM     83  C28 non d ame     -37.950   5.314  26.739  0.00  0.00     0.193 C 
ATOM     84  H42 non d ame     -38.923   3.410  27.038  0.00  0.00     0.280 HD
ATOM     85  H43 non d ame     -40.019   4.773  27.045  0.00  0.00     0.280 HD
ATOM     86  H44 non d ame     -38.178   6.304  26.342  0.00  0.00     0.129 H 
ATOM     87  H37 non d ame     -37.270   6.712  27.628  0.00  0.00     0.046 H 
BRANCH  83  88
ATOM     88  O6  non d ame     -37.223   4.645  25.707  0.00  0.00    -0.369 OA
ATOM     89  H45 non d ame     -36.280   4.743  25.864  0.00  0.00     0.212 HD
ENDBRANCH  83  88
ENDBRANCH  72  75
ENDBRANCH  47  72
ENDBRANCH  45  47
ENDBRANCH   1  43
BRANCH   1  90
ATOM     90  C16 non d ame     -36.301   9.076  31.088  0.00  0.00    -0.035 C 
ATOM     91  H21 non d ame     -36.930   8.595  31.835  0.00  0.00     0.037 H 
ATOM     92  H22 non d ame     -36.074  10.139  31.167  0.00  0.00     0.037 H 
BRANCH  90  93
ATOM     93  C17 non d ame     -37.020   8.879  29.715  0.00  0.00    -0.059 C 
ATOM     94  H23 non d ame     -36.570   8.015  29.227  0.00  0.00     0.038 H 
BRANCH  93  95
ATOM     95  C18 non d ame     -38.545   8.588  29.884  0.00  0.00    -0.073 C 
ATOM     96  H24 non d ame     -39.081   9.527  30.028  0.00  0.00     0.028 H 
ATOM     97  H25 non d ame     -38.922   8.090  28.991  0.00  0.00     0.028 H 
ATOM     98  H26 non d ame     -38.699   7.946  30.751  0.00  0.00     0.028 H 
ENDBRANCH  93  95
BRANCH  93  99
ATOM     99  C19 non d ame     -36.794  10.087  28.801  0.00  0.00    -0.073 C 
ATOM    100  H27 non d ame     -37.291   9.917  27.845  0.00  0.00     0.028 H 
ATOM    101  H28 non d ame     -37.207  10.980  29.270  0.00  0.00     0.028 H 
ATOM    102  H29 non d ame     -35.726  10.223  28.637  0.00  0.00     0.028 H 
ENDBRANCH  93  99
ENDBRANCH  90  93
ENDBRANCH   1  90
TORSDOF 26
ENDMDL
MODEL 17
REMARK VINA RESULT:      -5.9      2.818      9.601
REMARK  26 active torsions:
REMARK  status: ('A' for Active; 'I' for Inactive)
REMARK    1  A    between atoms: C2_2  and  C3_3 
REMARK    2  A    between atoms: C4_6  and  C5_7 
REMARK       I    between atoms: C5_7  and  N2_9 
REMARK    3  A    between atoms: N2_9  and  C6_10 
REMARK    4  A    between atoms: C6_10  and  C7_11 
REMARK    5  A    between atoms: C6_10  and  C8_13 
REMARK       I    between atoms: C7_11  and  N3_14 
REMARK    6  A    between atoms: N3_14  and  C9_15 
REMARK    7  A    between atoms: C9_15  and  C10_16 
REMARK    8  A    between atoms: C9_15  and  C11_18 
REMARK       I    between atoms: C10_16  and  N4_21 
REMARK    9  A    between atoms: C11_18  and  C12_19 
REMARK   10  A    between atoms: C11_18  and  C13_20 
REMARK   11  A    between atoms: N4_21  and  C14_22 
REMARK   12  A    between atoms: C14_22  and  C15_23 
REMARK   13  A    between atoms: C14_22  and  C16_25 
REMARK       I    between atoms: C15_23  and  N6_40 
REMARK   14  A    between atoms: C16_25  and  C17_26 
REMARK   15  A    between atoms: C17_26  and  C18_27 
REMARK   16  A    between atoms: C17_26  and  C19_28 
REMARK   17  A    between atoms: C20_29  and  C21_30 
REMARK   18  A    between atoms: C20_29  and  C24_33 
REMARK   19  A    between atoms: C20_29  and  N6_40 
REMARK   20  A    between atoms: C21_30  and  C22_31 
REMARK   21  A    between atoms: C22_31  and  C23_32 
REMARK   22  A    between atoms: C23_32  and  O8_43 
REMARK   23  A    between atoms: C24_33  and  C25_34 
REMARK   24  A    between atoms: C28_38  and  O6_39 
REMARK   25  A    between atoms: C29_42  and  O8_43 
REMARK   26  A    between atoms: C29_42  and  C35_49 
ROOT
ATOM      1  C14 non d ame     -32.431   8.275  25.895  0.00  0.00     0.089 C 
ATOM      2  H20 non d ame     -31.502   8.183  26.460  0.00  0.00     0.087 H 
ENDROOT
BRANCH   1   3
ATOM      3  N4  non d ame     -33.430   7.450  26.558  0.00  0.00    -0.346 N 
ATOM      4  C10 non d ame     -33.007   6.321  27.463  0.00  0.00     0.241 C 
ATOM      5  O4  non d ame     -31.856   6.094  27.643  0.00  0.00    -0.271 OA
ATOM      6  H19 non d ame     -34.404   7.657  26.389  0.00  0.00     0.163 HD
BRANCH   4   7
ATOM      7  C9  non d ame     -34.055   5.480  28.144  0.00  0.00     0.092 C 
ATOM      8  H11 non d ame     -33.604   4.963  28.991  0.00  0.00     0.088 H 
BRANCH   7   9
ATOM      9  N3  non d ame     -35.109   6.348  28.678  0.00  0.00    -0.346 N 
ATOM     10  C7  non d ame     -35.404   6.339  30.089  0.00  0.00     0.240 C 
ATOM     11  O3  non d ame     -34.804   5.639  30.810  0.00  0.00    -0.271 OA
ATOM     12  H10 non d ame     -35.636   6.956  28.067  0.00  0.00     0.163 HD
BRANCH  10  13
ATOM     13  C6  non d ame     -36.529   7.263  30.650  0.00  0.00     0.086 C 
ATOM     14  H6  non d ame     -36.215   7.823  31.531  0.00  0.00     0.086 H 
BRANCH  13  15
ATOM     15  N2  non d ame     -36.883   8.244  29.638  0.00  0.00    -0.343 N 
ATOM     16  C5  non d ame     -36.530   9.650  29.842  0.00  0.00     0.273 C 
ATOM     17  O2  non d ame     -35.965   9.984  30.825  0.00  0.00    -0.266 OA
ATOM     18  H5  non d ame     -37.369   7.951  28.803  0.00  0.00     0.163 HD
BRANCH  16  19
ATOM     19  C4  non d ame     -36.898  10.698  28.779  0.00  0.00     0.154 A 
ATOM     20  C1  non d ame     -36.064  11.192  27.727  0.00  0.00    -0.017 A 
ATOM     21  C2  non d ame     -36.866  12.128  27.037  0.00  0.00     0.077 A 
ATOM     22  H1  non d ame     -35.035  10.915  27.500  0.00  0.00     0.091 H 
ATOM     23  O1  non d ame     -38.023  12.159  27.629  0.00  0.00    -0.218 OA
ATOM     24  N1  non d ame     -38.066  11.332  28.649  0.00  0.00    -0.123 NA
BRANCH  21  25
ATOM     25  C3  non d ame     -36.452  12.948  25.822  0.00  0.00    -0.029 C 
ATOM     26  H2  non d ame     -36.977  12.581  24.941  0.00  0.00     0.036 H 
ATOM     27  H3  non d ame     -36.708  13.995  25.986  0.00  0.00     0.036 H 
ATOM     28  H4  non d ame     -35.377  12.856  25.670  0.00  0.00     0.036 H 
ENDBRANCH  21  25
ENDBRANCH  16  19
ENDBRANCH  13  15
BRANCH  13  29
ATOM     29  C8  non d ame     -37.734   6.431  31.008  0.00  0.00    -0.049 C 
ATOM     30  H7  non d ame     -37.510   5.822  31.882  0.00  0.00     0.030 H 
ATOM     31  H8  non d ame     -38.576   7.087  31.230  0.00  0.00     0.030 H 
ATOM     32  H9  non d ame     -37.990   5.782  30.169  0.00  0.00     0.030 H 
ENDBRANCH  13  29
ENDBRANCH  10  13
ENDBRANCH   7   9
BRANCH   7  33
ATOM     33  C11 non d ame     -34.674   4.490  27.114  0.00  0.00    -0.033 C 
ATOM     34  H12 non d ame     -34.494   4.896  26.119  0.00  0.00     0.042 H 
BRANCH  33  35
ATOM     35  C12 non d ame     -33.982   3.093  27.183  0.00  0.00    -0.071 C 
ATOM     36  H13 non d ame     -34.018   2.621  26.201  0.00  0.00     0.028 H 
ATOM     37  H14 non d ame     -32.944   3.216  27.489  0.00  0.00     0.028 H 
ATOM     38  H15 non d ame     -34.503   2.464  27.906  0.00  0.00     0.028 H 
ENDBRANCH  33  35
BRANCH  33  39
ATOM     39  C13 non d ame     -36.218   4.368  27.315  0.00  0.00    -0.071 C 
ATOM     40  H16 non d ame     -36.650   5.363  27.428  0.00  0.00     0.028 H 
ATOM     41  H17 non d ame     -36.661   3.876  26.448  0.00  0.00     0.028 H 
ATOM     42  H18 non d ame     -36.424   3.779  28.208  0.00  0.00     0.028 H 
ENDBRANCH  33  39
ENDBRANCH   7  33
ENDBRANCH   4   7
ENDBRANCH   1   3
BRANCH   1  43
ATOM     43  C15 non d ame     -32.949   9.742  25.854  0.00  0.00     0.240 C 
ATOM     44  O5  non d ame     -34.038   9.972  25.437  0.00  0.00    -0.271 OA
ATOM     45  N6  non d ame     -32.091  10.858  26.342  0.00  0.00    -0.355 N 
ATOM     46  H46 non d ame     -31.165  10.674  26.703  0.00  0.00     0.162 HD
BRANCH  45  47
ATOM     47  C20 non d ame     -32.599  12.247  26.296  0.00  0.00     0.013 C 
ATOM     48  H30 non d ame     -33.634  12.213  25.956  0.00  0.00     0.072 H 
BRANCH  47  49
ATOM     49  C21 non d ame     -31.762  13.054  25.330  0.00  0.00    -0.038 C 
ATOM     50  H31 non d ame     -30.806  12.533  25.262  0.00  0.00     0.036 H 
ATOM     51  H32 non d ame     -32.379  13.179  24.440  0.00  0.00     0.036 H 
BRANCH  49  52
ATOM     52  C22 non d ame     -31.450  14.475  25.848  0.00  0.00     0.018 C 
ATOM     53  H33 non d ame     -32.261  14.724  26.531  0.00  0.00     0.048 H 
ATOM     54  H34 non d ame     -30.423  14.437  26.212  0.00  0.00     0.048 H 
BRANCH  52  55
ATOM     55  C23 non d ame     -31.473  15.564  24.740  0.00  0.00     0.259 C 
ATOM     56  O7  non d ame     -30.466  15.899  24.204  0.00  0.00    -0.265 OA
BRANCH  55  57
ATOM     57  O8  non d ame     -32.709  16.169  24.383  0.00  0.00    -0.317 OA
BRANCH  57  58
ATOM     58  C29 non d ame     -33.619  16.327  25.476  0.00  0.00     0.052 C 
ATOM     59  H47 non d ame     -34.604  16.441  25.025  0.00  0.00     0.082 H 
ATOM     60  H48 non d ame     -33.419  15.494  26.149  0.00  0.00     0.082 H 
BRANCH  58  61
ATOM     61  C35 non d ame     -33.258  17.647  26.210  0.00  0.00    -0.034 A 
ATOM     62  C30 non d ame     -32.894  17.619  27.553  0.00  0.00    -0.075 A 
ATOM     63  C31 non d ame     -32.571  18.804  28.212  0.00  0.00    -0.082 A 
ATOM     64  H49 non d ame     -32.862  16.671  28.088  0.00  0.00     0.084 H 
ATOM     65  C32 non d ame     -32.615  20.020  27.525  0.00  0.00    -0.083 A 
ATOM     66  H50 non d ame     -32.284  18.779  29.265  0.00  0.00     0.083 H 
ATOM     67  C33 non d ame     -32.983  20.043  26.187  0.00  0.00    -0.082 A 
ATOM     68  H51 non d ame     -32.363  20.952  28.033  0.00  0.00     0.083 H 
ATOM     69  C34 non d ame     -33.305  18.861  25.523  0.00  0.00    -0.075 A 
ATOM     70  H52 non d ame     -33.018  20.994  25.653  0.00  0.00     0.083 H 
ATOM     71  H53 non d ame     -33.591  18.886  24.471  0.00  0.00     0.084 H 
ENDBRANCH  58  61
ENDBRANCH  57  58
ENDBRANCH  55  57
ENDBRANCH  52  55
ENDBRANCH  49  52
ENDBRANCH  47  49
BRANCH  47  72
ATOM     72  C24 non d ame     -32.518  12.872  27.688  0.00  0.00    -0.039 C 
ATOM     73  H35 non d ame     -31.867  13.741  27.577  0.00  0.00     0.036 H 
ATOM     74  H36 non d ame     -33.551  13.003  28.008  0.00  0.00     0.036 H 
BRANCH  72  75
ATOM     75  C25 non d ame     -31.817  11.888  28.740  0.00  0.00    -0.001 C 
ATOM     76  C26 non d ame     -32.951  11.236  29.736  0.00  0.00    -0.035 C 
ATOM     77  C27 non d ame     -32.561  11.418  31.021  0.00  0.00     0.085 C 
ATOM     78  H38 non d ame     -33.879  11.803  29.669  0.00  0.00     0.036 H 
ATOM     79  H39 non d ame     -32.966  10.151  29.626  0.00  0.00     0.036 H 
ATOM     80  N5  non d ame     -31.432  12.420  31.000  0.00  0.00    -0.049 N 
ATOM     81  H40 non d ame     -33.420  11.860  31.526  0.00  0.00     0.075 H 
ATOM     82  H41 non d ame     -32.174  10.454  31.347  0.00  0.00     0.075 H 
ATOM     83  C28 non d ame     -30.951  12.517  29.462  0.00  0.00     0.193 C 
ATOM     84  H42 non d ame     -31.832  13.307  31.268  0.00  0.00     0.280 HD
ATOM     85  H43 non d ame     -30.684  12.018  31.547  0.00  0.00     0.280 HD
ATOM     86  H44 non d ame     -30.032  12.028  29.138  0.00  0.00     0.129 H 
ATOM     87  H37 non d ame     -31.122  11.199  28.261  0.00  0.00     0.046 H 
BRANCH  83  88
ATOM     88  O6  non d ame     -30.815  13.885  29.073  0.00  0.00    -0.369 OA
ATOM     89  H45 non d ame     -30.952  13.963  28.125  0.00  0.00     0.212 HD
ENDBRANCH  83  88
ENDBRANCH  72  75
ENDBRANCH  47  72
ENDBRANCH  45  47
ENDBRANCH   1  43
BRANCH   1  90
ATOM     90  C16 non d ame     -32.225   7.765  24.478  0.00  0.00    -0.035 C 
ATOM     91  H21 non d ame     -31.246   7.288  24.483  0.00  0.00     0.037 H 
ATOM     92  H22 non d ame     -33.116   7.181  24.249  0.00  0.00     0.037 H 
BRANCH  90  93
ATOM     93  C17 non d ame     -32.154   8.902  23.409  0.00  0.00    -0.059 C 
ATOM     94  H23 non d ame     -32.608   9.793  23.843  0.00  0.00     0.038 H 
BRANCH  93  95
ATOM     95  C18 non d ame     -30.684   9.257  23.021  0.00  0.00    -0.073 C 
ATOM     96  H24 non d ame     -30.194   8.377  22.604  0.00  0.00     0.028 H 
ATOM     97  H25 non d ame     -30.686  10.055  22.279  0.00  0.00     0.028 H 
ATOM     98  H26 non d ame     -30.143   9.587  23.909  0.00  0.00     0.028 H 
ENDBRANCH  93  95
BRANCH  93  99
ATOM     99  C19 non d ame     -32.971   8.535  22.166  0.00  0.00    -0.073 C 
ATOM    100  H27 non d ame     -33.855   7.971  22.466  0.00  0.00     0.028 H 
ATOM    101  H28 non d ame     -33.280   9.445  21.652  0.00  0.00     0.028 H 
ATOM    102  H29 non d ame     -32.362   7.928  21.497  0.00  0.00     0.028 H 
ENDBRANCH  93  99
ENDBRANCH  90  93
ENDBRANCH   1  90
TORSDOF 26
ENDMDL
MODEL 18
REMARK VINA RESULT:      -5.9      2.684      4.612
REMARK  26 active torsions:
REMARK  status: ('A' for Active; 'I' for Inactive)
REMARK    1  A    between atoms: C2_2  and  C3_3 
REMARK    2  A    between atoms: C4_6  and  C5_7 
REMARK       I    between atoms: C5_7  and  N2_9 
REMARK    3  A    between atoms: N2_9  and  C6_10 
REMARK    4  A    between atoms: C6_10  and  C7_11 
REMARK    5  A    between atoms: C6_10  and  C8_13 
REMARK       I    between atoms: C7_11  and  N3_14 
REMARK    6  A    between atoms: N3_14  and  C9_15 
REMARK    7  A    between atoms: C9_15  and  C10_16 
REMARK    8  A    between atoms: C9_15  and  C11_18 
REMARK       I    between atoms: C10_16  and  N4_21 
REMARK    9  A    between atoms: C11_18  and  C12_19 
REMARK   10  A    between atoms: C11_18  and  C13_20 
REMARK   11  A    between atoms: N4_21  and  C14_22 
REMARK   12  A    between atoms: C14_22  and  C15_23 
REMARK   13  A    between atoms: C14_22  and  C16_25 
REMARK       I    between atoms: C15_23  and  N6_40 
REMARK   14  A    between atoms: C16_25  and  C17_26 
REMARK   15  A    between atoms: C17_26  and  C18_27 
REMARK   16  A    between atoms: C17_26  and  C19_28 
REMARK   17  A    between atoms: C20_29  and  C21_30 
REMARK   18  A    between atoms: C20_29  and  C24_33 
REMARK   19  A    between atoms: C20_29  and  N6_40 
REMARK   20  A    between atoms: C21_30  and  C22_31 
REMARK   21  A    between atoms: C22_31  and  C23_32 
REMARK   22  A    between atoms: C23_32  and  O8_43 
REMARK   23  A    between atoms: C24_33  and  C25_34 
REMARK   24  A    between atoms: C28_38  and  O6_39 
REMARK   25  A    between atoms: C29_42  and  O8_43 
REMARK   26  A    between atoms: C29_42  and  C35_49 
ROOT
ATOM      1  C14 non d ame     -35.722  14.892  26.318  0.00  0.00     0.089 C 
ATOM      2  H20 non d ame     -36.237  15.523  27.044  0.00  0.00     0.087 H 
ENDROOT
BRANCH   1   3
ATOM      3  N4  non d ame     -34.475  15.555  25.968  0.00  0.00    -0.346 N 
ATOM      4  C10 non d ame     -33.852  16.552  26.911  0.00  0.00     0.241 C 
ATOM      5  O4  non d ame     -34.373  16.808  27.946  0.00  0.00    -0.271 OA
ATOM      6  H19 non d ame     -34.048  15.325  25.082  0.00  0.00     0.163 HD
BRANCH   4   7
ATOM      7  C9  non d ame     -32.557  17.225  26.535  0.00  0.00     0.092 C 
ATOM      8  H11 non d ame     -31.812  17.024  27.304  0.00  0.00     0.088 H 
BRANCH   7   9
ATOM      9  N3  non d ame     -32.054  16.653  25.282  0.00  0.00    -0.346 N 
ATOM     10  C7  non d ame     -31.437  15.350  25.283  0.00  0.00     0.240 C 
ATOM     11  O3  non d ame     -31.336  14.748  26.282  0.00  0.00    -0.271 OA
ATOM     12  H10 non d ame     -32.133  17.161  24.413  0.00  0.00     0.163 HD
BRANCH  10  13
ATOM     13  C6  non d ame     -30.900  14.747  23.948  0.00  0.00     0.086 C 
ATOM     14  H6  non d ame     -29.830  14.905  23.813  0.00  0.00     0.086 H 
BRANCH  13  15
ATOM     15  N2  non d ame     -31.108  13.308  23.963  0.00  0.00    -0.343 N 
ATOM     16  C5  non d ame     -30.315  12.455  23.075  0.00  0.00     0.273 C 
ATOM     17  O2  non d ame     -29.515  12.936  22.350  0.00  0.00    -0.266 OA
ATOM     18  H5  non d ame     -31.796  12.906  24.583  0.00  0.00     0.163 HD
BRANCH  16  19
ATOM     19  C4  non d ame     -30.524  10.933  23.081  0.00  0.00     0.154 A 
ATOM     20  C1  non d ame     -29.657   9.939  22.527  0.00  0.00    -0.017 A 
ATOM     21  C2  non d ame     -30.298   8.709  22.794  0.00  0.00     0.077 A 
ATOM     22  H1  non d ame     -28.709  10.087  22.011  0.00  0.00     0.091 H 
ATOM     23  O1  non d ame     -31.401   8.975  23.428  0.00  0.00    -0.218 OA
ATOM     24  N1  non d ame     -31.555  10.267  23.608  0.00  0.00    -0.123 NA
BRANCH  21  25
ATOM     25  C3  non d ame     -29.789   7.325  22.411  0.00  0.00    -0.029 C 
ATOM     26  H2  non d ame     -30.602   6.748  21.971  0.00  0.00     0.036 H 
ATOM     27  H3  non d ame     -28.981   7.423  21.686  0.00  0.00     0.036 H 
ATOM     28  H4  non d ame     -29.420   6.814  23.300  0.00  0.00     0.036 H 
ENDBRANCH  21  25
ENDBRANCH  16  19
ENDBRANCH  13  15
BRANCH  13  29
ATOM     29  C8  non d ame     -31.634  15.363  22.784  0.00  0.00    -0.049 C 
ATOM     30  H7  non d ame     -31.908  16.389  23.029  0.00  0.00     0.030 H 
ATOM     31  H8  non d ame     -30.990  15.359  21.905  0.00  0.00     0.030 H 
ATOM     32  H9  non d ame     -32.536  14.786  22.577  0.00  0.00     0.030 H 
ENDBRANCH  13  29
ENDBRANCH  10  13
ENDBRANCH   7   9
BRANCH   7  33
ATOM     33  C11 non d ame     -32.804  18.751  26.342  0.00  0.00    -0.033 C 
ATOM     34  H12 non d ame     -32.081  19.111  25.610  0.00  0.00     0.042 H 
BRANCH  33  35
ATOM     35  C12 non d ame     -34.229  19.027  25.769  0.00  0.00    -0.071 C 
ATOM     36  H13 non d ame     -34.241  18.805  24.702  0.00  0.00     0.028 H 
ATOM     37  H14 non d ame     -34.955  18.396  26.280  0.00  0.00     0.028 H 
ATOM     38  H15 non d ame     -34.485  20.076  25.923  0.00  0.00     0.028 H 
ENDBRANCH  33  35
BRANCH  33  39
ATOM     39  C13 non d ame     -32.569  19.528  27.676  0.00  0.00    -0.071 C 
ATOM     40  H16 non d ame     -31.528  19.849  27.732  0.00  0.00     0.028 H 
ATOM     41  H17 non d ame     -33.221  20.401  27.709  0.00  0.00     0.028 H 
ATOM     42  H18 non d ame     -32.793  18.877  28.521  0.00  0.00     0.028 H 
ENDBRANCH  33  39
ENDBRANCH   7  33
ENDBRANCH   4   7
ENDBRANCH   1   3
BRANCH   1  43
ATOM     43  C15 non d ame     -35.391  13.485  26.894  0.00  0.00     0.240 C 
ATOM     44  O5  non d ame     -36.210  12.625  26.859  0.00  0.00    -0.271 OA
ATOM     45  N6  non d ame     -34.050  13.208  27.481  0.00  0.00    -0.355 N 
ATOM     46  H46 non d ame     -33.344  13.930  27.512  0.00  0.00     0.162 HD
BRANCH  45  47
ATOM     47  C20 non d ame     -33.751  11.865  28.024  0.00  0.00     0.013 C 
ATOM     48  H30 non d ame     -34.685  11.435  28.386  0.00  0.00     0.072 H 
BRANCH  47  49
ATOM     49  C21 non d ame     -32.764  11.993  29.162  0.00  0.00    -0.038 C 
ATOM     50  H31 non d ame     -31.805  12.222  28.696  0.00  0.00     0.036 H 
ATOM     51  H32 non d ame     -33.213  12.699  29.861  0.00  0.00     0.036 H 
BRANCH  49  52
ATOM     52  C22 non d ame     -32.570  10.673  29.939  0.00  0.00     0.018 C 
ATOM     53  H33 non d ame     -32.773   9.877  29.223  0.00  0.00     0.048 H 
ATOM     54  H34 non d ame     -31.589  10.748  30.408  0.00  0.00     0.048 H 
BRANCH  52  55
ATOM     55  C23 non d ame     -33.585  10.474  31.099  0.00  0.00     0.259 C 
ATOM     56  O7  non d ame     -33.950  11.402  31.745  0.00  0.00    -0.265 OA
BRANCH  55  57
ATOM     57  O8  non d ame     -34.063   9.166  31.391  0.00  0.00    -0.317 OA
BRANCH  57  58
ATOM     58  C29 non d ame     -35.426   8.947  31.016  0.00  0.00     0.052 C 
ATOM     59  H47 non d ame     -35.953   8.717  31.942  0.00  0.00     0.082 H 
ATOM     60  H48 non d ame     -35.713   9.816  30.426  0.00  0.00     0.082 H 
BRANCH  58  61
ATOM     61  C35 non d ame     -35.474   7.695  30.099  0.00  0.00    -0.034 A 
ATOM     62  C30 non d ame     -36.175   7.740  28.897  0.00  0.00    -0.075 A 
ATOM     63  C31 non d ame     -36.219   6.615  28.074  0.00  0.00    -0.082 A 
ATOM     64  H49 non d ame     -36.689   8.654  28.601  0.00  0.00     0.084 H 
ATOM     65  C32 non d ame     -35.561   5.443  28.456  0.00  0.00    -0.083 A 
ATOM     66  H50 non d ame     -36.767   6.654  27.131  0.00  0.00     0.083 H 
ATOM     67  C33 non d ame     -34.867   5.403  29.658  0.00  0.00    -0.082 A 
ATOM     68  H51 non d ame     -35.590   4.560  27.818  0.00  0.00     0.083 H 
ATOM     69  C34 non d ame     -34.819   6.525  30.483  0.00  0.00    -0.075 A 
ATOM     70  H52 non d ame     -34.356   4.486  29.955  0.00  0.00     0.083 H 
ATOM     71  H53 non d ame     -34.270   6.486  31.425  0.00  0.00     0.084 H 
ENDBRANCH  58  61
ENDBRANCH  57  58
ENDBRANCH  55  57
ENDBRANCH  52  55
ENDBRANCH  49  52
ENDBRANCH  47  49
BRANCH  47  72
ATOM     72  C24 non d ame     -33.153  10.986  26.926  0.00  0.00    -0.039 C 
ATOM     73  H35 non d ame     -33.276  11.553  26.003  0.00  0.00     0.036 H 
ATOM     74  H36 non d ame     -32.154  10.725  27.276  0.00  0.00     0.036 H 
BRANCH  72  75
ATOM     75  C25 non d ame     -33.967   9.617  26.754  0.00  0.00    -0.001 C 
ATOM     76  C26 non d ame     -32.977   8.338  27.045  0.00  0.00    -0.035 C 
ATOM     77  C27 non d ame     -33.071   7.468  26.011  0.00  0.00     0.085 C 
ATOM     78  H38 non d ame     -31.935   8.656  27.017  0.00  0.00     0.036 H 
ATOM     79  H39 non d ame     -33.348   7.763  27.895  0.00  0.00     0.036 H 
ATOM     80  N5  non d ame     -33.781   8.190  24.891  0.00  0.00    -0.049 N 
ATOM     81  H40 non d ame     -32.044   7.264  25.708  0.00  0.00     0.075 H 
ATOM     82  H41 non d ame     -33.704   6.657  26.369  0.00  0.00     0.075 H 
ATOM     83  C28 non d ame     -34.441   9.504  25.558  0.00  0.00     0.193 C 
ATOM     84  H42 non d ame     -33.066   8.484  24.241  0.00  0.00     0.280 HD
ATOM     85  H43 non d ame     -34.523   7.578  24.583  0.00  0.00     0.280 HD
ATOM     86  H44 non d ame     -35.511   9.541  25.765  0.00  0.00     0.129 H 
ATOM     87  H37 non d ame     -34.921   9.636  27.278  0.00  0.00     0.046 H 
BRANCH  83  88
ATOM     88  O6  non d ame     -34.166  10.654  24.757  0.00  0.00    -0.369 OA
ATOM     89  H45 non d ame     -34.075  10.391  23.838  0.00  0.00     0.212 HD
ENDBRANCH  83  88
ENDBRANCH  72  75
ENDBRANCH  47  72
ENDBRANCH  45  47
ENDBRANCH   1  43
BRANCH   1  90
ATOM     90  C16 non d ame     -36.575  14.745  25.068  0.00  0.00    -0.035 C 
ATOM     91  H21 non d ame     -35.980  15.171  24.262  0.00  0.00     0.037 H 
ATOM     92  H22 non d ame     -36.863  13.694  25.038  0.00  0.00     0.037 H 
BRANCH  90  93
ATOM     93  C17 non d ame     -37.903  15.566  25.117  0.00  0.00    -0.059 C 
ATOM     94  H23 non d ame     -38.358  15.516  24.127  0.00  0.00     0.038 H 
BRANCH  93  95
ATOM     95  C18 non d ame     -38.925  14.974  26.140  0.00  0.00    -0.073 C 
ATOM     96  H24 non d ame     -39.007  13.897  25.991  0.00  0.00     0.028 H 
ATOM     97  H25 non d ame     -38.580  15.174  27.154  0.00  0.00     0.028 H 
ATOM     98  H26 non d ame     -39.900  15.437  25.989  0.00  0.00     0.028 H 
ENDBRANCH  93  95
BRANCH  93  99
ATOM     99  C19 non d ame     -37.625  17.041  25.417  0.00  0.00    -0.073 C 
ATOM    100  H27 non d ame     -38.217  17.666  24.747  0.00  0.00     0.028 H 
ATOM    101  H28 non d ame     -37.895  17.260  26.450  0.00  0.00     0.028 H 
ATOM    102  H29 non d ame     -36.565  17.248  25.266  0.00  0.00     0.028 H 
ENDBRANCH  93  99
ENDBRANCH  90  93
ENDBRANCH   1  90
TORSDOF 26
ENDMDL
MODEL 19
REMARK VINA RESULT:      -5.9      3.503      9.562
REMARK  26 active torsions:
REMARK  status: ('A' for Active; 'I' for Inactive)
REMARK    1  A    between atoms: C2_2  and  C3_3 
REMARK    2  A    between atoms: C4_6  and  C5_7 
REMARK       I    between atoms: C5_7  and  N2_9 
REMARK    3  A    between atoms: N2_9  and  C6_10 
REMARK    4  A    between atoms: C6_10  and  C7_11 
REMARK    5  A    between atoms: C6_10  and  C8_13 
REMARK       I    between atoms: C7_11  and  N3_14 
REMARK    6  A    between atoms: N3_14  and  C9_15 
REMARK    7  A    between atoms: C9_15  and  C10_16 
REMARK    8  A    between atoms: C9_15  and  C11_18 
REMARK       I    between atoms: C10_16  and  N4_21 
REMARK    9  A    between atoms: C11_18  and  C12_19 
REMARK   10  A    between atoms: C11_18  and  C13_20 
REMARK   11  A    between atoms: N4_21  and  C14_22 
REMARK   12  A    between atoms: C14_22  and  C15_23 
REMARK   13  A    between atoms: C14_22  and  C16_25 
REMARK       I    between atoms: C15_23  and  N6_40 
REMARK   14  A    between atoms: C16_25  and  C17_26 
REMARK   15  A    between atoms: C17_26  and  C18_27 
REMARK   16  A    between atoms: C17_26  and  C19_28 
REMARK   17  A    between atoms: C20_29  and  C21_30 
REMARK   18  A    between atoms: C20_29  and  C24_33 
REMARK   19  A    between atoms: C20_29  and  N6_40 
REMARK   20  A    between atoms: C21_30  and  C22_31 
REMARK   21  A    between atoms: C22_31  and  C23_32 
REMARK   22  A    between atoms: C23_32  and  O8_43 
REMARK   23  A    between atoms: C24_33  and  C25_34 
REMARK   24  A    between atoms: C28_38  and  O6_39 
REMARK   25  A    between atoms: C29_42  and  O8_43 
REMARK   26  A    between atoms: C29_42  and  C35_49 
ROOT
ATOM      1  C14 non d ame     -34.244  10.495  29.223  0.00  0.00     0.089 C 
ATOM      2  H20 non d ame     -35.310  10.687  29.096  0.00  0.00     0.087 H 
ENDROOT
BRANCH   1   3
ATOM      3  N4  non d ame     -33.934   9.257  28.523  0.00  0.00    -0.346 N 
ATOM      4  C10 non d ame     -35.043   8.357  28.040  0.00  0.00     0.241 C 
ATOM      5  O4  non d ame     -36.178   8.648  28.229  0.00  0.00    -0.271 OA
ATOM      6  H19 non d ame     -32.962   9.026  28.375  0.00  0.00     0.163 HD
BRANCH   4   7
ATOM      7  C9  non d ame     -34.705   7.082  27.313  0.00  0.00     0.092 C 
ATOM      8  H11 non d ame     -35.543   6.391  27.393  0.00  0.00     0.088 H 
BRANCH   7   9
ATOM      9  N3  non d ame     -34.514   7.368  25.888  0.00  0.00    -0.346 N 
ATOM     10  C7  non d ame     -35.310   6.680  24.902  0.00  0.00     0.240 C 
ATOM     11  O3  non d ame     -36.108   5.892  25.237  0.00  0.00    -0.271 OA
ATOM     12  H10 non d ame     -33.828   8.044  25.583  0.00  0.00     0.163 HD
BRANCH  10  13
ATOM     13  C6  non d ame     -35.100   6.986  23.386  0.00  0.00     0.086 C 
ATOM     14  H6  non d ame     -35.621   7.886  23.062  0.00  0.00     0.086 H 
BRANCH  13  15
ATOM     15  N2  non d ame     -33.685   7.213  23.142  0.00  0.00    -0.343 N 
ATOM     16  C5  non d ame     -33.157   8.578  23.180  0.00  0.00     0.273 C 
ATOM     17  O2  non d ame     -33.878   9.487  23.405  0.00  0.00    -0.266 OA
ATOM     18  H5  non d ame     -33.077   6.431  22.948  0.00  0.00     0.163 HD
BRANCH  16  19
ATOM     19  C4  non d ame     -31.663   8.833  22.925  0.00  0.00     0.154 A 
ATOM     20  C1  non d ame     -30.628   7.853  22.798  0.00  0.00    -0.017 A 
ATOM     21  C2  non d ame     -29.449   8.598  22.573  0.00  0.00     0.077 A 
ATOM     22  H1  non d ame     -30.719   6.769  22.860  0.00  0.00     0.091 H 
ATOM     23  O1  non d ame     -29.779   9.855  22.570  0.00  0.00    -0.218 OA
ATOM     24  N1  non d ame     -31.066  10.018  22.774  0.00  0.00    -0.123 NA
BRANCH  21  25
ATOM     25  C3  non d ame     -28.050   8.031  22.369  0.00  0.00    -0.029 C 
ATOM     26  H2  non d ame     -27.787   7.398  23.215  0.00  0.00     0.036 H 
ATOM     27  H3  non d ame     -28.028   7.439  21.453  0.00  0.00     0.036 H 
ATOM     28  H4  non d ame     -27.334   8.848  22.290  0.00  0.00     0.036 H 
ENDBRANCH  21  25
ENDBRANCH  16  19
ENDBRANCH  13  15
BRANCH  13  29
ATOM     29  C8  non d ame     -35.585   5.820  22.564  0.00  0.00    -0.049 C 
ATOM     30  H7  non d ame     -34.839   5.026  22.581  0.00  0.00     0.030 H 
ATOM     31  H8  non d ame     -36.521   5.446  22.979  0.00  0.00     0.030 H 
ATOM     32  H9  non d ame     -35.748   6.144  21.535  0.00  0.00     0.030 H 
ENDBRANCH  13  29
ENDBRANCH  10  13
ENDBRANCH   7   9
BRANCH   7  33
ATOM     33  C11 non d ame     -33.392   6.484  27.899  0.00  0.00    -0.033 C 
ATOM     34  H12 non d ame     -33.119   7.081  28.769  0.00  0.00     0.042 H 
BRANCH  33  35
ATOM     35  C12 non d ame     -33.605   5.016  28.385  0.00  0.00    -0.071 C 
ATOM     36  H13 non d ame     -32.724   4.422  28.142  0.00  0.00     0.028 H 
ATOM     37  H14 non d ame     -33.763   5.009  29.463  0.00  0.00     0.028 H 
ATOM     38  H15 non d ame     -34.476   4.591  27.887  0.00  0.00     0.028 H 
ENDBRANCH  33  35
BRANCH  33  39
ATOM     39  C13 non d ame     -32.225   6.575  26.865  0.00  0.00    -0.071 C 
ATOM     40  H16 non d ame     -31.473   5.821  27.097  0.00  0.00     0.028 H 
ATOM     41  H17 non d ame     -32.615   6.404  25.861  0.00  0.00     0.028 H 
ATOM     42  H18 non d ame     -31.773   7.566  26.913  0.00  0.00     0.028 H 
ENDBRANCH  33  39
ENDBRANCH   7  33
ENDBRANCH   4   7
ENDBRANCH   1   3
BRANCH   1  43
ATOM     43  C15 non d ame     -33.368  11.634  28.626  0.00  0.00     0.240 C 
ATOM     44  O5  non d ame     -32.195  11.480  28.514  0.00  0.00    -0.271 OA
ATOM     45  N6  non d ame     -33.993  12.913  28.185  0.00  0.00    -0.355 N 
ATOM     46  H46 non d ame     -34.990  13.053  28.270  0.00  0.00     0.162 HD
BRANCH  45  47
ATOM     47  C20 non d ame     -33.146  13.985  27.619  0.00  0.00     0.013 C 
ATOM     48  H30 non d ame     -32.163  13.915  28.083  0.00  0.00     0.072 H 
BRANCH  47  49
ATOM     49  C21 non d ame     -33.769  15.329  27.925  0.00  0.00    -0.038 C 
ATOM     50  H31 non d ame     -34.447  15.535  27.096  0.00  0.00     0.036 H 
ATOM     51  H32 non d ame     -34.158  15.248  28.941  0.00  0.00     0.036 H 
BRANCH  49  52
ATOM     52  C22 non d ame     -32.737  16.478  27.943  0.00  0.00     0.018 C 
ATOM     53  H33 non d ame     -32.910  17.015  28.875  0.00  0.00     0.048 H 
ATOM     54  H34 non d ame     -31.771  16.009  27.755  0.00  0.00     0.048 H 
BRANCH  52  55
ATOM     55  C23 non d ame     -32.938  17.517  26.806  0.00  0.00     0.259 C 
ATOM     56  O7  non d ame     -32.072  18.283  26.530  0.00  0.00    -0.265 OA
BRANCH  55  57
ATOM     57  O8  non d ame     -34.175  17.553  26.105  0.00  0.00    -0.317 OA
BRANCH  57  58
ATOM     58  C29 non d ame     -34.635  18.873  25.803  0.00  0.00     0.052 C 
ATOM     59  H47 non d ame     -33.778  19.527  25.958  0.00  0.00     0.082 H 
ATOM     60  H48 non d ame     -35.100  18.807  24.820  0.00  0.00     0.082 H 
BRANCH  58  61
ATOM     61  C35 non d ame     -35.731  19.246  26.838  0.00  0.00    -0.034 A 
ATOM     62  C30 non d ame     -35.368  19.676  28.111  0.00  0.00    -0.075 A 
ATOM     63  C31 non d ame     -36.352  20.011  29.041  0.00  0.00    -0.082 A 
ATOM     64  H49 non d ame     -34.315  19.750  28.380  0.00  0.00     0.084 H 
ATOM     65  C32 non d ame     -37.702  19.913  28.695  0.00  0.00    -0.083 A 
ATOM     66  H50 non d ame     -36.064  20.349  30.037  0.00  0.00     0.083 H 
ATOM     67  C33 non d ame     -38.058  19.479  27.425  0.00  0.00    -0.082 A 
ATOM     68  H51 non d ame     -38.477  20.173  29.416  0.00  0.00     0.083 H 
ATOM     69  C34 non d ame     -37.079  19.146  26.492  0.00  0.00    -0.075 A 
ATOM     70  H52 non d ame     -39.113  19.401  27.158  0.00  0.00     0.083 H 
ATOM     71  H53 non d ame     -37.367  18.808  25.496  0.00  0.00     0.084 H 
ENDBRANCH  58  61
ENDBRANCH  57  58
ENDBRANCH  55  57
ENDBRANCH  52  55
ENDBRANCH  49  52
ENDBRANCH  47  49
BRANCH  47  72
ATOM     72  C24 non d ame     -33.032  13.809  26.106  0.00  0.00    -0.039 C 
ATOM     73  H35 non d ame     -33.564  12.883  25.882  0.00  0.00     0.036 H 
ATOM     74  H36 non d ame     -33.374  14.751  25.677  0.00  0.00     0.036 H 
BRANCH  72  75
ATOM     75  C25 non d ame     -31.512  13.604  25.646  0.00  0.00    -0.001 C 
ATOM     76  C26 non d ame     -31.064  14.821  24.637  0.00  0.00    -0.035 C 
ATOM     77  C27 non d ame     -30.524  14.284  23.516  0.00  0.00     0.085 C 
ATOM     78  H38 non d ame     -31.945  15.347  24.269  0.00  0.00     0.036 H 
ATOM     79  H39 non d ame     -30.237  15.384  25.072  0.00  0.00     0.036 H 
ATOM     80  N5  non d ame     -30.863  12.812  23.526  0.00  0.00    -0.049 N 
ATOM     81  H40 non d ame     -31.043  14.763  22.685  0.00  0.00     0.075 H 
ATOM     82  H41 non d ame     -29.447  14.402  23.626  0.00  0.00     0.075 H 
ATOM     83  C28 non d ame     -31.359  12.481  25.026  0.00  0.00     0.193 C 
ATOM     84  H42 non d ame     -31.642  12.694  22.896  0.00  0.00     0.280 HD
ATOM     85  H43 non d ame     -29.997  12.320  23.357  0.00  0.00     0.280 HD
ATOM     86  H44 non d ame     -30.703  11.958  25.723  0.00  0.00     0.129 H 
ATOM     87  H37 non d ame     -30.852  13.387  26.486  0.00  0.00     0.046 H 
BRANCH  83  88
ATOM     88  O6  non d ame     -32.565  11.717  24.989  0.00  0.00    -0.369 OA
ATOM     89  H45 non d ame     -32.621  11.168  25.775  0.00  0.00     0.212 HD
ENDBRANCH  83  88
ENDBRANCH  72  75
ENDBRANCH  47  72
ENDBRANCH  45  47
ENDBRANCH   1  43
BRANCH   1  90
ATOM     90  C16 non d ame     -33.924  10.324  30.699  0.00  0.00    -0.035 C 
ATOM     91  H21 non d ame     -33.206   9.507  30.746  0.00  0.00     0.037 H 
ATOM     92  H22 non d ame     -33.644  11.318  31.050  0.00  0.00     0.037 H 
BRANCH  90  93
ATOM     93  C17 non d ame     -35.151   9.882  31.559  0.00  0.00    -0.059 C 
ATOM     94  H23 non d ame     -36.053  10.146  31.007  0.00  0.00     0.038 H 
BRANCH  93  95
ATOM     95  C18 non d ame     -35.176   8.339  31.800  0.00  0.00    -0.073 C 
ATOM     96  H24 non d ame     -35.478   7.831  30.884  0.00  0.00     0.028 H 
ATOM     97  H25 non d ame     -34.181   8.000  32.090  0.00  0.00     0.028 H 
ATOM     98  H26 non d ame     -35.884   8.106  32.595  0.00  0.00     0.028 H 
ENDBRANCH  93  95
BRANCH  93  99
ATOM     99  C19 non d ame     -35.191  10.641  32.888  0.00  0.00    -0.073 C 
ATOM    100  H27 non d ame     -35.376   9.939  33.702  0.00  0.00     0.028 H 
ATOM    101  H28 non d ame     -34.236  11.141  33.050  0.00  0.00     0.028 H 
ATOM    102  H29 non d ame     -35.989  11.383  32.858  0.00  0.00     0.028 H 
ENDBRANCH  93  99
ENDBRANCH  90  93
ENDBRANCH   1  90
TORSDOF 26
ENDMDL
MODEL 20
REMARK VINA RESULT:      -5.9      3.271      9.519
REMARK  26 active torsions:
REMARK  status: ('A' for Active; 'I' for Inactive)
REMARK    1  A    between atoms: C2_2  and  C3_3 
REMARK    2  A    between atoms: C4_6  and  C5_7 
REMARK       I    between atoms: C5_7  and  N2_9 
REMARK    3  A    between atoms: N2_9  and  C6_10 
REMARK    4  A    between atoms: C6_10  and  C7_11 
REMARK    5  A    between atoms: C6_10  and  C8_13 
REMARK       I    between atoms: C7_11  and  N3_14 
REMARK    6  A    between atoms: N3_14  and  C9_15 
REMARK    7  A    between atoms: C9_15  and  C10_16 
REMARK    8  A    between atoms: C9_15  and  C11_18 
REMARK       I    between atoms: C10_16  and  N4_21 
REMARK    9  A    between atoms: C11_18  and  C12_19 
REMARK   10  A    between atoms: C11_18  and  C13_20 
REMARK   11  A    between atoms: N4_21  and  C14_22 
REMARK   12  A    between atoms: C14_22  and  C15_23 
REMARK   13  A    between atoms: C14_22  and  C16_25 
REMARK       I    between atoms: C15_23  and  N6_40 
REMARK   14  A    between atoms: C16_25  and  C17_26 
REMARK   15  A    between atoms: C17_26  and  C18_27 
REMARK   16  A    between atoms: C17_26  and  C19_28 
REMARK   17  A    between atoms: C20_29  and  C21_30 
REMARK   18  A    between atoms: C20_29  and  C24_33 
REMARK   19  A    between atoms: C20_29  and  N6_40 
REMARK   20  A    between atoms: C21_30  and  C22_31 
REMARK   21  A    between atoms: C22_31  and  C23_32 
REMARK   22  A    between atoms: C23_32  and  O8_43 
REMARK   23  A    between atoms: C24_33  and  C25_34 
REMARK   24  A    between atoms: C28_38  and  O6_39 
REMARK   25  A    between atoms: C29_42  and  O8_43 
REMARK   26  A    between atoms: C29_42  and  C35_49 
ROOT
ATOM      1  C14 non d ame     -33.012   8.438  25.455  0.00  0.00     0.089 C 
ATOM      2  H20 non d ame     -31.969   8.452  25.771  0.00  0.00     0.087 H 
ENDROOT
BRANCH   1   3
ATOM      3  N4  non d ame     -33.717   7.496  26.311  0.00  0.00    -0.346 N 
ATOM      4  C10 non d ame     -32.949   6.525  27.170  0.00  0.00     0.241 C 
ATOM      5  O4  non d ame     -31.762   6.518  27.155  0.00  0.00    -0.271 OA
ATOM      6  H19 non d ame     -34.727   7.516  26.307  0.00  0.00     0.163 HD
BRANCH   4   7
ATOM      7  C9  non d ame     -33.695   5.560  28.054  0.00  0.00     0.092 C 
ATOM      8  H11 non d ame     -33.039   5.231  28.859  0.00  0.00     0.088 H 
BRANCH   7   9
ATOM      9  N3  non d ame     -34.833   6.245  28.675  0.00  0.00    -0.346 N 
ATOM     10  C7  non d ame     -35.118   6.045  30.074  0.00  0.00     0.240 C 
ATOM     11  O3  non d ame     -34.442   5.337  30.716  0.00  0.00    -0.271 OA
ATOM     12  H10 non d ame     -35.426   6.857  28.133  0.00  0.00     0.163 HD
BRANCH  10  13
ATOM     13  C6  non d ame     -36.332   6.774  30.728  0.00  0.00     0.086 C 
ATOM     14  H6  non d ame     -36.069   7.284  31.655  0.00  0.00     0.086 H 
BRANCH  13  15
ATOM     15  N2  non d ame     -36.818   7.795  29.815  0.00  0.00    -0.343 N 
ATOM     16  C5  non d ame     -36.988   9.168  30.293  0.00  0.00     0.273 C 
ATOM     17  O2  non d ame     -36.736   9.442  31.415  0.00  0.00    -0.266 OA
ATOM     18  H5  non d ame     -37.034   7.552  28.859  0.00  0.00     0.163 HD
BRANCH  16  19
ATOM     19  C4  non d ame     -37.500  10.258  29.338  0.00  0.00     0.154 A 
ATOM     20  C1  non d ame     -36.917  10.663  28.096  0.00  0.00    -0.017 A 
ATOM     21  C2  non d ame     -37.762  11.687  27.615  0.00  0.00     0.077 A 
ATOM     22  H1  non d ame     -36.019  10.272  27.617  0.00  0.00     0.091 H 
ATOM     23  O1  non d ame     -38.716  11.845  28.485  0.00  0.00    -0.218 OA
ATOM     24  N1  non d ame     -38.584  11.021  29.500  0.00  0.00    -0.123 NA
BRANCH  21  25
ATOM     25  C3  non d ame     -37.589  12.463  26.316  0.00  0.00    -0.029 C 
ATOM     26  H2  non d ame     -36.603  12.927  26.299  0.00  0.00     0.036 H 
ATOM     27  H3  non d ame     -37.683  11.782  25.470  0.00  0.00     0.036 H 
ATOM     28  H4  non d ame     -38.355  13.235  26.248  0.00  0.00     0.036 H 
ENDBRANCH  21  25
ENDBRANCH  16  19
ENDBRANCH  13  15
BRANCH  13  29
ATOM     29  C8  non d ame     -37.425   5.776  31.016  0.00  0.00    -0.049 C 
ATOM     30  H7  non d ame     -37.676   5.238  30.103  0.00  0.00     0.030 H 
ATOM     31  H8  non d ame     -37.082   5.069  31.772  0.00  0.00     0.030 H 
ATOM     32  H9  non d ame     -38.308   6.300  31.383  0.00  0.00     0.030 H 
ENDBRANCH  13  29
ENDBRANCH  10  13
ENDBRANCH   7   9
BRANCH   7  33
ATOM     33  C11 non d ame     -34.215   4.368  27.197  0.00  0.00    -0.033 C 
ATOM     34  H12 non d ame     -34.155   3.470  27.811  0.00  0.00     0.042 H 
BRANCH  33  35
ATOM     35  C12 non d ame     -35.711   4.566  26.799  0.00  0.00    -0.071 C 
ATOM     36  H13 non d ame     -36.337   4.481  27.687  0.00  0.00     0.028 H 
ATOM     37  H14 non d ame     -35.842   5.552  26.355  0.00  0.00     0.028 H 
ATOM     38  H15 non d ame     -35.999   3.801  26.078  0.00  0.00     0.028 H 
ENDBRANCH  33  35
BRANCH  33  39
ATOM     39  C13 non d ame     -33.317   4.152  25.937  0.00  0.00    -0.071 C 
ATOM     40  H16 non d ame     -32.741   5.057  25.742  0.00  0.00     0.028 H 
ATOM     41  H17 non d ame     -32.637   3.318  26.113  0.00  0.00     0.028 H 
ATOM     42  H18 non d ame     -33.947   3.930  25.075  0.00  0.00     0.028 H 
ENDBRANCH  33  39
ENDBRANCH   7  33
ENDBRANCH   4   7
ENDBRANCH   1   3
BRANCH   1  43
ATOM     43  C15 non d ame     -33.686   9.834  25.594  0.00  0.00     0.240 C 
ATOM     44  O5  non d ame     -34.671  10.079  24.975  0.00  0.00    -0.271 OA
ATOM     45  N6  non d ame     -33.109  10.862  26.506  0.00  0.00    -0.355 N 
ATOM     46  H46 non d ame     -32.275  10.663  27.041  0.00  0.00     0.162 HD
BRANCH  45  47
ATOM     47  C20 non d ame     -33.762  12.183  26.628  0.00  0.00     0.013 C 
ATOM     48  H30 non d ame     -34.760  12.104  26.196  0.00  0.00     0.072 H 
BRANCH  47  49
ATOM     49  C21 non d ame     -32.952  13.213  25.874  0.00  0.00    -0.038 C 
ATOM     50  H31 non d ame     -31.935  13.126  26.258  0.00  0.00     0.036 H 
ATOM     51  H32 non d ame     -33.153  13.030  24.818  0.00  0.00     0.036 H 
BRANCH  49  52
ATOM     52  C22 non d ame     -33.407  14.661  26.161  0.00  0.00     0.018 C 
ATOM     53  H33 non d ame     -33.744  15.059  25.205  0.00  0.00     0.048 H 
ATOM     54  H34 non d ame     -34.100  14.591  26.999  0.00  0.00     0.048 H 
BRANCH  52  55
ATOM     55  C23 non d ame     -32.258  15.596  26.632  0.00  0.00     0.259 C 
ATOM     56  O7  non d ame     -32.192  15.943  27.767  0.00  0.00    -0.265 OA
BRANCH  55  57
ATOM     57  O8  non d ame     -31.293  16.044  25.689  0.00  0.00    -0.317 OA
BRANCH  57  58
ATOM     58  C29 non d ame     -31.850  16.461  24.439  0.00  0.00     0.052 C 
ATOM     59  H47 non d ame     -32.876  16.095  24.436  0.00  0.00     0.082 H 
ATOM     60  H48 non d ame     -31.651  17.530  24.368  0.00  0.00     0.082 H 
BRANCH  58  61
ATOM     61  C35 non d ame     -31.070  15.743  23.304  0.00  0.00    -0.034 A 
ATOM     62  C30 non d ame     -31.067  16.273  22.018  0.00  0.00    -0.075 A 
ATOM     63  C31 non d ame     -30.367  15.628  20.999  0.00  0.00    -0.082 A 
ATOM     64  H49 non d ame     -31.613  17.193  21.807  0.00  0.00     0.084 H 
ATOM     65  C32 non d ame     -29.670  14.448  21.270  0.00  0.00    -0.083 A 
ATOM     66  H50 non d ame     -30.364  16.047  19.992  0.00  0.00     0.083 H 
ATOM     67  C33 non d ame     -29.680  13.921  22.554  0.00  0.00    -0.082 A 
ATOM     68  H51 non d ame     -29.119  13.937  20.479  0.00  0.00     0.083 H 
ATOM     69  C34 non d ame     -30.376  14.563  23.576  0.00  0.00    -0.075 A 
ATOM     70  H52 non d ame     -29.136  12.997  22.762  0.00  0.00     0.083 H 
ATOM     71  H53 non d ame     -30.377  14.143  24.582  0.00  0.00     0.084 H 
ENDBRANCH  58  61
ENDBRANCH  57  58
ENDBRANCH  55  57
ENDBRANCH  52  55
ENDBRANCH  49  52
ENDBRANCH  47  49
BRANCH  47  72
ATOM     72  C24 non d ame     -33.852  12.581  28.100  0.00  0.00    -0.039 C 
ATOM     73  H35 non d ame     -33.555  13.630  28.134  0.00  0.00     0.036 H 
ATOM     74  H36 non d ame     -34.852  12.287  28.419  0.00  0.00     0.036 H 
BRANCH  72  75
ATOM     75  C25 non d ame     -32.809  11.764  28.999  0.00  0.00    -0.001 C 
ATOM     76  C26 non d ame     -33.548  10.455  29.664  0.00  0.00    -0.035 C 
ATOM     77  C27 non d ame     -33.315  10.453  30.999  0.00  0.00     0.085 C 
ATOM     78  H38 non d ame     -34.630  10.561  29.595  0.00  0.00     0.036 H 
ATOM     79  H39 non d ame     -33.067   9.539  29.321  0.00  0.00     0.036 H 
ATOM     80  N5  non d ame     -32.763  11.813  31.352  0.00  0.00    -0.049 N 
ATOM     81  H40 non d ame     -34.294  10.334  31.465  0.00  0.00     0.075 H 
ATOM     82  H41 non d ame     -32.541   9.703  31.158  0.00  0.00     0.075 H 
ATOM     83  C28 non d ame     -32.340  12.498  29.953  0.00  0.00     0.193 C 
ATOM     84  H42 non d ame     -33.529  12.338  31.749  0.00  0.00     0.280 HD
ATOM     85  H43 non d ame     -31.928  11.649  31.896  0.00  0.00     0.280 HD
ATOM     86  H44 non d ame     -31.291  12.556  29.661  0.00  0.00     0.129 H 
ATOM     87  H37 non d ame     -31.865  11.592  28.483  0.00  0.00     0.046 H 
BRANCH  83  88
ATOM     88  O6  non d ame     -32.829  13.839  29.892  0.00  0.00    -0.369 OA
ATOM     89  H45 non d ame     -33.290  13.974  29.061  0.00  0.00     0.212 HD
ENDBRANCH  83  88
ENDBRANCH  72  75
ENDBRANCH  47  72
ENDBRANCH  45  47
ENDBRANCH   1  43
BRANCH   1  90
ATOM     90  C16 non d ame     -33.106   7.967  24.013  0.00  0.00    -0.035 C 
ATOM     91  H21 non d ame     -33.628   7.012  24.055  0.00  0.00     0.037 H 
ATOM     92  H22 non d ame     -33.541   8.803  23.464  0.00  0.00     0.037 H 
BRANCH  90  93
ATOM     93  C17 non d ame     -31.718   7.681  23.356  0.00  0.00    -0.059 C 
ATOM     94  H23 non d ame     -30.951   8.084  24.017  0.00  0.00     0.038 H 
BRANCH  93  95
ATOM     95  C18 non d ame     -31.448   6.151  23.190  0.00  0.00    -0.073 C 
ATOM     96  H24 non d ame     -31.039   5.751  24.117  0.00  0.00     0.028 H 
ATOM     97  H25 non d ame     -32.383   5.641  22.957  0.00  0.00     0.028 H 
ATOM     98  H26 non d ame     -30.736   5.994  22.380  0.00  0.00     0.028 H 
ENDBRANCH  93  95
BRANCH  93  99
ATOM     99  C19 non d ame     -31.589   8.405  22.013  0.00  0.00    -0.073 C 
ATOM    100  H27 non d ame     -32.547   8.855  21.749  0.00  0.00     0.028 H 
ATOM    101  H28 non d ame     -30.832   9.185  22.091  0.00  0.00     0.028 H 
ATOM    102  H29 non d ame     -31.298   7.692  21.242  0.00  0.00     0.028 H 
ENDBRANCH  93  99
ENDBRANCH  90  93
ENDBRANCH   1  90
TORSDOF 26
ENDMDL
