MODEL 1
REMARK VINA RESULT:      -7.0      0.000      0.000
REMARK  26 active torsions:
REMARK  status: ('A' for Active; 'I' for Inactive)
REMARK    1  A    between atoms: C2_2  and  C3_3 
REMARK    2  A    between atoms: C4_6  and  C5_7 
REMARK       I    between atoms: C5_7  and  N2_9 
REMARK    3  A    between atoms: N2_9  and  C6_10 
REMARK    4  A    between atoms: C6_10  and  C7_11 
REMARK    5  A    between atoms: C6_10  and  C8_13 
REMARK       I    between atoms: C7_11  and  N3_14 
REMARK    6  A    between atoms: N3_14  and  C9_15 
REMARK    7  A    between atoms: C9_15  and  C10_16 
REMARK    8  A    between atoms: C9_15  and  C11_18 
REMARK       I    between atoms: C10_16  and  N4_21 
REMARK    9  A    between atoms: C11_18  and  C12_19 
REMARK   10  A    between atoms: C11_18  and  C13_20 
REMARK   11  A    between atoms: N4_21  and  C14_22 
REMARK   12  A    between atoms: C14_22  and  C15_23 
REMARK   13  A    between atoms: C14_22  and  C16_25 
REMARK       I    between atoms: C15_23  and  N6_40 
REMARK   14  A    between atoms: C16_25  and  C17_26 
REMARK   15  A    between atoms: C17_26  and  C18_27 
REMARK   16  A    between atoms: C17_26  and  C19_28 
REMARK   17  A    between atoms: C20_29  and  C21_30 
REMARK   18  A    between atoms: C20_29  and  C24_33 
REMARK   19  A    between atoms: C20_29  and  N6_40 
REMARK   20  A    between atoms: C21_30  and  C22_31 
REMARK   21  A    between atoms: C22_31  and  C23_32 
REMARK   22  A    between atoms: C23_32  and  O8_43 
REMARK   23  A    between atoms: C24_33  and  C25_34 
REMARK   24  A    between atoms: C28_38  and  O6_39 
REMARK   25  A    between atoms: C29_42  and  O8_43 
REMARK   26  A    between atoms: C29_42  and  C35_49 
ROOT
ATOM      1  C14 non d ame     -30.963  14.021  24.655  0.00  0.00     0.089 C 
ATOM      2  H20 non d ame     -29.983  13.876  25.110  0.00  0.00     0.087 H 
ENDROOT
BRANCH   1   3
ATOM      3  N4  non d ame     -31.423  12.723  24.182  0.00  0.00    -0.346 N 
ATOM      4  C10 non d ame     -31.309  11.507  25.064  0.00  0.00     0.241 C 
ATOM      5  O4  non d ame     -30.843  11.594  26.152  0.00  0.00    -0.271 OA
ATOM      6  H19 non d ame     -31.813  12.669  23.252  0.00  0.00     0.163 HD
BRANCH   4   7
ATOM      7  C9  non d ame     -31.794  10.172  24.559  0.00  0.00     0.092 C 
ATOM      8  H11 non d ame     -31.366   9.380  25.172  0.00  0.00     0.088 H 
BRANCH   7   9
ATOM      9  N3  non d ame     -33.251  10.094  24.704  0.00  0.00    -0.346 N 
ATOM     10  C7  non d ame     -33.826   9.490  25.880  0.00  0.00     0.240 C 
ATOM     11  O3  non d ame     -33.132   9.061  26.719  0.00  0.00    -0.271 OA
ATOM     12  H10 non d ame     -33.862  10.459  23.987  0.00  0.00     0.163 HD
BRANCH  10  13
ATOM     13  C6  non d ame     -35.377   9.407  26.027  0.00  0.00     0.086 C 
ATOM     14  H6  non d ame     -35.762  10.061  26.809  0.00  0.00     0.086 H 
BRANCH  13  15
ATOM     15  N2  non d ame     -35.993   9.839  24.784  0.00  0.00    -0.343 N 
ATOM     16  C5  non d ame     -36.772  11.078  24.757  0.00  0.00     0.273 C 
ATOM     17  O2  non d ame     -36.900  11.720  25.741  0.00  0.00    -0.266 OA
ATOM     18  H5  non d ame     -35.881   9.283  23.948  0.00  0.00     0.163 HD
BRANCH  16  19
ATOM     19  C4  non d ame     -37.428  11.547  23.448  0.00  0.00     0.154 A 
ATOM     20  C1  non d ame     -37.953  12.847  23.161  0.00  0.00    -0.017 A 
ATOM     21  C2  non d ame     -38.438  12.758  21.838  0.00  0.00     0.077 A 
ATOM     22  H1  non d ame     -37.978  13.720  23.814  0.00  0.00     0.091 H 
ATOM     23  O1  non d ame     -38.211  11.547  21.421  0.00  0.00    -0.218 OA
ATOM     24  N1  non d ame     -37.623  10.821  22.344  0.00  0.00    -0.123 NA
BRANCH  21  25
ATOM     25  C3  non d ame     -39.101  13.876  21.044  0.00  0.00    -0.029 C 
ATOM     26  H2  non d ame     -38.710  14.838  21.373  0.00  0.00     0.036 H 
ATOM     27  H3  non d ame     -38.889  13.744  19.983  0.00  0.00     0.036 H 
ATOM     28  H4  non d ame     -40.179  13.847  21.205  0.00  0.00     0.036 H 
ENDBRANCH  21  25
ENDBRANCH  16  19
ENDBRANCH  13  15
BRANCH  13  29
ATOM     29  C8  non d ame     -35.780   7.988  26.338  0.00  0.00    -0.049 C 
ATOM     30  H7  non d ame     -36.861   7.890  26.254  0.00  0.00     0.030 H 
ATOM     31  H8  non d ame     -35.299   7.310  25.632  0.00  0.00     0.030 H 
ATOM     32  H9  non d ame     -35.470   7.736  27.353  0.00  0.00     0.030 H 
ENDBRANCH  13  29
ENDBRANCH  10  13
ENDBRANCH   7   9
BRANCH   7  33
ATOM     33  C11 non d ame     -31.416  10.019  23.056  0.00  0.00    -0.033 C 
ATOM     34  H12 non d ame     -31.697  10.943  22.550  0.00  0.00     0.042 H 
BRANCH  33  35
ATOM     35  C12 non d ame     -29.877   9.834  22.874  0.00  0.00    -0.071 C 
ATOM     36  H13 non d ame     -29.550   8.951  23.423  0.00  0.00     0.028 H 
ATOM     37  H14 non d ame     -29.649   9.709  21.816  0.00  0.00     0.028 H 
ATOM     38  H15 non d ame     -29.358  10.712  23.257  0.00  0.00     0.028 H 
ENDBRANCH  33  35
BRANCH  33  39
ATOM     39  C13 non d ame     -32.210   8.847  22.397  0.00  0.00    -0.071 C 
ATOM     40  H16 non d ame     -32.343   9.050  21.334  0.00  0.00     0.028 H 
ATOM     41  H17 non d ame     -31.656   7.916  22.523  0.00  0.00     0.028 H 
ATOM     42  H18 non d ame     -33.186   8.755  22.874  0.00  0.00     0.028 H 
ENDBRANCH  33  39
ENDBRANCH   7  33
ENDBRANCH   4   7
ENDBRANCH   1   3
BRANCH   1  43
ATOM     43  C15 non d ame     -32.005  14.574  25.671  0.00  0.00     0.240 C 
ATOM     44  O5  non d ame     -33.027  15.035  25.277  0.00  0.00    -0.271 OA
ATOM     45  N6  non d ame     -31.732  14.520  27.135  0.00  0.00    -0.355 N 
ATOM     46  H46 non d ame     -30.869  14.126  27.482  0.00  0.00     0.162 HD
BRANCH  45  47
ATOM     47  C20 non d ame     -32.733  15.049  28.087  0.00  0.00     0.013 C 
ATOM     48  H30 non d ame     -33.720  14.914  27.644  0.00  0.00     0.072 H 
BRANCH  47  49
ATOM     49  C21 non d ame     -32.469  16.519  28.324  0.00  0.00    -0.038 C 
ATOM     50  H31 non d ame     -32.470  16.647  29.407  0.00  0.00     0.036 H 
ATOM     51  H32 non d ame     -31.574  16.754  27.748  0.00  0.00     0.036 H 
BRANCH  49  52
ATOM     52  C22 non d ame     -33.592  17.425  27.776  0.00  0.00     0.018 C 
ATOM     53  H33 non d ame     -34.343  16.750  27.368  0.00  0.00     0.048 H 
ATOM     54  H34 non d ame     -33.850  18.101  28.591  0.00  0.00     0.048 H 
BRANCH  52  55
ATOM     55  C23 non d ame     -33.145  18.331  26.595  0.00  0.00     0.259 C 
ATOM     56  O7  non d ame     -32.005  18.651  26.478  0.00  0.00    -0.265 OA
BRANCH  55  57
ATOM     57  O8  non d ame     -34.115  18.788  25.660  0.00  0.00    -0.317 OA
BRANCH  57  58
ATOM     58  C29 non d ame     -35.342  18.054  25.689  0.00  0.00     0.052 C 
ATOM     59  H47 non d ame     -35.478  17.667  24.679  0.00  0.00     0.082 H 
ATOM     60  H48 non d ame     -35.256  17.367  26.530  0.00  0.00     0.082 H 
BRANCH  58  61
ATOM     61  C35 non d ame     -36.491  19.055  25.990  0.00  0.00    -0.034 A 
ATOM     62  C30 non d ame     -37.813  18.688  25.756  0.00  0.00    -0.075 A 
ATOM     63  C31 non d ame     -38.844  19.586  26.026  0.00  0.00    -0.082 A 
ATOM     64  H49 non d ame     -38.041  17.698  25.361  0.00  0.00     0.084 H 
ATOM     65  C32 non d ame     -38.550  20.856  26.531  0.00  0.00    -0.083 A 
ATOM     66  H50 non d ame     -39.880  19.295  25.844  0.00  0.00     0.083 H 
ATOM     67  C33 non d ame     -37.229  21.218  26.758  0.00  0.00    -0.082 A 
ATOM     68  H51 non d ame     -39.351  21.564  26.745  0.00  0.00     0.083 H 
ATOM     69  C34 non d ame     -36.195  20.323  26.492  0.00  0.00    -0.075 A 
ATOM     70  H52 non d ame     -37.002  22.211  27.150  0.00  0.00     0.083 H 
ATOM     71  H53 non d ame     -35.161  20.614  26.675  0.00  0.00     0.084 H 
ENDBRANCH  58  61
ENDBRANCH  57  58
ENDBRANCH  55  57
ENDBRANCH  52  55
ENDBRANCH  49  52
ENDBRANCH  47  49
BRANCH  47  72
ATOM     72  C24 non d ame     -32.637  14.293  29.410  0.00  0.00    -0.039 C 
ATOM     73  H35 non d ame     -31.993  14.902  30.046  0.00  0.00     0.036 H 
ATOM     74  H36 non d ame     -33.667  14.096  29.707  0.00  0.00     0.036 H 
BRANCH  72  75
ATOM     75  C25 non d ame     -31.917  12.873  29.231  0.00  0.00    -0.001 C 
ATOM     76  C26 non d ame     -33.037  11.670  29.264  0.00  0.00    -0.035 C 
ATOM     77  C27 non d ame     -32.648  10.735  30.164  0.00  0.00     0.085 C 
ATOM     78  H38 non d ame     -33.975  12.043  29.674  0.00  0.00     0.036 H 
ATOM     79  H39 non d ame     -33.034  11.128  28.318  0.00  0.00     0.036 H 
ATOM     80  N5  non d ame     -31.536  11.348  30.983  0.00  0.00    -0.049 N 
ATOM     81  H40 non d ame     -33.514  10.571  30.806  0.00  0.00     0.075 H 
ATOM     82  H41 non d ame     -32.243   9.914  29.575  0.00  0.00     0.075 H 
ATOM     83  C28 non d ame     -31.061  12.661  30.174  0.00  0.00     0.193 C 
ATOM     84  H42 non d ame     -31.952  11.641  31.855  0.00  0.00     0.280 HD
ATOM     85  H43 non d ame     -30.780  10.678  30.983  0.00  0.00     0.280 HD
ATOM     86  H44 non d ame     -30.133  12.651  29.600  0.00  0.00     0.129 H 
ATOM     87  H37 non d ame     -31.211  12.870  28.401  0.00  0.00     0.046 H 
BRANCH  83  88
ATOM     88  O6  non d ame     -30.950  13.774  31.062  0.00  0.00    -0.369 OA
ATOM     89  H45 non d ame     -30.174  13.664  31.618  0.00  0.00     0.212 HD
ENDBRANCH  83  88
ENDBRANCH  72  75
ENDBRANCH  47  72
ENDBRANCH  45  47
ENDBRANCH   1  43
BRANCH   1  90
ATOM     90  C16 non d ame     -30.848  14.970  23.474  0.00  0.00    -0.035 C 
ATOM     91  H21 non d ame     -31.841  14.997  23.028  0.00  0.00     0.037 H 
ATOM     92  H22 non d ame     -30.406  15.881  23.877  0.00  0.00     0.037 H 
BRANCH  90  93
ATOM     93  C17 non d ame     -29.878  14.465  22.358  0.00  0.00    -0.059 C 
ATOM     94  H23 non d ame     -29.881  13.375  22.386  0.00  0.00     0.038 H 
BRANCH  93  95
ATOM     95  C18 non d ame     -30.340  14.905  20.932  0.00  0.00    -0.073 C 
ATOM     96  H24 non d ame     -30.747  14.045  20.400  0.00  0.00     0.028 H 
ATOM     97  H25 non d ame     -31.108  15.673  21.020  0.00  0.00     0.028 H 
ATOM     98  H26 non d ame     -29.488  15.303  20.381  0.00  0.00     0.028 H 
ENDBRANCH  93  95
BRANCH  93  99
ATOM     99  C19 non d ame     -28.443  14.924  22.631  0.00  0.00    -0.073 C 
ATOM    100  H27 non d ame     -28.416  15.494  23.562  0.00  0.00     0.028 H 
ATOM    101  H28 non d ame     -27.793  14.054  22.720  0.00  0.00     0.028 H 
ATOM    102  H29 non d ame     -28.100  15.553  21.810  0.00  0.00     0.028 H 
ENDBRANCH  93  99
ENDBRANCH  90  93
ENDBRANCH   1  90
TORSDOF 26
ENDMDL
MODEL 2
REMARK VINA RESULT:      -7.0      3.018      6.848
REMARK  26 active torsions:
REMARK  status: ('A' for Active; 'I' for Inactive)
REMARK    1  A    between atoms: C2_2  and  C3_3 
REMARK    2  A    between atoms: C4_6  and  C5_7 
REMARK       I    between atoms: C5_7  and  N2_9 
REMARK    3  A    between atoms: N2_9  and  C6_10 
REMARK    4  A    between atoms: C6_10  and  C7_11 
REMARK    5  A    between atoms: C6_10  and  C8_13 
REMARK       I    between atoms: C7_11  and  N3_14 
REMARK    6  A    between atoms: N3_14  and  C9_15 
REMARK    7  A    between atoms: C9_15  and  C10_16 
REMARK    8  A    between atoms: C9_15  and  C11_18 
REMARK       I    between atoms: C10_16  and  N4_21 
REMARK    9  A    between atoms: C11_18  and  C12_19 
REMARK   10  A    between atoms: C11_18  and  C13_20 
REMARK   11  A    between atoms: N4_21  and  C14_22 
REMARK   12  A    between atoms: C14_22  and  C15_23 
REMARK   13  A    between atoms: C14_22  and  C16_25 
REMARK       I    between atoms: C15_23  and  N6_40 
REMARK   14  A    between atoms: C16_25  and  C17_26 
REMARK   15  A    between atoms: C17_26  and  C18_27 
REMARK   16  A    between atoms: C17_26  and  C19_28 
REMARK   17  A    between atoms: C20_29  and  C21_30 
REMARK   18  A    between atoms: C20_29  and  C24_33 
REMARK   19  A    between atoms: C20_29  and  N6_40 
REMARK   20  A    between atoms: C21_30  and  C22_31 
REMARK   21  A    between atoms: C22_31  and  C23_32 
REMARK   22  A    between atoms: C23_32  and  O8_43 
REMARK   23  A    between atoms: C24_33  and  C25_34 
REMARK   24  A    between atoms: C28_38  and  O6_39 
REMARK   25  A    between atoms: C29_42  and  O8_43 
REMARK   26  A    between atoms: C29_42  and  C35_49 
ROOT
ATOM      1  C14 non d ame     -30.908  13.673  24.371  0.00  0.00     0.089 C 
ATOM      2  H20 non d ame     -29.868  13.619  24.695  0.00  0.00     0.087 H 
ENDROOT
BRANCH   1   3
ATOM      3  N4  non d ame     -31.292  12.348  23.907  0.00  0.00    -0.346 N 
ATOM      4  C10 non d ame     -31.139  11.151  24.810  0.00  0.00     0.241 C 
ATOM      5  O4  non d ame     -30.702  11.277  25.907  0.00  0.00    -0.271 OA
ATOM      6  H19 non d ame     -31.659  12.261  22.970  0.00  0.00     0.163 HD
BRANCH   4   7
ATOM      7  C9  non d ame     -31.546   9.787  24.316  0.00  0.00     0.092 C 
ATOM      8  H11 non d ame     -30.952   9.029  24.825  0.00  0.00     0.088 H 
BRANCH   7   9
ATOM      9  N3  non d ame     -32.950   9.541  24.659  0.00  0.00    -0.346 N 
ATOM     10  C7  non d ame     -33.280   8.747  25.816  0.00  0.00     0.240 C 
ATOM     11  O3  non d ame     -32.429   8.297  26.482  0.00  0.00    -0.271 OA
ATOM     12  H10 non d ame     -33.695   9.922  24.094  0.00  0.00     0.163 HD
BRANCH  10  13
ATOM     13  C6  non d ame     -34.776   8.486  26.176  0.00  0.00     0.086 C 
ATOM     14  H6  non d ame     -35.250   7.766  25.509  0.00  0.00     0.086 H 
BRANCH  13  15
ATOM     15  N2  non d ame     -34.849   7.923  27.514  0.00  0.00    -0.343 N 
ATOM     16  C5  non d ame     -35.946   7.016  27.856  0.00  0.00     0.273 C 
ATOM     17  O2  non d ame     -36.768   6.748  27.050  0.00  0.00    -0.266 OA
ATOM     18  H5  non d ame     -34.144   8.160  28.197  0.00  0.00     0.163 HD
BRANCH  16  19
ATOM     19  C4  non d ame     -36.035   6.414  29.268  0.00  0.00     0.154 A 
ATOM     20  C1  non d ame     -34.947   6.014  30.107  0.00  0.00    -0.017 A 
ATOM     21  C2  non d ame     -35.557   5.530  31.285  0.00  0.00     0.077 A 
ATOM     22  H1  non d ame     -33.879   6.067  29.893  0.00  0.00     0.091 H 
ATOM     23  O1  non d ame     -36.843   5.644  31.132  0.00  0.00    -0.218 OA
ATOM     24  N1  non d ame     -37.147   6.158  29.962  0.00  0.00    -0.123 NA
BRANCH  21  25
ATOM     25  C3  non d ame     -34.840   4.978  32.510  0.00  0.00    -0.029 C 
ATOM     26  H2  non d ame     -35.523   4.973  33.359  0.00  0.00     0.036 H 
ATOM     27  H3  non d ame     -34.507   3.960  32.309  0.00  0.00     0.036 H 
ATOM     28  H4  non d ame     -33.978   5.603  32.740  0.00  0.00     0.036 H 
ENDBRANCH  21  25
ENDBRANCH  16  19
ENDBRANCH  13  15
BRANCH  13  29
ATOM     29  C8  non d ame     -35.543   9.782  26.117  0.00  0.00    -0.049 C 
ATOM     30  H7  non d ame     -36.347   9.762  26.852  0.00  0.00     0.030 H 
ATOM     31  H8  non d ame     -34.872  10.612  26.337  0.00  0.00     0.030 H 
ATOM     32  H9  non d ame     -35.965   9.910  25.120  0.00  0.00     0.030 H 
ENDBRANCH  13  29
ENDBRANCH  10  13
ENDBRANCH   7   9
BRANCH   7  33
ATOM     33  C11 non d ame     -31.376   9.725  22.769  0.00  0.00    -0.033 C 
ATOM     34  H12 non d ame     -31.721  10.675  22.362  0.00  0.00     0.042 H 
BRANCH  33  35
ATOM     35  C12 non d ame     -29.876   9.561  22.370  0.00  0.00    -0.071 C 
ATOM     36  H13 non d ame     -29.592   8.512  22.449  0.00  0.00     0.028 H 
ATOM     37  H14 non d ame     -29.733   9.900  21.344  0.00  0.00     0.028 H 
ATOM     38  H15 non d ame     -29.255  10.156  23.040  0.00  0.00     0.028 H 
ENDBRANCH  33  35
BRANCH  33  39
ATOM     39  C13 non d ame     -32.253   8.588  22.155  0.00  0.00    -0.071 C 
ATOM     40  H16 non d ame     -31.618   7.897  21.601  0.00  0.00     0.028 H 
ATOM     41  H17 non d ame     -32.765   8.052  22.954  0.00  0.00     0.028 H 
ATOM     42  H18 non d ame     -32.991   9.023  21.480  0.00  0.00     0.028 H 
ENDBRANCH  33  39
ENDBRANCH   7  33
ENDBRANCH   4   7
ENDBRANCH   1   3
BRANCH   1  43
ATOM     43  C15 non d ame     -31.861  14.088  25.529  0.00  0.00     0.240 C 
ATOM     44  O5  non d ame     -33.036  14.103  25.350  0.00  0.00    -0.271 OA
ATOM     45  N6  non d ame     -31.310  14.457  26.864  0.00  0.00    -0.355 N 
ATOM     46  H46 non d ame     -30.313  14.442  27.029  0.00  0.00     0.162 HD
BRANCH  45  47
ATOM     47  C20 non d ame     -32.229  14.848  27.954  0.00  0.00     0.013 C 
ATOM     48  H30 non d ame     -31.628  15.240  28.774  0.00  0.00     0.072 H 
BRANCH  47  49
ATOM     49  C21 non d ame     -33.005  13.634  28.414  0.00  0.00    -0.038 C 
ATOM     50  H31 non d ame     -33.525  13.944  29.321  0.00  0.00     0.036 H 
ATOM     51  H32 non d ame     -33.575  13.303  27.545  0.00  0.00     0.036 H 
BRANCH  49  52
ATOM     52  C22 non d ame     -32.091  12.455  28.813  0.00  0.00     0.018 C 
ATOM     53  H33 non d ame     -32.582  11.560  28.433  0.00  0.00     0.048 H 
ATOM     54  H34 non d ame     -31.095  12.723  28.462  0.00  0.00     0.048 H 
BRANCH  52  55
ATOM     55  C23 non d ame     -31.964  12.254  30.349  0.00  0.00     0.259 C 
ATOM     56  O7  non d ame     -31.180  12.889  30.977  0.00  0.00    -0.265 OA
BRANCH  55  57
ATOM     57  O8  non d ame     -32.787  11.291  30.996  0.00  0.00    -0.317 OA
BRANCH  57  58
ATOM     58  C29 non d ame     -33.318  10.294  30.118  0.00  0.00     0.052 C 
ATOM     59  H47 non d ame     -33.392  10.771  29.141  0.00  0.00     0.082 H 
ATOM     60  H48 non d ame     -32.686   9.417  30.251  0.00  0.00     0.082 H 
BRANCH  58  61
ATOM     61  C35 non d ame     -34.750   9.943  30.604  0.00  0.00    -0.034 A 
ATOM     62  C30 non d ame     -35.846  10.210  29.789  0.00  0.00    -0.075 A 
ATOM     63  C31 non d ame     -37.133   9.895  30.225  0.00  0.00    -0.082 A 
ATOM     64  H49 non d ame     -35.698  10.666  28.810  0.00  0.00     0.084 H 
ATOM     65  C32 non d ame     -37.321   9.313  31.482  0.00  0.00    -0.083 A 
ATOM     66  H50 non d ame     -37.990  10.104  29.583  0.00  0.00     0.083 H 
ATOM     67  C33 non d ame     -36.224   9.053  32.292  0.00  0.00    -0.082 A 
ATOM     68  H51 non d ame     -38.324   9.063  31.830  0.00  0.00     0.083 H 
ATOM     69  C34 non d ame     -34.937   9.364  31.860  0.00  0.00    -0.075 A 
ATOM     70  H52 non d ame     -36.375   8.600  33.273  0.00  0.00     0.083 H 
ATOM     71  H53 non d ame     -34.081   9.154  32.501  0.00  0.00     0.084 H 
ENDBRANCH  58  61
ENDBRANCH  57  58
ENDBRANCH  55  57
ENDBRANCH  52  55
ENDBRANCH  49  52
ENDBRANCH  47  49
BRANCH  47  72
ATOM     72  C24 non d ame     -33.200  15.915  27.452  0.00  0.00    -0.039 C 
ATOM     73  H35 non d ame     -33.660  15.490  26.558  0.00  0.00     0.036 H 
ATOM     74  H36 non d ame     -33.818  16.173  28.312  0.00  0.00     0.036 H 
BRANCH  72  75
ATOM     75  C25 non d ame     -32.436  17.248  27.001  0.00  0.00    -0.001 C 
ATOM     76  C26 non d ame     -32.586  18.399  28.165  0.00  0.00    -0.035 C 
ATOM     77  C27 non d ame     -33.029  19.544  27.592  0.00  0.00     0.085 C 
ATOM     78  H38 non d ame     -33.387  18.133  28.854  0.00  0.00     0.036 H 
ATOM     79  H39 non d ame     -31.604  18.672  28.552  0.00  0.00     0.036 H 
ATOM     80  N5  non d ame     -33.507  19.187  26.205  0.00  0.00    -0.049 N 
ATOM     81  H40 non d ame     -33.883  19.859  28.193  0.00  0.00     0.075 H 
ATOM     82  H41 non d ame     -32.154  20.187  27.512  0.00  0.00     0.075 H 
ATOM     83  C28 non d ame     -32.920  17.714  25.899  0.00  0.00     0.193 C 
ATOM     84  H42 non d ame     -34.513  19.128  26.255  0.00  0.00     0.280 HD
ATOM     85  H43 non d ame     -33.070  19.845  25.575  0.00  0.00     0.280 HD
ATOM     86  H44 non d ame     -32.063  17.587  25.237  0.00  0.00     0.129 H 
ATOM     87  H37 non d ame     -31.431  17.043  26.634  0.00  0.00     0.046 H 
BRANCH  83  88
ATOM     88  O6  non d ame     -33.945  16.877  25.363  0.00  0.00    -0.369 OA
ATOM     89  H45 non d ame     -34.579  16.665  26.053  0.00  0.00     0.212 HD
ENDBRANCH  83  88
ENDBRANCH  72  75
ENDBRANCH  47  72
ENDBRANCH  45  47
ENDBRANCH   1  43
BRANCH   1  90
ATOM     90  C16 non d ame     -31.039  14.660  23.222  0.00  0.00    -0.035 C 
ATOM     91  H21 non d ame     -32.034  14.494  22.812  0.00  0.00     0.037 H 
ATOM     92  H22 non d ame     -30.777  15.630  23.645  0.00  0.00     0.037 H 
BRANCH  90  93
ATOM     93  C17 non d ame     -30.033  14.399  22.056  0.00  0.00    -0.059 C 
ATOM     94  H23 non d ame     -30.000  13.323  21.883  0.00  0.00     0.038 H 
BRANCH  93  95
ATOM     95  C18 non d ame     -30.484  15.081  20.725  0.00  0.00    -0.073 C 
ATOM     96  H24 non d ame     -30.362  14.382  19.898  0.00  0.00     0.028 H 
ATOM     97  H25 non d ame     -31.532  15.371  20.802  0.00  0.00     0.028 H 
ATOM     98  H26 non d ame     -29.875  15.966  20.545  0.00  0.00     0.028 H 
ENDBRANCH  93  95
BRANCH  93  99
ATOM     99  C19 non d ame     -28.620  14.843  22.443  0.00  0.00    -0.073 C 
ATOM    100  H27 non d ame     -27.897  14.115  22.072  0.00  0.00     0.028 H 
ATOM    101  H28 non d ame     -28.411  15.818  22.003  0.00  0.00     0.028 H 
ATOM    102  H29 non d ame     -28.544  14.910  23.528  0.00  0.00     0.028 H 
ENDBRANCH  93  99
ENDBRANCH  90  93
ENDBRANCH   1  90
TORSDOF 26
ENDMDL
MODEL 3
REMARK VINA RESULT:      -7.0      3.039      6.068
REMARK  26 active torsions:
REMARK  status: ('A' for Active; 'I' for Inactive)
REMARK    1  A    between atoms: C2_2  and  C3_3 
REMARK    2  A    between atoms: C4_6  and  C5_7 
REMARK       I    between atoms: C5_7  and  N2_9 
REMARK    3  A    between atoms: N2_9  and  C6_10 
REMARK    4  A    between atoms: C6_10  and  C7_11 
REMARK    5  A    between atoms: C6_10  and  C8_13 
REMARK       I    between atoms: C7_11  and  N3_14 
REMARK    6  A    between atoms: N3_14  and  C9_15 
REMARK    7  A    between atoms: C9_15  and  C10_16 
REMARK    8  A    between atoms: C9_15  and  C11_18 
REMARK       I    between atoms: C10_16  and  N4_21 
REMARK    9  A    between atoms: C11_18  and  C12_19 
REMARK   10  A    between atoms: C11_18  and  C13_20 
REMARK   11  A    between atoms: N4_21  and  C14_22 
REMARK   12  A    between atoms: C14_22  and  C15_23 
REMARK   13  A    between atoms: C14_22  and  C16_25 
REMARK       I    between atoms: C15_23  and  N6_40 
REMARK   14  A    between atoms: C16_25  and  C17_26 
REMARK   15  A    between atoms: C17_26  and  C18_27 
REMARK   16  A    between atoms: C17_26  and  C19_28 
REMARK   17  A    between atoms: C20_29  and  C21_30 
REMARK   18  A    between atoms: C20_29  and  C24_33 
REMARK   19  A    between atoms: C20_29  and  N6_40 
REMARK   20  A    between atoms: C21_30  and  C22_31 
REMARK   21  A    between atoms: C22_31  and  C23_32 
REMARK   22  A    between atoms: C23_32  and  O8_43 
REMARK   23  A    between atoms: C24_33  and  C25_34 
REMARK   24  A    between atoms: C28_38  and  O6_39 
REMARK   25  A    between atoms: C29_42  and  O8_43 
REMARK   26  A    between atoms: C29_42  and  C35_49 
ROOT
ATOM      1  C14 non d ame     -32.960  12.524  27.554  0.00  0.00     0.089 C 
ATOM      2  H20 non d ame     -34.023  12.471  27.319  0.00  0.00     0.087 H 
ENDROOT
BRANCH   1   3
ATOM      3  N4  non d ame     -32.372  11.237  27.215  0.00  0.00    -0.346 N 
ATOM      4  C10 non d ame     -33.221  10.145  26.617  0.00  0.00     0.241 C 
ATOM      5  O4  non d ame     -34.378  10.323  26.420  0.00  0.00    -0.271 OA
ATOM      6  H19 non d ame     -31.386  11.104  27.393  0.00  0.00     0.163 HD
BRANCH   4   7
ATOM      7  C9  non d ame     -32.595   8.820  26.268  0.00  0.00     0.092 C 
ATOM      8  H11 non d ame     -31.672   8.700  26.833  0.00  0.00     0.088 H 
BRANCH   7   9
ATOM      9  N3  non d ame     -33.494   7.733  26.668  0.00  0.00    -0.346 N 
ATOM     10  C7  non d ame     -32.955   6.534  27.260  0.00  0.00     0.240 C 
ATOM     11  O3  non d ame     -31.800   6.426  27.421  0.00  0.00    -0.271 OA
ATOM     12  H10 non d ame     -34.492   7.812  26.534  0.00  0.00     0.163 HD
BRANCH  10  13
ATOM     13  C6  non d ame     -33.916   5.379  27.682  0.00  0.00     0.086 C 
ATOM     14  H6  non d ame     -33.467   4.701  28.407  0.00  0.00     0.086 H 
BRANCH  13  15
ATOM     15  N2  non d ame     -35.090   5.951  28.319  0.00  0.00    -0.343 N 
ATOM     16  C5  non d ame     -35.267   5.810  29.766  0.00  0.00     0.273 C 
ATOM     17  O2  non d ame     -34.461   5.231  30.408  0.00  0.00    -0.266 OA
ATOM     18  H5  non d ame     -35.775   6.441  27.762  0.00  0.00     0.163 HD
BRANCH  16  19
ATOM     19  C4  non d ame     -36.504   6.411  30.452  0.00  0.00     0.154 A 
ATOM     20  C1  non d ame     -36.910   7.782  30.455  0.00  0.00    -0.017 A 
ATOM     21  C2  non d ame     -38.098   7.807  31.220  0.00  0.00     0.077 A 
ATOM     22  H1  non d ame     -36.419   8.629  29.975  0.00  0.00     0.091 H 
ATOM     23  O1  non d ame     -38.337   6.589  31.604  0.00  0.00    -0.218 OA
ATOM     24  N1  non d ame     -37.420   5.755  31.169  0.00  0.00    -0.123 NA
BRANCH  21  25
ATOM     25  C3  non d ame     -38.942   9.035  31.533  0.00  0.00    -0.029 C 
ATOM     26  H2  non d ame     -39.382   9.418  30.613  0.00  0.00     0.036 H 
ATOM     27  H3  non d ame     -39.738   8.762  32.227  0.00  0.00     0.036 H 
ATOM     28  H4  non d ame     -38.315   9.803  31.984  0.00  0.00     0.036 H 
ENDBRANCH  21  25
ENDBRANCH  16  19
ENDBRANCH  13  15
BRANCH  13  29
ATOM     29  C8  non d ame     -34.322   4.590  26.463  0.00  0.00    -0.049 C 
ATOM     30  H7  non d ame     -33.878   3.596  26.509  0.00  0.00     0.030 H 
ATOM     31  H8  non d ame     -35.407   4.500  26.433  0.00  0.00     0.030 H 
ATOM     32  H9  non d ame     -33.974   5.103  25.566  0.00  0.00     0.030 H 
ENDBRANCH  13  29
ENDBRANCH  10  13
ENDBRANCH   7   9
BRANCH   7  33
ATOM     33  C11 non d ame     -32.355   8.750  24.731  0.00  0.00    -0.033 C 
ATOM     34  H12 non d ame     -31.558   8.028  24.555  0.00  0.00     0.042 H 
BRANCH  33  35
ATOM     35  C12 non d ame     -33.624   8.240  23.980  0.00  0.00    -0.071 C 
ATOM     36  H13 non d ame     -33.535   7.167  23.804  0.00  0.00     0.028 H 
ATOM     37  H14 non d ame     -34.508   8.436  24.586  0.00  0.00     0.028 H 
ATOM     38  H15 non d ame     -33.715   8.757  23.025  0.00  0.00     0.028 H 
ENDBRANCH  33  35
BRANCH  33  39
ATOM     39  C13 non d ame     -31.886  10.133  24.175  0.00  0.00    -0.071 C 
ATOM     40  H16 non d ame     -32.654  10.882  24.366  0.00  0.00     0.028 H 
ATOM     41  H17 non d ame     -30.959  10.428  24.668  0.00  0.00     0.028 H 
ATOM     42  H18 non d ame     -31.715  10.054  23.101  0.00  0.00     0.028 H 
ENDBRANCH  33  39
ENDBRANCH   7  33
ENDBRANCH   4   7
ENDBRANCH   1   3
BRANCH   1  43
ATOM     43  C15 non d ame     -32.233  13.632  26.737  0.00  0.00     0.240 C 
ATOM     44  O5  non d ame     -31.048  13.622  26.652  0.00  0.00    -0.271 OA
ATOM     45  N6  non d ame     -33.016  14.699  26.052  0.00  0.00    -0.355 N 
ATOM     46  H46 non d ame     -34.025  14.715  26.113  0.00  0.00     0.162 HD
BRANCH  45  47
ATOM     47  C20 non d ame     -32.311  15.744  25.279  0.00  0.00     0.013 C 
ATOM     48  H30 non d ame     -31.300  15.829  25.677  0.00  0.00     0.072 H 
BRANCH  47  49
ATOM     49  C21 non d ame     -33.040  17.059  25.434  0.00  0.00    -0.038 C 
ATOM     50  H31 non d ame     -32.804  17.634  24.538  0.00  0.00     0.036 H 
ATOM     51  H32 non d ame     -34.075  16.797  25.657  0.00  0.00     0.036 H 
BRANCH  49  52
ATOM     52  C22 non d ame     -32.531  17.889  26.633  0.00  0.00     0.018 C 
ATOM     53  H33 non d ame     -31.510  17.556  26.810  0.00  0.00     0.048 H 
ATOM     54  H34 non d ame     -32.729  18.930  26.376  0.00  0.00     0.048 H 
BRANCH  52  55
ATOM     55  C23 non d ame     -33.305  17.621  27.953  0.00  0.00     0.259 C 
ATOM     56  O7  non d ame     -33.035  16.681  28.630  0.00  0.00    -0.265 OA
BRANCH  55  57
ATOM     57  O8  non d ame     -34.352  18.503  28.339  0.00  0.00    -0.317 OA
BRANCH  57  58
ATOM     58  C29 non d ame     -35.662  18.033  28.009  0.00  0.00     0.052 C 
ATOM     59  H47 non d ame     -35.515  17.072  27.516  0.00  0.00     0.082 H 
ATOM     60  H48 non d ame     -36.239  18.091  28.931  0.00  0.00     0.082 H 
BRANCH  58  61
ATOM     61  C35 non d ame     -36.280  19.021  26.983  0.00  0.00    -0.034 A 
ATOM     62  C30 non d ame     -36.336  18.680  25.635  0.00  0.00    -0.075 A 
ATOM     63  C31 non d ame     -36.891  19.568  24.713  0.00  0.00    -0.082 A 
ATOM     64  H49 non d ame     -35.946  17.719  25.300  0.00  0.00     0.084 H 
ATOM     65  C32 non d ame     -37.388  20.801  25.144  0.00  0.00    -0.083 A 
ATOM     66  H50 non d ame     -36.935  19.297  23.658  0.00  0.00     0.083 H 
ATOM     67  C33 non d ame     -37.326  21.137  26.489  0.00  0.00    -0.082 A 
ATOM     68  H51 non d ame     -37.824  21.500  24.430  0.00  0.00     0.083 H 
ATOM     69  C34 non d ame     -36.775  20.253  27.414  0.00  0.00    -0.075 A 
ATOM     70  H52 non d ame     -37.713  22.102  26.822  0.00  0.00     0.083 H 
ATOM     71  H53 non d ame     -36.731  20.524  28.469  0.00  0.00     0.084 H 
ENDBRANCH  58  61
ENDBRANCH  57  58
ENDBRANCH  55  57
ENDBRANCH  52  55
ENDBRANCH  49  52
ENDBRANCH  47  49
BRANCH  47  72
ATOM     72  C24 non d ame     -32.269  15.354  23.803  0.00  0.00    -0.039 C 
ATOM     73  H35 non d ame     -32.526  14.294  23.777  0.00  0.00     0.036 H 
ATOM     74  H36 non d ame     -32.900  16.081  23.293  0.00  0.00     0.036 H 
BRANCH  72  75
ATOM     75  C25 non d ame     -30.795  15.497  23.194  0.00  0.00    -0.001 C 
ATOM     76  C26 non d ame     -30.869  16.197  21.708  0.00  0.00    -0.035 C 
ATOM     77  C27 non d ame     -30.177  15.433  20.829  0.00  0.00     0.085 C 
ATOM     78  H38 non d ame     -31.890  16.161  21.328  0.00  0.00     0.036 H 
ATOM     79  H39 non d ame     -30.322  17.140  21.710  0.00  0.00     0.036 H 
ATOM     80  N5  non d ame     -29.915  14.109  21.509  0.00  0.00    -0.049 N 
ATOM     81  H40 non d ame     -30.852  15.273  19.988  0.00  0.00     0.075 H 
ATOM     82  H41 non d ame     -29.230  15.948  20.678  0.00  0.00     0.075 H 
ATOM     83  C28 non d ame     -30.224  14.345  23.075  0.00  0.00     0.193 C 
ATOM     84  H42 non d ame     -30.594  13.460  21.141  0.00  0.00     0.280 HD
ATOM     85  H43 non d ame     -28.928  13.924  21.399  0.00  0.00     0.280 HD
ATOM     86  H44 non d ame     -29.407  14.454  23.790  0.00  0.00     0.129 H 
ATOM     87  H37 non d ame     -30.092  15.925  23.909  0.00  0.00     0.046 H 
BRANCH  83  88
ATOM     88  O6  non d ame     -31.037  13.286  23.582  0.00  0.00    -0.369 OA
ATOM     89  H45 non d ame     -30.939  13.235  24.536  0.00  0.00     0.212 HD
ENDBRANCH  83  88
ENDBRANCH  72  75
ENDBRANCH  47  72
ENDBRANCH  45  47
ENDBRANCH   1  43
BRANCH   1  90
ATOM     90  C16 non d ame     -32.773  12.780  29.041  0.00  0.00    -0.035 C 
ATOM     91  H21 non d ame     -32.100  13.634  29.104  0.00  0.00     0.037 H 
ATOM     92  H22 non d ame     -33.781  12.847  29.451  0.00  0.00     0.037 H 
BRANCH  90  93
ATOM     93  C17 non d ame     -32.067  11.607  29.794  0.00  0.00    -0.059 C 
ATOM     94  H23 non d ame     -31.670  10.924  29.043  0.00  0.00     0.038 H 
BRANCH  93  95
ATOM     95  C18 non d ame     -30.870  12.102  30.667  0.00  0.00    -0.073 C 
ATOM     96  H24 non d ame     -30.175  11.279  30.833  0.00  0.00     0.028 H 
ATOM     97  H25 non d ame     -30.355  12.912  30.150  0.00  0.00     0.028 H 
ATOM     98  H26 non d ame     -31.243  12.462  31.625  0.00  0.00     0.028 H 
ENDBRANCH  93  95
BRANCH  93  99
ATOM     99  C19 non d ame     -33.070  10.819  30.641  0.00  0.00    -0.073 C 
ATOM    100  H27 non d ame     -33.405  11.438  31.475  0.00  0.00     0.028 H 
ATOM    101  H28 non d ame     -33.927  10.543  30.028  0.00  0.00     0.028 H 
ATOM    102  H29 non d ame     -32.592   9.919  31.026  0.00  0.00     0.028 H 
ENDBRANCH  93  99
ENDBRANCH  90  93
ENDBRANCH   1  90
TORSDOF 26
ENDMDL
MODEL 4
REMARK VINA RESULT:      -6.9      2.769      8.481
REMARK  26 active torsions:
REMARK  status: ('A' for Active; 'I' for Inactive)
REMARK    1  A    between atoms: C2_2  and  C3_3 
REMARK    2  A    between atoms: C4_6  and  C5_7 
REMARK       I    between atoms: C5_7  and  N2_9 
REMARK    3  A    between atoms: N2_9  and  C6_10 
REMARK    4  A    between atoms: C6_10  and  C7_11 
REMARK    5  A    between atoms: C6_10  and  C8_13 
REMARK       I    between atoms: C7_11  and  N3_14 
REMARK    6  A    between atoms: N3_14  and  C9_15 
REMARK    7  A    between atoms: C9_15  and  C10_16 
REMARK    8  A    between atoms: C9_15  and  C11_18 
REMARK       I    between atoms: C10_16  and  N4_21 
REMARK    9  A    between atoms: C11_18  and  C12_19 
REMARK   10  A    between atoms: C11_18  and  C13_20 
REMARK   11  A    between atoms: N4_21  and  C14_22 
REMARK   12  A    between atoms: C14_22  and  C15_23 
REMARK   13  A    between atoms: C14_22  and  C16_25 
REMARK       I    between atoms: C15_23  and  N6_40 
REMARK   14  A    between atoms: C16_25  and  C17_26 
REMARK   15  A    between atoms: C17_26  and  C18_27 
REMARK   16  A    between atoms: C17_26  and  C19_28 
REMARK   17  A    between atoms: C20_29  and  C21_30 
REMARK   18  A    between atoms: C20_29  and  C24_33 
REMARK   19  A    between atoms: C20_29  and  N6_40 
REMARK   20  A    between atoms: C21_30  and  C22_31 
REMARK   21  A    between atoms: C22_31  and  C23_32 
REMARK   22  A    between atoms: C23_32  and  O8_43 
REMARK   23  A    between atoms: C24_33  and  C25_34 
REMARK   24  A    between atoms: C28_38  and  O6_39 
REMARK   25  A    between atoms: C29_42  and  O8_43 
REMARK   26  A    between atoms: C29_42  and  C35_49 
ROOT
ATOM      1  C14 non d ame     -36.039  12.733  25.976  0.00  0.00     0.089 C 
ATOM      2  H20 non d ame     -36.692  12.705  26.849  0.00  0.00     0.087 H 
ENDROOT
BRANCH   1   3
ATOM      3  N4  non d ame     -36.032  14.100  25.478  0.00  0.00    -0.346 N 
ATOM      4  C10 non d ame     -36.913  15.146  26.111  0.00  0.00     0.241 C 
ATOM      5  O4  non d ame     -37.621  14.865  27.022  0.00  0.00    -0.271 OA
ATOM      6  H19 non d ame     -35.425  14.318  24.701  0.00  0.00     0.163 HD
BRANCH   4   7
ATOM      7  C9  non d ame     -36.890  16.558  25.585  0.00  0.00     0.092 C 
ATOM      8  H11 non d ame     -37.341  17.222  26.321  0.00  0.00     0.088 H 
BRANCH   7   9
ATOM      9  N3  non d ame     -35.501  16.990  25.405  0.00  0.00    -0.346 N 
ATOM     10  C7  non d ame     -34.801  17.635  26.488  0.00  0.00     0.240 C 
ATOM     11  O3  non d ame     -35.340  17.815  27.511  0.00  0.00    -0.271 OA
ATOM     12  H10 non d ame     -35.023  16.843  24.527  0.00  0.00     0.163 HD
BRANCH  10  13
ATOM     13  C6  non d ame     -33.323  18.096  26.289  0.00  0.00     0.086 C 
ATOM     14  H6  non d ame     -32.678  17.814  27.121  0.00  0.00     0.086 H 
BRANCH  13  15
ATOM     15  N2  non d ame     -32.782  17.449  25.105  0.00  0.00    -0.343 N 
ATOM     16  C5  non d ame     -31.956  16.250  25.252  0.00  0.00     0.273 C 
ATOM     17  O2  non d ame     -31.729  15.814  26.328  0.00  0.00    -0.266 OA
ATOM     18  H5  non d ame     -32.979  17.830  24.191  0.00  0.00     0.163 HD
BRANCH  16  19
ATOM     19  C4  non d ame     -31.378  15.556  24.009  0.00  0.00     0.154 A 
ATOM     20  C1  non d ame     -31.274  16.095  22.688  0.00  0.00    -0.017 A 
ATOM     21  C2  non d ame     -30.679  15.067  21.922  0.00  0.00     0.077 A 
ATOM     22  H1  non d ame     -31.582  17.080  22.338  0.00  0.00     0.091 H 
ATOM     23  O1  non d ame     -30.469  14.062  22.719  0.00  0.00    -0.218 OA
ATOM     24  N1  non d ame     -30.869  14.323  23.943  0.00  0.00    -0.123 NA
BRANCH  21  25
ATOM     25  C3  non d ame     -30.344  15.128  20.438  0.00  0.00    -0.029 C 
ATOM     26  H2  non d ame     -29.646  15.944  20.256  0.00  0.00     0.036 H 
ATOM     27  H3  non d ame     -29.888  14.187  20.129  0.00  0.00     0.036 H 
ATOM     28  H4  non d ame     -31.256  15.294  19.865  0.00  0.00     0.036 H 
ENDBRANCH  21  25
ENDBRANCH  16  19
ENDBRANCH  13  15
BRANCH  13  29
ATOM     29  C8  non d ame     -33.279  19.594  26.126  0.00  0.00    -0.049 C 
ATOM     30  H7  non d ame     -33.412  20.070  27.096  0.00  0.00     0.030 H 
ATOM     31  H8  non d ame     -32.316  19.886  25.707  0.00  0.00     0.030 H 
ATOM     32  H9  non d ame     -34.078  19.910  25.454  0.00  0.00     0.030 H 
ENDBRANCH  13  29
ENDBRANCH  10  13
ENDBRANCH   7   9
BRANCH   7  33
ATOM     33  C11 non d ame     -37.629  16.612  24.215  0.00  0.00    -0.033 C 
ATOM     34  H12 non d ame     -37.049  16.022  23.506  0.00  0.00     0.042 H 
BRANCH  33  35
ATOM     35  C12 non d ame     -39.048  15.969  24.310  0.00  0.00    -0.071 C 
ATOM     36  H13 non d ame     -39.273  15.739  25.352  0.00  0.00     0.028 H 
ATOM     37  H14 non d ame     -39.790  16.666  23.923  0.00  0.00     0.028 H 
ATOM     38  H15 non d ame     -39.070  15.050  23.724  0.00  0.00     0.028 H 
ENDBRANCH  33  35
BRANCH  33  39
ATOM     39  C13 non d ame     -37.705  18.076  23.679  0.00  0.00    -0.071 C 
ATOM     40  H16 non d ame     -38.599  18.193  23.066  0.00  0.00     0.028 H 
ATOM     41  H17 non d ame     -37.745  18.771  24.519  0.00  0.00     0.028 H 
ATOM     42  H18 non d ame     -36.822  18.289  23.076  0.00  0.00     0.028 H 
ENDBRANCH  33  39
ENDBRANCH   7  33
ENDBRANCH   4   7
ENDBRANCH   1   3
BRANCH   1  43
ATOM     43  C15 non d ame     -34.578  12.325  26.324  0.00  0.00     0.240 C 
ATOM     44  O5  non d ame     -33.678  13.042  26.026  0.00  0.00    -0.271 OA
ATOM     45  N6  non d ame     -34.301  11.047  27.039  0.00  0.00    -0.355 N 
ATOM     46  H46 non d ame     -35.059  10.432  27.302  0.00  0.00     0.162 HD
BRANCH  45  47
ATOM     47  C20 non d ame     -32.907  10.675  27.363  0.00  0.00     0.013 C 
ATOM     48  H30 non d ame     -32.253  11.451  26.966  0.00  0.00     0.072 H 
BRANCH  47  49
ATOM     49  C21 non d ame     -32.582   9.345  26.721  0.00  0.00    -0.038 C 
ATOM     50  H31 non d ame     -33.242   9.266  25.857  0.00  0.00     0.036 H 
ATOM     51  H32 non d ame     -31.500   9.342  26.583  0.00  0.00     0.036 H 
BRANCH  49  52
ATOM     52  C22 non d ame     -32.909   8.143  27.633  0.00  0.00     0.018 C 
ATOM     53  H33 non d ame     -32.044   7.484  27.574  0.00  0.00     0.048 H 
ATOM     54  H34 non d ame     -33.204   8.572  28.591  0.00  0.00     0.048 H 
BRANCH  52  55
ATOM     55  C23 non d ame     -34.122   7.302  27.149  0.00  0.00     0.259 C 
ATOM     56  O7  non d ame     -34.120   6.807  26.068  0.00  0.00    -0.265 OA
BRANCH  55  57
ATOM     57  O8  non d ame     -35.246   7.140  28.007  0.00  0.00    -0.317 OA
BRANCH  57  58
ATOM     58  C29 non d ame     -34.904   6.854  29.366  0.00  0.00     0.052 C 
ATOM     59  H47 non d ame     -35.511   5.995  29.648  0.00  0.00     0.082 H 
ATOM     60  H48 non d ame     -33.817   6.786  29.389  0.00  0.00     0.082 H 
BRANCH  58  61
ATOM     61  C35 non d ame     -35.337   8.067  30.233  0.00  0.00    -0.034 A 
ATOM     62  C30 non d ame     -36.044   9.118  29.656  0.00  0.00    -0.075 A 
ATOM     63  C31 non d ame     -36.432  10.208  30.434  0.00  0.00    -0.082 A 
ATOM     64  H49 non d ame     -36.293   9.089  28.595  0.00  0.00     0.084 H 
ATOM     65  C32 non d ame     -36.110  10.245  31.793  0.00  0.00    -0.083 A 
ATOM     66  H50 non d ame     -36.988  11.029  29.980  0.00  0.00     0.083 H 
ATOM     67  C33 non d ame     -35.401   9.197  32.363  0.00  0.00    -0.082 A 
ATOM     68  H51 non d ame     -36.410  11.094  32.409  0.00  0.00     0.083 H 
ATOM     69  C34 non d ame     -35.012   8.105  31.590  0.00  0.00    -0.075 A 
ATOM     70  H52 non d ame     -35.148   9.230  33.424  0.00  0.00     0.083 H 
ATOM     71  H53 non d ame     -34.457   7.284  32.045  0.00  0.00     0.084 H 
ENDBRANCH  58  61
ENDBRANCH  57  58
ENDBRANCH  55  57
ENDBRANCH  52  55
ENDBRANCH  49  52
ENDBRANCH  47  49
BRANCH  47  72
ATOM     72  C24 non d ame     -32.741  10.565  28.877  0.00  0.00    -0.039 C 
ATOM     73  H35 non d ame     -33.591   9.973  29.219  0.00  0.00     0.036 H 
ATOM     74  H36 non d ame     -31.726  10.199  29.032  0.00  0.00     0.036 H 
BRANCH  72  75
ATOM     75  C25 non d ame     -32.843  11.996  29.590  0.00  0.00    -0.001 C 
ATOM     76  C26 non d ame     -31.752  13.030  28.926  0.00  0.00    -0.035 C 
ATOM     77  C27 non d ame     -31.026  13.597  29.920  0.00  0.00     0.085 C 
ATOM     78  H38 non d ame     -31.009  12.475  28.353  0.00  0.00     0.036 H 
ATOM     79  H39 non d ame     -32.267  13.878  28.473  0.00  0.00     0.036 H 
ATOM     80  N5  non d ame     -31.298  12.801  31.174  0.00  0.00    -0.049 N 
ATOM     81  H40 non d ame     -29.983  13.462  29.632  0.00  0.00     0.075 H 
ATOM     82  H41 non d ame     -31.432  14.601  30.041  0.00  0.00     0.075 H 
ATOM     83  C28 non d ame     -32.603  11.905  30.856  0.00  0.00     0.193 C 
ATOM     84  H42 non d ame     -30.508  12.186  31.299  0.00  0.00     0.280 HD
ATOM     85  H43 non d ame     -31.535  13.472  31.891  0.00  0.00     0.280 HD
ATOM     86  H44 non d ame     -33.576  12.181  31.262  0.00  0.00     0.129 H 
ATOM     87  H37 non d ame     -33.872  12.344  29.671  0.00  0.00     0.046 H 
BRANCH  83  88
ATOM     88  O6  non d ame     -32.385  10.554  31.268  0.00  0.00    -0.369 OA
ATOM     89  H45 non d ame     -32.802   9.957  30.642  0.00  0.00     0.212 HD
ENDBRANCH  83  88
ENDBRANCH  72  75
ENDBRANCH  47  72
ENDBRANCH  45  47
ENDBRANCH   1  43
BRANCH   1  90
ATOM     90  C16 non d ame     -36.582  11.811  24.896  0.00  0.00    -0.035 C 
ATOM     91  H21 non d ame     -37.153  12.455  24.229  0.00  0.00     0.037 H 
ATOM     92  H22 non d ame     -35.717  11.266  24.521  0.00  0.00     0.037 H 
BRANCH  90  93
ATOM     93  C17 non d ame     -37.582  10.738  25.434  0.00  0.00    -0.059 C 
ATOM     94  H23 non d ame     -38.436  10.714  24.757  0.00  0.00     0.038 H 
BRANCH  93  95
ATOM     95  C18 non d ame     -36.954   9.308  25.461  0.00  0.00    -0.073 C 
ATOM     96  H24 non d ame     -37.129   8.852  26.435  0.00  0.00     0.028 H 
ATOM     97  H25 non d ame     -37.415   8.695  24.686  0.00  0.00     0.028 H 
ATOM     98  H26 non d ame     -35.882   9.379  25.280  0.00  0.00     0.028 H 
ENDBRANCH  93  95
BRANCH  93  99
ATOM     99  C19 non d ame     -38.110  11.127  26.818  0.00  0.00    -0.073 C 
ATOM    100  H27 non d ame     -37.315  11.011  27.556  0.00  0.00     0.028 H 
ATOM    101  H28 non d ame     -38.441  12.166  26.803  0.00  0.00     0.028 H 
ATOM    102  H29 non d ame     -38.948  10.482  27.082  0.00  0.00     0.028 H 
ENDBRANCH  93  99
ENDBRANCH  90  93
ENDBRANCH   1  90
TORSDOF 26
ENDMDL
MODEL 5
REMARK VINA RESULT:      -6.9      2.375      8.599
REMARK  26 active torsions:
REMARK  status: ('A' for Active; 'I' for Inactive)
REMARK    1  A    between atoms: C2_2  and  C3_3 
REMARK    2  A    between atoms: C4_6  and  C5_7 
REMARK       I    between atoms: C5_7  and  N2_9 
REMARK    3  A    between atoms: N2_9  and  C6_10 
REMARK    4  A    between atoms: C6_10  and  C7_11 
REMARK    5  A    between atoms: C6_10  and  C8_13 
REMARK       I    between atoms: C7_11  and  N3_14 
REMARK    6  A    between atoms: N3_14  and  C9_15 
REMARK    7  A    between atoms: C9_15  and  C10_16 
REMARK    8  A    between atoms: C9_15  and  C11_18 
REMARK       I    between atoms: C10_16  and  N4_21 
REMARK    9  A    between atoms: C11_18  and  C12_19 
REMARK   10  A    between atoms: C11_18  and  C13_20 
REMARK   11  A    between atoms: N4_21  and  C14_22 
REMARK   12  A    between atoms: C14_22  and  C15_23 
REMARK   13  A    between atoms: C14_22  and  C16_25 
REMARK       I    between atoms: C15_23  and  N6_40 
REMARK   14  A    between atoms: C16_25  and  C17_26 
REMARK   15  A    between atoms: C17_26  and  C18_27 
REMARK   16  A    between atoms: C17_26  and  C19_28 
REMARK   17  A    between atoms: C20_29  and  C21_30 
REMARK   18  A    between atoms: C20_29  and  C24_33 
REMARK   19  A    between atoms: C20_29  and  N6_40 
REMARK   20  A    between atoms: C21_30  and  C22_31 
REMARK   21  A    between atoms: C22_31  and  C23_32 
REMARK   22  A    between atoms: C23_32  and  O8_43 
REMARK   23  A    between atoms: C24_33  and  C25_34 
REMARK   24  A    between atoms: C28_38  and  O6_39 
REMARK   25  A    between atoms: C29_42  and  O8_43 
REMARK   26  A    between atoms: C29_42  and  C35_49 
ROOT
ATOM      1  C14 non d ame     -36.097  13.057  26.303  0.00  0.00     0.089 C 
ATOM      2  H20 non d ame     -36.780  12.943  27.145  0.00  0.00     0.087 H 
ENDROOT
BRANCH   1   3
ATOM      3  N4  non d ame     -35.824  14.478  26.149  0.00  0.00    -0.346 N 
ATOM      4  C10 non d ame     -36.865  15.499  26.528  0.00  0.00     0.241 C 
ATOM      5  O4  non d ame     -37.918  15.154  26.954  0.00  0.00    -0.271 OA
ATOM      6  H19 non d ame     -34.923  14.751  25.782  0.00  0.00     0.163 HD
BRANCH   4   7
ATOM      7  C9  non d ame     -36.564  16.967  26.367  0.00  0.00     0.092 C 
ATOM      8  H11 non d ame     -36.914  17.504  27.248  0.00  0.00     0.088 H 
BRANCH   7   9
ATOM      9  N3  non d ame     -35.113  17.162  26.288  0.00  0.00    -0.346 N 
ATOM     10  C7  non d ame     -34.368  17.509  27.473  0.00  0.00     0.240 C 
ATOM     11  O3  non d ame     -34.919  17.634  28.498  0.00  0.00    -0.271 OA
ATOM     12  H10 non d ame     -34.625  17.059  25.410  0.00  0.00     0.163 HD
BRANCH  10  13
ATOM     13  C6  non d ame     -32.824  17.719  27.382  0.00  0.00     0.086 C 
ATOM     14  H6  non d ame     -32.272  17.101  28.090  0.00  0.00     0.086 H 
BRANCH  13  15
ATOM     15  N2  non d ame     -32.373  17.334  26.055  0.00  0.00    -0.343 N 
ATOM     16  C5  non d ame     -31.760  16.019  25.855  0.00  0.00     0.273 C 
ATOM     17  O2  non d ame     -31.632  15.279  26.767  0.00  0.00    -0.266 OA
ATOM     18  H5  non d ame     -32.483  17.974  25.282  0.00  0.00     0.163 HD
BRANCH  16  19
ATOM     19  C4  non d ame     -31.279  15.599  24.457  0.00  0.00     0.154 A 
ATOM     20  C1  non d ame     -30.515  14.438  24.118  0.00  0.00    -0.017 A 
ATOM     21  C2  non d ame     -30.337  14.516  22.719  0.00  0.00     0.077 A 
ATOM     22  H1  non d ame     -30.146  13.659  24.785  0.00  0.00     0.091 H 
ATOM     23  O1  non d ame     -30.934  15.597  22.311  0.00  0.00    -0.218 OA
ATOM     24  N1  non d ame     -31.492  16.246  23.308  0.00  0.00    -0.123 NA
BRANCH  21  25
ATOM     25  C3  non d ame     -29.587  13.517  21.848  0.00  0.00    -0.029 C 
ATOM     26  H2  non d ame     -30.098  13.412  20.892  0.00  0.00     0.036 H 
ATOM     27  H3  non d ame     -28.571  13.875  21.677  0.00  0.00     0.036 H 
ATOM     28  H4  non d ame     -29.552  12.551  22.350  0.00  0.00     0.036 H 
ENDBRANCH  21  25
ENDBRANCH  16  19
ENDBRANCH  13  15
BRANCH  13  29
ATOM     29  C8  non d ame     -32.496  19.167  27.640  0.00  0.00    -0.049 C 
ATOM     30  H7  non d ame     -33.038  19.795  26.935  0.00  0.00     0.030 H 
ATOM     31  H8  non d ame     -32.786  19.430  28.657  0.00  0.00     0.030 H 
ATOM     32  H9  non d ame     -31.423  19.324  27.516  0.00  0.00     0.030 H 
ENDBRANCH  13  29
ENDBRANCH  10  13
ENDBRANCH   7   9
BRANCH   7  33
ATOM     33  C11 non d ame     -37.227  17.490  25.059  0.00  0.00    -0.033 C 
ATOM     34  H12 non d ame     -36.531  18.189  24.595  0.00  0.00     0.042 H 
BRANCH  33  35
ATOM     35  C12 non d ame     -37.474  16.331  24.044  0.00  0.00    -0.071 C 
ATOM     36  H13 non d ame     -37.474  15.378  24.574  0.00  0.00     0.028 H 
ATOM     37  H14 non d ame     -38.436  16.474  23.554  0.00  0.00     0.028 H 
ATOM     38  H15 non d ame     -36.681  16.328  23.296  0.00  0.00     0.028 H 
ENDBRANCH  33  35
BRANCH  33  39
ATOM     39  C13 non d ame     -38.549  18.261  25.372  0.00  0.00    -0.071 C 
ATOM     40  H16 non d ame     -38.627  19.130  24.718  0.00  0.00     0.028 H 
ATOM     41  H17 non d ame     -39.402  17.603  25.205  0.00  0.00     0.028 H 
ATOM     42  H18 non d ame     -38.542  18.588  26.411  0.00  0.00     0.028 H 
ENDBRANCH  33  39
ENDBRANCH   7  33
ENDBRANCH   4   7
ENDBRANCH   1   3
BRANCH   1  43
ATOM     43  C15 non d ame     -34.748  12.316  26.537  0.00  0.00     0.240 C 
ATOM     44  O5  non d ame     -33.743  12.764  26.088  0.00  0.00    -0.271 OA
ATOM     45  N6  non d ame     -34.709  11.054  27.329  0.00  0.00    -0.355 N 
ATOM     46  H46 non d ame     -35.557  10.667  27.719  0.00  0.00     0.162 HD
BRANCH  45  47
ATOM     47  C20 non d ame     -33.420  10.363  27.543  0.00  0.00     0.013 C 
ATOM     48  H30 non d ame     -32.658  10.890  26.968  0.00  0.00     0.072 H 
BRANCH  47  49
ATOM     49  C21 non d ame     -33.533   8.933  27.063  0.00  0.00    -0.038 C 
ATOM     50  H31 non d ame     -32.902   8.870  26.176  0.00  0.00     0.036 H 
ATOM     51  H32 non d ame     -33.314   8.313  27.933  0.00  0.00     0.036 H 
BRANCH  49  52
ATOM     52  C22 non d ame     -34.963   8.564  26.611  0.00  0.00     0.018 C 
ATOM     53  H33 non d ame     -35.126   7.544  26.956  0.00  0.00     0.048 H 
ATOM     54  H34 non d ame     -35.602   9.371  26.970  0.00  0.00     0.048 H 
BRANCH  52  55
ATOM     55  C23 non d ame     -35.142   8.529  25.068  0.00  0.00     0.259 C 
ATOM     56  O7  non d ame     -36.096   9.024  24.561  0.00  0.00    -0.265 OA
BRANCH  55  57
ATOM     57  O8  non d ame     -34.158   7.885  24.267  0.00  0.00    -0.317 OA
BRANCH  57  58
ATOM     58  C29 non d ame     -33.947   8.505  22.995  0.00  0.00     0.052 C 
ATOM     59  H47 non d ame     -34.055   7.709  22.258  0.00  0.00     0.082 H 
ATOM     60  H48 non d ame     -34.614   9.365  22.971  0.00  0.00     0.082 H 
BRANCH  58  61
ATOM     61  C35 non d ame     -32.483   9.019  22.951  0.00  0.00    -0.034 A 
ATOM     62  C30 non d ame     -32.091  10.072  23.772  0.00  0.00    -0.075 A 
ATOM     63  C31 non d ame     -30.776  10.535  23.733  0.00  0.00    -0.082 A 
ATOM     64  H49 non d ame     -32.812  10.536  24.445  0.00  0.00     0.084 H 
ATOM     65  C32 non d ame     -29.852   9.942  22.868  0.00  0.00    -0.083 A 
ATOM     66  H50 non d ame     -30.470  11.359  24.379  0.00  0.00     0.083 H 
ATOM     67  C33 non d ame     -30.250   8.894  22.048  0.00  0.00    -0.082 A 
ATOM     68  H51 non d ame     -28.822  10.297  22.832  0.00  0.00     0.083 H 
ATOM     69  C34 non d ame     -31.562   8.427  22.085  0.00  0.00    -0.075 A 
ATOM     70  H52 non d ame     -29.527   8.434  21.372  0.00  0.00     0.083 H 
ATOM     71  H53 non d ame     -31.866   7.603  21.440  0.00  0.00     0.084 H 
ENDBRANCH  58  61
ENDBRANCH  57  58
ENDBRANCH  55  57
ENDBRANCH  52  55
ENDBRANCH  49  52
ENDBRANCH  47  49
BRANCH  47  72
ATOM     72  C24 non d ame     -33.067  10.377  29.028  0.00  0.00    -0.039 C 
ATOM     73  H35 non d ame     -33.983  10.090  29.546  0.00  0.00     0.036 H 
ATOM     74  H36 non d ame     -32.173   9.759  29.120  0.00  0.00     0.036 H 
BRANCH  72  75
ATOM     75  C25 non d ame     -32.680  11.847  29.532  0.00  0.00    -0.001 C 
ATOM     76  C26 non d ame     -31.326  12.366  28.758  0.00  0.00    -0.035 C 
ATOM     77  C27 non d ame     -30.433  12.798  29.680  0.00  0.00     0.085 C 
ATOM     78  H38 non d ame     -30.818  11.524  28.287  0.00  0.00     0.036 H 
ATOM     79  H39 non d ame     -31.546  13.262  28.178  0.00  0.00     0.036 H 
ATOM     80  N5  non d ame     -30.923  12.318  31.026  0.00  0.00    -0.049 N 
ATOM     81  H40 non d ame     -29.498  12.291  29.440  0.00  0.00     0.075 H 
ATOM     82  H41 non d ame     -30.486  13.885  29.650  0.00  0.00     0.075 H 
ATOM     83  C28 non d ame     -32.455  11.861  30.804  0.00  0.00     0.193 C 
ATOM     84  H42 non d ame     -30.374  11.503  31.256  0.00  0.00     0.280 HD
ATOM     85  H43 non d ame     -30.912  13.123  31.636  0.00  0.00     0.280 HD
ATOM     86  H44 non d ame     -33.276  12.494  31.143  0.00  0.00     0.129 H 
ATOM     87  H37 non d ame     -33.537  12.520  29.537  0.00  0.00     0.046 H 
BRANCH  83  88
ATOM     88  O6  non d ame     -32.681  10.585  31.405  0.00  0.00    -0.369 OA
ATOM     89  H45 non d ame     -33.511  10.223  31.085  0.00  0.00     0.212 HD
ENDBRANCH  83  88
ENDBRANCH  72  75
ENDBRANCH  47  72
ENDBRANCH  45  47
ENDBRANCH   1  43
BRANCH   1  90
ATOM     90  C16 non d ame     -36.752  12.536  25.034  0.00  0.00    -0.035 C 
ATOM     91  H21 non d ame     -36.984  13.422  24.445  0.00  0.00     0.037 H 
ATOM     92  H22 non d ame     -36.067  11.784  24.643  0.00  0.00     0.037 H 
BRANCH  90  93
ATOM     93  C17 non d ame     -38.111  11.807  25.286  0.00  0.00    -0.059 C 
ATOM     94  H23 non d ame     -38.027  10.801  24.873  0.00  0.00     0.038 H 
BRANCH  93  95
ATOM     95  C18 non d ame     -38.434  11.672  26.808  0.00  0.00    -0.073 C 
ATOM     96  H24 non d ame     -37.699  11.020  27.280  0.00  0.00     0.028 H 
ATOM     97  H25 non d ame     -38.399  12.655  27.275  0.00  0.00     0.028 H 
ATOM     98  H26 non d ame     -39.430  11.245  26.931  0.00  0.00     0.028 H 
ENDBRANCH  93  95
BRANCH  93  99
ATOM     99  C19 non d ame     -39.254  12.508  24.547  0.00  0.00    -0.073 C 
ATOM    100  H27 non d ame     -40.209  12.159  24.940  0.00  0.00     0.028 H 
ATOM    101  H28 non d ame     -39.174  13.586  24.692  0.00  0.00     0.028 H 
ATOM    102  H29 non d ame     -39.193  12.280  23.483  0.00  0.00     0.028 H 
ENDBRANCH  93  99
ENDBRANCH  90  93
ENDBRANCH   1  90
TORSDOF 26
ENDMDL
MODEL 6
REMARK VINA RESULT:      -6.8      3.064      8.584
REMARK  26 active torsions:
REMARK  status: ('A' for Active; 'I' for Inactive)
REMARK    1  A    between atoms: C2_2  and  C3_3 
REMARK    2  A    between atoms: C4_6  and  C5_7 
REMARK       I    between atoms: C5_7  and  N2_9 
REMARK    3  A    between atoms: N2_9  and  C6_10 
REMARK    4  A    between atoms: C6_10  and  C7_11 
REMARK    5  A    between atoms: C6_10  and  C8_13 
REMARK       I    between atoms: C7_11  and  N3_14 
REMARK    6  A    between atoms: N3_14  and  C9_15 
REMARK    7  A    between atoms: C9_15  and  C10_16 
REMARK    8  A    between atoms: C9_15  and  C11_18 
REMARK       I    between atoms: C10_16  and  N4_21 
REMARK    9  A    between atoms: C11_18  and  C12_19 
REMARK   10  A    between atoms: C11_18  and  C13_20 
REMARK   11  A    between atoms: N4_21  and  C14_22 
REMARK   12  A    between atoms: C14_22  and  C15_23 
REMARK   13  A    between atoms: C14_22  and  C16_25 
REMARK       I    between atoms: C15_23  and  N6_40 
REMARK   14  A    between atoms: C16_25  and  C17_26 
REMARK   15  A    between atoms: C17_26  and  C18_27 
REMARK   16  A    between atoms: C17_26  and  C19_28 
REMARK   17  A    between atoms: C20_29  and  C21_30 
REMARK   18  A    between atoms: C20_29  and  C24_33 
REMARK   19  A    between atoms: C20_29  and  N6_40 
REMARK   20  A    between atoms: C21_30  and  C22_31 
REMARK   21  A    between atoms: C22_31  and  C23_32 
REMARK   22  A    between atoms: C23_32  and  O8_43 
REMARK   23  A    between atoms: C24_33  and  C25_34 
REMARK   24  A    between atoms: C28_38  and  O6_39 
REMARK   25  A    between atoms: C29_42  and  O8_43 
REMARK   26  A    between atoms: C29_42  and  C35_49 
ROOT
ATOM      1  C14 non d ame     -32.998  10.799  25.309  0.00  0.00     0.089 C 
ATOM      2  H20 non d ame     -33.686  10.307  24.621  0.00  0.00     0.087 H 
ENDROOT
BRANCH   1   3
ATOM      3  N4  non d ame     -33.474  12.160  25.506  0.00  0.00    -0.346 N 
ATOM      4  C10 non d ame     -34.818  12.412  26.140  0.00  0.00     0.241 C 
ATOM      5  O4  non d ame     -35.501  11.504  26.482  0.00  0.00    -0.271 OA
ATOM      6  H19 non d ame     -32.879  12.919  25.206  0.00  0.00     0.163 HD
BRANCH   4   7
ATOM      7  C9  non d ame     -35.294  13.827  26.341  0.00  0.00     0.092 C 
ATOM      8  H11 non d ame     -35.573  13.967  27.385  0.00  0.00     0.088 H 
BRANCH   7   9
ATOM      9  N3  non d ame     -34.196  14.757  26.058  0.00  0.00    -0.346 N 
ATOM     10  C7  non d ame     -33.480  15.379  27.144  0.00  0.00     0.240 C 
ATOM     11  O3  non d ame     -33.774  15.143  28.253  0.00  0.00    -0.271 OA
ATOM     12  H10 non d ame     -33.932  14.971  25.107  0.00  0.00     0.163 HD
BRANCH  10  13
ATOM     13  C6  non d ame     -32.315  16.370  26.837  0.00  0.00     0.086 C 
ATOM     14  H6  non d ame     -31.421  16.166  27.426  0.00  0.00     0.086 H 
BRANCH  13  15
ATOM     15  N2  non d ame     -31.933  16.231  25.442  0.00  0.00    -0.343 N 
ATOM     16  C5  non d ame     -31.238  15.020  25.001  0.00  0.00     0.273 C 
ATOM     17  O2  non d ame     -30.987  14.164  25.777  0.00  0.00    -0.266 OA
ATOM     18  H5  non d ame     -32.148  16.968  24.786  0.00  0.00     0.163 HD
BRANCH  16  19
ATOM     19  C4  non d ame     -30.829  14.860  23.528  0.00  0.00     0.154 A 
ATOM     20  C1  non d ame     -31.157  15.729  22.440  0.00  0.00    -0.017 A 
ATOM     21  C2  non d ame     -30.547  15.142  21.309  0.00  0.00     0.077 A 
ATOM     22  H1  non d ame     -31.747  16.646  22.467  0.00  0.00     0.091 H 
ATOM     23  O1  non d ame     -29.942  14.064  21.711  0.00  0.00    -0.218 OA
ATOM     24  N1  non d ame     -30.092  13.878  23.002  0.00  0.00    -0.123 NA
BRANCH  21  25
ATOM     25  C3  non d ame     -30.590  15.675  19.883  0.00  0.00    -0.029 C 
ATOM     26  H2  non d ame     -31.302  16.497  19.824  0.00  0.00     0.036 H 
ATOM     27  H3  non d ame     -29.600  16.033  19.599  0.00  0.00     0.036 H 
ATOM     28  H4  non d ame     -30.896  14.879  19.206  0.00  0.00     0.036 H 
ENDBRANCH  21  25
ENDBRANCH  16  19
ENDBRANCH  13  15
BRANCH  13  29
ATOM     29  C8  non d ame     -32.766  17.781  27.111  0.00  0.00    -0.049 C 
ATOM     30  H7  non d ame     -32.139  18.479  26.557  0.00  0.00     0.030 H 
ATOM     31  H8  non d ame     -33.804  17.899  26.798  0.00  0.00     0.030 H 
ATOM     32  H9  non d ame     -32.683  17.989  28.179  0.00  0.00     0.030 H 
ENDBRANCH  13  29
ENDBRANCH  10  13
ENDBRANCH   7   9
BRANCH   7  33
ATOM     33  C11 non d ame     -36.478  14.118  25.373  0.00  0.00    -0.033 C 
ATOM     34  H12 non d ame     -36.485  13.334  24.616  0.00  0.00     0.042 H 
BRANCH  33  35
ATOM     35  C12 non d ame     -37.848  14.061  26.120  0.00  0.00    -0.071 C 
ATOM     36  H13 non d ame     -37.990  14.978  26.691  0.00  0.00     0.028 H 
ATOM     37  H14 non d ame     -38.654  13.956  25.394  0.00  0.00     0.028 H 
ATOM     38  H15 non d ame     -37.856  13.208  26.798  0.00  0.00     0.028 H 
ENDBRANCH  33  35
BRANCH  33  39
ATOM     39  C13 non d ame     -36.285  15.488  24.649  0.00  0.00    -0.071 C 
ATOM     40  H16 non d ame     -35.599  15.363  23.811  0.00  0.00     0.028 H 
ATOM     41  H17 non d ame     -37.248  15.845  24.281  0.00  0.00     0.028 H 
ATOM     42  H18 non d ame     -35.874  16.215  25.349  0.00  0.00     0.028 H 
ENDBRANCH  33  39
ENDBRANCH   7  33
ENDBRANCH   4   7
ENDBRANCH   1   3
BRANCH   1  43
ATOM     43  C15 non d ame     -32.942  10.088  26.692  0.00  0.00     0.240 C 
ATOM     44  O5  non d ame     -32.136  10.425  27.497  0.00  0.00    -0.271 OA
ATOM     45  N6  non d ame     -33.901   8.994  27.016  0.00  0.00    -0.355 N 
ATOM     46  H46 non d ame     -34.594   8.702  26.341  0.00  0.00     0.162 HD
BRANCH  45  47
ATOM     47  C20 non d ame     -33.835   8.329  28.336  0.00  0.00     0.013 C 
ATOM     48  H30 non d ame     -32.825   8.458  28.725  0.00  0.00     0.072 H 
BRANCH  47  49
ATOM     49  C21 non d ame     -34.143   6.858  28.171  0.00  0.00    -0.038 C 
ATOM     50  H31 non d ame     -33.213   6.335  28.399  0.00  0.00     0.036 H 
ATOM     51  H32 non d ame     -35.033   6.675  28.772  0.00  0.00     0.036 H 
BRANCH  49  52
ATOM     52  C22 non d ame     -34.511   6.482  26.719  0.00  0.00     0.018 C 
ATOM     53  H33 non d ame     -35.186   7.264  26.374  0.00  0.00     0.048 H 
ATOM     54  H34 non d ame     -33.562   6.315  26.208  0.00  0.00     0.048 H 
BRANCH  52  55
ATOM     55  C23 non d ame     -35.302   5.150  26.599  0.00  0.00     0.259 C 
ATOM     56  O7  non d ame     -34.734   4.130  26.372  0.00  0.00    -0.265 OA
BRANCH  55  57
ATOM     57  O8  non d ame     -36.716   5.163  26.750  0.00  0.00    -0.317 OA
BRANCH  57  58
ATOM     58  C29 non d ame     -37.178   4.576  27.970  0.00  0.00     0.052 C 
ATOM     59  H47 non d ame     -38.070   4.009  27.706  0.00  0.00     0.082 H 
ATOM     60  H48 non d ame     -36.315   4.067  28.398  0.00  0.00     0.082 H 
BRANCH  58  61
ATOM     61  C35 non d ame     -37.592   5.726  28.927  0.00  0.00    -0.034 A 
ATOM     62  C30 non d ame     -37.432   5.579  30.302  0.00  0.00    -0.075 A 
ATOM     63  C31 non d ame     -37.804   6.612  31.161  0.00  0.00    -0.082 A 
ATOM     64  H49 non d ame     -37.016   4.656  30.705  0.00  0.00     0.084 H 
ATOM     65  C32 non d ame     -38.340   7.794  30.642  0.00  0.00    -0.083 A 
ATOM     66  H50 non d ame     -37.676   6.495  32.238  0.00  0.00     0.083 H 
ATOM     67  C33 non d ame     -38.501   7.933  29.271  0.00  0.00    -0.082 A 
ATOM     68  H51 non d ame     -38.633   8.606  31.308  0.00  0.00     0.083 H 
ATOM     69  C34 non d ame     -38.129   6.905  28.408  0.00  0.00    -0.075 A 
ATOM     70  H52 non d ame     -38.922   8.856  28.869  0.00  0.00     0.083 H 
ATOM     71  H53 non d ame     -38.257   7.023  27.331  0.00  0.00     0.084 H 
ENDBRANCH  58  61
ENDBRANCH  57  58
ENDBRANCH  55  57
ENDBRANCH  52  55
ENDBRANCH  49  52
ENDBRANCH  47  49
BRANCH  47  72
ATOM     72  C24 non d ame     -34.853   8.961  29.283  0.00  0.00    -0.039 C 
ATOM     73  H35 non d ame     -35.196   9.865  28.778  0.00  0.00     0.036 H 
ATOM     74  H36 non d ame     -35.561   8.167  29.519  0.00  0.00     0.036 H 
BRANCH  72  75
ATOM     75  C25 non d ame     -34.177   9.416  30.662  0.00  0.00    -0.001 C 
ATOM     76  C26 non d ame     -35.144   8.999  31.924  0.00  0.00    -0.035 C 
ATOM     77  C27 non d ame     -35.335  10.088  32.706  0.00  0.00     0.085 C 
ATOM     78  H38 non d ame     -36.146   8.763  31.566  0.00  0.00     0.036 H 
ATOM     79  H39 non d ame     -34.622   8.302  32.581  0.00  0.00     0.036 H 
ATOM     80  N5  non d ame     -34.858  11.286  31.919  0.00  0.00    -0.049 N 
ATOM     81  H40 non d ame     -36.414  10.160  32.846  0.00  0.00     0.075 H 
ATOM     82  H41 non d ame     -34.683   9.947  33.567  0.00  0.00     0.075 H 
ATOM     83  C28 non d ame     -33.993  10.694  30.692  0.00  0.00     0.193 C 
ATOM     84  H42 non d ame     -35.684  11.730  31.546  0.00  0.00     0.280 HD
ATOM     85  H43 non d ame     -34.240  11.800  32.531  0.00  0.00     0.280 HD
ATOM     86  H44 non d ame     -32.904  10.737  30.712  0.00  0.00     0.129 H 
ATOM     87  H37 non d ame     -33.128   9.126  30.723  0.00  0.00     0.046 H 
BRANCH  83  88
ATOM     88  O6  non d ame     -34.378  11.324  29.468  0.00  0.00    -0.369 OA
ATOM     89  H45 non d ame     -33.970  10.865  28.730  0.00  0.00     0.212 HD
ENDBRANCH  83  88
ENDBRANCH  72  75
ENDBRANCH  47  72
ENDBRANCH  45  47
ENDBRANCH   1  43
BRANCH   1  90
ATOM     90  C16 non d ame     -31.606  10.842  24.700  0.00  0.00    -0.035 C 
ATOM     91  H21 non d ame     -31.410  11.895  24.503  0.00  0.00     0.037 H 
ATOM     92  H22 non d ame     -30.971  10.289  25.393  0.00  0.00     0.037 H 
BRANCH  90  93
ATOM     93  C17 non d ame     -31.501  10.110  23.324  0.00  0.00    -0.059 C 
ATOM     94  H23 non d ame     -32.224  10.569  22.650  0.00  0.00     0.038 H 
BRANCH  93  95
ATOM     95  C18 non d ame     -30.086  10.264  22.681  0.00  0.00    -0.073 C 
ATOM     96  H24 non d ame     -29.645  11.211  22.992  0.00  0.00     0.028 H 
ATOM     97  H25 non d ame     -29.447   9.443  23.007  0.00  0.00     0.028 H 
ATOM     98  H26 non d ame     -30.177  10.244  21.595  0.00  0.00     0.028 H 
ENDBRANCH  93  95
BRANCH  93  99
ATOM     99  C19 non d ame     -31.879   8.633  23.461  0.00  0.00    -0.073 C 
ATOM    100  H27 non d ame     -31.282   8.177  24.252  0.00  0.00     0.028 H 
ATOM    101  H28 non d ame     -32.937   8.549  23.711  0.00  0.00     0.028 H 
ATOM    102  H29 non d ame     -31.687   8.120  22.519  0.00  0.00     0.028 H 
ENDBRANCH  93  99
ENDBRANCH  90  93
ENDBRANCH   1  90
TORSDOF 26
ENDMDL
MODEL 7
REMARK VINA RESULT:      -6.7      3.362      7.185
REMARK  26 active torsions:
REMARK  status: ('A' for Active; 'I' for Inactive)
REMARK    1  A    between atoms: C2_2  and  C3_3 
REMARK    2  A    between atoms: C4_6  and  C5_7 
REMARK       I    between atoms: C5_7  and  N2_9 
REMARK    3  A    between atoms: N2_9  and  C6_10 
REMARK    4  A    between atoms: C6_10  and  C7_11 
REMARK    5  A    between atoms: C6_10  and  C8_13 
REMARK       I    between atoms: C7_11  and  N3_14 
REMARK    6  A    between atoms: N3_14  and  C9_15 
REMARK    7  A    between atoms: C9_15  and  C10_16 
REMARK    8  A    between atoms: C9_15  and  C11_18 
REMARK       I    between atoms: C10_16  and  N4_21 
REMARK    9  A    between atoms: C11_18  and  C12_19 
REMARK   10  A    between atoms: C11_18  and  C13_20 
REMARK   11  A    between atoms: N4_21  and  C14_22 
REMARK   12  A    between atoms: C14_22  and  C15_23 
REMARK   13  A    between atoms: C14_22  and  C16_25 
REMARK       I    between atoms: C15_23  and  N6_40 
REMARK   14  A    between atoms: C16_25  and  C17_26 
REMARK   15  A    between atoms: C17_26  and  C18_27 
REMARK   16  A    between atoms: C17_26  and  C19_28 
REMARK   17  A    between atoms: C20_29  and  C21_30 
REMARK   18  A    between atoms: C20_29  and  C24_33 
REMARK   19  A    between atoms: C20_29  and  N6_40 
REMARK   20  A    between atoms: C21_30  and  C22_31 
REMARK   21  A    between atoms: C22_31  and  C23_32 
REMARK   22  A    between atoms: C23_32  and  O8_43 
REMARK   23  A    between atoms: C24_33  and  C25_34 
REMARK   24  A    between atoms: C28_38  and  O6_39 
REMARK   25  A    between atoms: C29_42  and  O8_43 
REMARK   26  A    between atoms: C29_42  and  C35_49 
ROOT
ATOM      1  C14 non d ame     -30.926  13.650  24.581  0.00  0.00     0.089 C 
ATOM      2  H20 non d ame     -29.886  13.343  24.467  0.00  0.00     0.087 H 
ENDROOT
BRANCH   1   3
ATOM      3  N4  non d ame     -31.755  12.469  24.391  0.00  0.00    -0.346 N 
ATOM      4  C10 non d ame     -31.564  11.256  25.264  0.00  0.00     0.241 C 
ATOM      5  O4  non d ame     -30.736  11.251  26.114  0.00  0.00    -0.271 OA
ATOM      6  H19 non d ame     -32.453  12.492  23.661  0.00  0.00     0.163 HD
BRANCH   4   7
ATOM      7  C9  non d ame     -32.434  10.043  25.056  0.00  0.00     0.092 C 
ATOM      8  H11 non d ame     -33.163  10.255  24.275  0.00  0.00     0.088 H 
BRANCH   7   9
ATOM      9  N3  non d ame     -31.610   8.924  24.589  0.00  0.00    -0.346 N 
ATOM     10  C7  non d ame     -30.962   8.995  23.303  0.00  0.00     0.240 C 
ATOM     11  O3  non d ame     -31.093   9.944  22.631  0.00  0.00    -0.271 OA
ATOM     12  H10 non d ame     -31.490   8.099  25.158  0.00  0.00     0.163 HD
BRANCH  10  13
ATOM     13  C6  non d ame     -30.089   7.800  22.810  0.00  0.00     0.086 C 
ATOM     14  H6  non d ame     -29.897   7.066  23.593  0.00  0.00     0.086 H 
BRANCH  13  15
ATOM     15  N2  non d ame     -30.799   7.101  21.752  0.00  0.00    -0.343 N 
ATOM     16  C5  non d ame     -31.800   6.091  22.099  0.00  0.00     0.273 C 
ATOM     17  O2  non d ame     -32.025   5.844  23.233  0.00  0.00    -0.266 OA
ATOM     18  H5  non d ame     -30.599   7.316  20.785  0.00  0.00     0.163 HD
BRANCH  16  19
ATOM     19  C4  non d ame     -32.559   5.345  20.990  0.00  0.00     0.154 A 
ATOM     20  C1  non d ame     -32.173   4.128  20.346  0.00  0.00    -0.017 A 
ATOM     21  C2  non d ame     -33.200   3.869  19.412  0.00  0.00     0.077 A 
ATOM     22  H1  non d ame     -31.283   3.524  20.528  0.00  0.00     0.091 H 
ATOM     23  O1  non d ame     -34.070   4.830  19.516  0.00  0.00    -0.218 OA
ATOM     24  N1  non d ame     -33.718   5.704  20.431  0.00  0.00    -0.123 NA
BRANCH  21  25
ATOM     25  C3  non d ame     -33.276   2.683  18.460  0.00  0.00    -0.029 C 
ATOM     26  H2  non d ame     -32.544   1.932  18.756  0.00  0.00     0.036 H 
ATOM     27  H3  non d ame     -34.275   2.249  18.498  0.00  0.00     0.036 H 
ATOM     28  H4  non d ame     -33.064   3.017  17.444  0.00  0.00     0.036 H 
ENDBRANCH  21  25
ENDBRANCH  16  19
ENDBRANCH  13  15
BRANCH  13  29
ATOM     29  C8  non d ame     -28.770   8.316  22.294  0.00  0.00    -0.049 C 
ATOM     30  H7  non d ame     -28.947   9.144  21.608  0.00  0.00     0.030 H 
ATOM     31  H8  non d ame     -28.163   8.662  23.130  0.00  0.00     0.030 H 
ATOM     32  H9  non d ame     -28.246   7.516  21.770  0.00  0.00     0.030 H 
ENDBRANCH  13  29
ENDBRANCH  10  13
ENDBRANCH   7   9
BRANCH   7  33
ATOM     33  C11 non d ame     -33.114   9.656  26.403  0.00  0.00    -0.033 C 
ATOM     34  H12 non d ame     -32.850  10.419  27.136  0.00  0.00     0.042 H 
BRANCH  33  35
ATOM     35  C12 non d ame     -34.669   9.650  26.273  0.00  0.00    -0.071 C 
ATOM     36  H13 non d ame     -35.117   9.675  27.266  0.00  0.00     0.028 H 
ATOM     37  H14 non d ame     -34.990  10.524  25.708  0.00  0.00     0.028 H 
ATOM     38  H15 non d ame     -34.987   8.745  25.755  0.00  0.00     0.028 H 
ENDBRANCH  33  35
BRANCH  33  39
ATOM     39  C13 non d ame     -32.583   8.282  26.923  0.00  0.00    -0.071 C 
ATOM     40  H16 non d ame     -33.147   7.986  27.807  0.00  0.00     0.028 H 
ATOM     41  H17 non d ame     -32.702   7.528  26.144  0.00  0.00     0.028 H 
ATOM     42  H18 non d ame     -31.528   8.374  27.179  0.00  0.00     0.028 H 
ENDBRANCH  33  39
ENDBRANCH   7  33
ENDBRANCH   4   7
ENDBRANCH   1   3
BRANCH   1  43
ATOM     43  C15 non d ame     -31.213  14.234  25.995  0.00  0.00     0.240 C 
ATOM     44  O5  non d ame     -30.333  14.317  26.789  0.00  0.00    -0.271 OA
ATOM     45  N6  non d ame     -32.583  14.698  26.355  0.00  0.00    -0.355 N 
ATOM     46  H46 non d ame     -33.338  14.637  25.686  0.00  0.00     0.162 HD
BRANCH  45  47
ATOM     47  C20 non d ame     -32.839  15.251  27.702  0.00  0.00     0.013 C 
ATOM     48  H30 non d ame     -31.876  15.415  28.185  0.00  0.00     0.072 H 
BRANCH  47  49
ATOM     49  C21 non d ame     -33.658  14.263  28.501  0.00  0.00    -0.038 C 
ATOM     50  H31 non d ame     -33.504  14.531  29.547  0.00  0.00     0.036 H 
ATOM     51  H32 non d ame     -34.660  14.296  28.072  0.00  0.00     0.036 H 
BRANCH  49  52
ATOM     52  C22 non d ame     -33.163  12.809  28.344  0.00  0.00     0.018 C 
ATOM     53  H33 non d ame     -34.044  12.182  28.477  0.00  0.00     0.048 H 
ATOM     54  H34 non d ame     -32.613  12.785  27.403  0.00  0.00     0.048 H 
BRANCH  52  55
ATOM     55  C23 non d ame     -32.154  12.369  29.441  0.00  0.00     0.259 C 
ATOM     56  O7  non d ame     -31.176  13.010  29.652  0.00  0.00    -0.265 OA
BRANCH  55  57
ATOM     57  O8  non d ame     -32.406  11.182  30.183  0.00  0.00    -0.317 OA
BRANCH  57  58
ATOM     58  C29 non d ame     -33.352  11.347  31.244  0.00  0.00     0.052 C 
ATOM     59  H47 non d ame     -32.789  11.207  32.166  0.00  0.00     0.082 H 
ATOM     60  H48 non d ame     -33.853  12.294  31.048  0.00  0.00     0.082 H 
BRANCH  58  61
ATOM     61  C35 non d ame     -34.400  10.207  31.131  0.00  0.00    -0.034 A 
ATOM     62  C30 non d ame     -34.325   9.294  30.083  0.00  0.00    -0.075 A 
ATOM     63  C31 non d ame     -35.267   8.271  29.982  0.00  0.00    -0.082 A 
ATOM     64  H49 non d ame     -33.531   9.380  29.342  0.00  0.00     0.084 H 
ATOM     65  C32 non d ame     -36.286   8.163  30.932  0.00  0.00    -0.083 A 
ATOM     66  H50 non d ame     -35.205   7.555  29.161  0.00  0.00     0.083 H 
ATOM     67  C33 non d ame     -36.358   9.079  31.972  0.00  0.00    -0.082 A 
ATOM     68  H51 non d ame     -37.026   7.365  30.860  0.00  0.00     0.083 H 
ATOM     69  C34 non d ame     -35.419  10.102  32.079  0.00  0.00    -0.075 A 
ATOM     70  H52 non d ame     -37.157   8.994  32.711  0.00  0.00     0.083 H 
ATOM     71  H53 non d ame     -35.481  10.816  32.900  0.00  0.00     0.084 H 
ENDBRANCH  58  61
ENDBRANCH  57  58
ENDBRANCH  55  57
ENDBRANCH  52  55
ENDBRANCH  49  52
ENDBRANCH  47  49
BRANCH  47  72
ATOM     72  C24 non d ame     -33.602  16.569  27.583  0.00  0.00    -0.039 C 
ATOM     73  H35 non d ame     -34.393  16.380  26.856  0.00  0.00     0.036 H 
ATOM     74  H36 non d ame     -33.857  16.850  28.604  0.00  0.00     0.036 H 
BRANCH  72  75
ATOM     75  C25 non d ame     -32.681  17.736  26.986  0.00  0.00    -0.001 C 
ATOM     76  C26 non d ame     -32.714  19.041  27.985  0.00  0.00    -0.035 C 
ATOM     77  C27 non d ame     -33.013  20.143  27.255  0.00  0.00     0.085 C 
ATOM     78  H38 non d ame     -33.551  18.960  28.679  0.00  0.00     0.036 H 
ATOM     79  H39 non d ame     -31.712  19.249  28.362  0.00  0.00     0.036 H 
ATOM     80  N5  non d ame     -33.508  19.660  25.912  0.00  0.00    -0.049 N 
ATOM     81  H40 non d ame     -33.833  20.628  27.784  0.00  0.00     0.075 H 
ATOM     82  H41 non d ame     -32.067  20.666  27.119  0.00  0.00     0.075 H 
ATOM     83  C28 non d ame     -33.091  18.104  25.818  0.00  0.00     0.193 C 
ATOM     84  H42 non d ame     -34.515  19.723  25.940  0.00  0.00     0.280 HD
ATOM     85  H43 non d ame     -32.988  20.176  25.216  0.00  0.00     0.280 HD
ATOM     86  H44 non d ame     -32.245  17.794  25.205  0.00  0.00     0.129 H 
ATOM     87  H37 non d ame     -31.701  17.371  26.678  0.00  0.00     0.046 H 
BRANCH  83  88
ATOM     88  O6  non d ame     -34.199  17.324  25.365  0.00  0.00    -0.369 OA
ATOM     89  H45 non d ame     -34.512  17.669  24.525  0.00  0.00     0.212 HD
ENDBRANCH  83  88
ENDBRANCH  72  75
ENDBRANCH  47  72
ENDBRANCH  45  47
ENDBRANCH   1  43
BRANCH   1  90
ATOM     90  C16 non d ame     -31.279  14.681  23.521  0.00  0.00    -0.035 C 
ATOM     91  H21 non d ame     -32.266  14.397  23.160  0.00  0.00     0.037 H 
ATOM     92  H22 non d ame     -31.130  15.649  24.001  0.00  0.00     0.037 H 
BRANCH  90  93
ATOM     93  C17 non d ame     -30.330  14.652  22.280  0.00  0.00    -0.059 C 
ATOM     94  H23 non d ame     -30.247  13.616  21.953  0.00  0.00     0.038 H 
BRANCH  93  95
ATOM     95  C18 non d ame     -30.896  15.485  21.086  0.00  0.00    -0.073 C 
ATOM     96  H24 non d ame     -30.131  15.584  20.316  0.00  0.00     0.028 H 
ATOM     97  H25 non d ame     -31.765  14.976  20.669  0.00  0.00     0.028 H 
ATOM     98  H26 non d ame     -31.188  16.474  21.439  0.00  0.00     0.028 H 
ENDBRANCH  93  95
BRANCH  93  99
ATOM     99  C19 non d ame     -28.924  15.127  22.656  0.00  0.00    -0.073 C 
ATOM    100  H27 non d ame     -28.918  16.214  22.743  0.00  0.00     0.028 H 
ATOM    101  H28 non d ame     -28.632  14.685  23.609  0.00  0.00     0.028 H 
ATOM    102  H29 non d ame     -28.219  14.821  21.883  0.00  0.00     0.028 H 
ENDBRANCH  93  99
ENDBRANCH  90  93
ENDBRANCH   1  90
TORSDOF 26
ENDMDL
MODEL 8
REMARK VINA RESULT:      -6.7      4.169      8.545
REMARK  26 active torsions:
REMARK  status: ('A' for Active; 'I' for Inactive)
REMARK    1  A    between atoms: C2_2  and  C3_3 
REMARK    2  A    between atoms: C4_6  and  C5_7 
REMARK       I    between atoms: C5_7  and  N2_9 
REMARK    3  A    between atoms: N2_9  and  C6_10 
REMARK    4  A    between atoms: C6_10  and  C7_11 
REMARK    5  A    between atoms: C6_10  and  C8_13 
REMARK       I    between atoms: C7_11  and  N3_14 
REMARK    6  A    between atoms: N3_14  and  C9_15 
REMARK    7  A    between atoms: C9_15  and  C10_16 
REMARK    8  A    between atoms: C9_15  and  C11_18 
REMARK       I    between atoms: C10_16  and  N4_21 
REMARK    9  A    between atoms: C11_18  and  C12_19 
REMARK   10  A    between atoms: C11_18  and  C13_20 
REMARK   11  A    between atoms: N4_21  and  C14_22 
REMARK   12  A    between atoms: C14_22  and  C15_23 
REMARK   13  A    between atoms: C14_22  and  C16_25 
REMARK       I    between atoms: C15_23  and  N6_40 
REMARK   14  A    between atoms: C16_25  and  C17_26 
REMARK   15  A    between atoms: C17_26  and  C18_27 
REMARK   16  A    between atoms: C17_26  and  C19_28 
REMARK   17  A    between atoms: C20_29  and  C21_30 
REMARK   18  A    between atoms: C20_29  and  C24_33 
REMARK   19  A    between atoms: C20_29  and  N6_40 
REMARK   20  A    between atoms: C21_30  and  C22_31 
REMARK   21  A    between atoms: C22_31  and  C23_32 
REMARK   22  A    between atoms: C23_32  and  O8_43 
REMARK   23  A    between atoms: C24_33  and  C25_34 
REMARK   24  A    between atoms: C28_38  and  O6_39 
REMARK   25  A    between atoms: C29_42  and  O8_43 
REMARK   26  A    between atoms: C29_42  and  C35_49 
ROOT
ATOM      1  C14 non d ame     -34.253   6.282  26.510  0.00  0.00     0.089 C 
ATOM      2  H20 non d ame     -33.756   5.461  27.026  0.00  0.00     0.087 H 
ENDROOT
BRANCH   1   3
ATOM      3  N4  non d ame     -35.452   6.613  27.266  0.00  0.00    -0.346 N 
ATOM      4  C10 non d ame     -35.647   6.072  28.659  0.00  0.00     0.241 C 
ATOM      5  O4  non d ame     -34.827   5.370  29.152  0.00  0.00    -0.271 OA
ATOM      6  H19 non d ame     -36.139   7.210  26.828  0.00  0.00     0.163 HD
BRANCH   4   7
ATOM      7  C9  non d ame     -36.892   6.429  29.429  0.00  0.00     0.092 C 
ATOM      8  H11 non d ame     -36.849   5.965  30.414  0.00  0.00     0.088 H 
BRANCH   7   9
ATOM      9  N3  non d ame     -36.941   7.880  29.634  0.00  0.00    -0.346 N 
ATOM     10  C7  non d ame     -36.340   8.462  30.808  0.00  0.00     0.240 C 
ATOM     11  O3  non d ame     -35.812   7.778  31.598  0.00  0.00    -0.271 OA
ATOM     12  H10 non d ame     -37.394   8.482  28.962  0.00  0.00     0.163 HD
BRANCH  10  13
ATOM     13  C6  non d ame     -36.398  10.006  31.023  0.00  0.00     0.086 C 
ATOM     14  H6  non d ame     -36.442  10.284  32.076  0.00  0.00     0.086 H 
BRANCH  13  15
ATOM     15  N2  non d ame     -35.186  10.603  30.487  0.00  0.00    -0.343 N 
ATOM     16  C5  non d ame     -34.116  11.007  31.400  0.00  0.00     0.273 C 
ATOM     17  O2  non d ame     -34.239  10.850  32.565  0.00  0.00    -0.266 OA
ATOM     18  H5  non d ame     -35.090  10.736  29.490  0.00  0.00     0.163 HD
BRANCH  16  19
ATOM     19  C4  non d ame     -32.829  11.639  30.846  0.00  0.00     0.154 A 
ATOM     20  C1  non d ame     -32.728  12.745  29.944  0.00  0.00    -0.017 A 
ATOM     21  C2  non d ame     -31.341  12.929  29.750  0.00  0.00     0.077 A 
ATOM     22  H1  non d ame     -33.536  13.324  29.499  0.00  0.00     0.091 H 
ATOM     23  O1  non d ame     -30.726  12.032  30.463  0.00  0.00    -0.218 OA
ATOM     24  N1  non d ame     -31.574  11.266  31.111  0.00  0.00    -0.123 NA
BRANCH  21  25
ATOM     25  C3  non d ame     -30.686  13.986  28.871  0.00  0.00    -0.029 C 
ATOM     26  H2  non d ame     -30.386  14.835  29.485  0.00  0.00     0.036 H 
ATOM     27  H3  non d ame     -29.806  13.562  28.386  0.00  0.00     0.036 H 
ATOM     28  H4  non d ame     -31.394  14.318  28.112  0.00  0.00     0.036 H 
ENDBRANCH  21  25
ENDBRANCH  16  19
ENDBRANCH  13  15
BRANCH  13  29
ATOM     29  C8  non d ame     -37.607  10.569  30.320  0.00  0.00    -0.049 C 
ATOM     30  H7  non d ame     -38.361  10.845  31.057  0.00  0.00     0.030 H 
ATOM     31  H8  non d ame     -37.318  11.451  29.750  0.00  0.00     0.030 H 
ATOM     32  H9  non d ame     -38.017   9.817  29.645  0.00  0.00     0.030 H 
ENDBRANCH  13  29
ENDBRANCH  10  13
ENDBRANCH   7   9
BRANCH   7  33
ATOM     33  C11 non d ame     -38.147   5.979  28.623  0.00  0.00    -0.033 C 
ATOM     34  H12 non d ame     -37.855   5.904  27.576  0.00  0.00     0.042 H 
BRANCH  33  35
ATOM     35  C12 non d ame     -38.636   4.568  29.076  0.00  0.00    -0.071 C 
ATOM     36  H13 non d ame     -37.775   3.947  29.325  0.00  0.00     0.028 H 
ATOM     37  H14 non d ame     -39.277   4.669  29.951  0.00  0.00     0.028 H 
ATOM     38  H15 non d ame     -39.197   4.101  28.266  0.00  0.00     0.028 H 
ENDBRANCH  33  35
BRANCH  33  39
ATOM     39  C13 non d ame     -39.290   7.038  28.732  0.00  0.00    -0.071 C 
ATOM     40  H16 non d ame     -40.070   6.806  28.007  0.00  0.00     0.028 H 
ATOM     41  H17 non d ame     -39.710   7.019  29.738  0.00  0.00     0.028 H 
ATOM     42  H18 non d ame     -38.887   8.030  28.527  0.00  0.00     0.028 H 
ENDBRANCH  33  39
ENDBRANCH   7  33
ENDBRANCH   4   7
ENDBRANCH   1   3
BRANCH   1  43
ATOM     43  C15 non d ame     -33.356   7.550  26.424  0.00  0.00     0.240 C 
ATOM     44  O5  non d ame     -32.458   7.691  27.190  0.00  0.00    -0.271 OA
ATOM     45  N6  non d ame     -33.609   8.585  25.381  0.00  0.00    -0.355 N 
ATOM     46  H46 non d ame     -34.367   8.474  24.722  0.00  0.00     0.162 HD
BRANCH  45  47
ATOM     47  C20 non d ame     -32.746   9.784  25.313  0.00  0.00     0.013 C 
ATOM     48  H30 non d ame     -31.929   9.648  26.021  0.00  0.00     0.072 H 
BRANCH  47  49
ATOM     49  C21 non d ame     -33.556  11.005  25.686  0.00  0.00    -0.038 C 
ATOM     50  H31 non d ame     -33.939  11.402  24.745  0.00  0.00     0.036 H 
ATOM     51  H32 non d ame     -34.249  10.673  26.459  0.00  0.00     0.036 H 
BRANCH  49  52
ATOM     52  C22 non d ame     -32.699  12.123  26.317  0.00  0.00     0.018 C 
ATOM     53  H33 non d ame     -32.825  12.019  27.394  0.00  0.00     0.048 H 
ATOM     54  H34 non d ame     -31.709  12.023  25.871  0.00  0.00     0.048 H 
BRANCH  52  55
ATOM     55  C23 non d ame     -33.183  13.557  25.965  0.00  0.00     0.259 C 
ATOM     56  O7  non d ame     -34.239  13.947  26.346  0.00  0.00    -0.265 OA
BRANCH  55  57
ATOM     57  O8  non d ame     -32.355  14.397  25.169  0.00  0.00    -0.317 OA
BRANCH  57  58
ATOM     58  C29 non d ame     -31.138  13.778  24.741  0.00  0.00     0.052 C 
ATOM     59  H47 non d ame     -30.423  13.944  25.547  0.00  0.00     0.082 H 
ATOM     60  H48 non d ame     -31.408  12.764  24.452  0.00  0.00     0.082 H 
BRANCH  58  61
ATOM     61  C35 non d ame     -30.638  14.531  23.479  0.00  0.00    -0.034 A 
ATOM     62  C30 non d ame     -31.526  15.291  22.724  0.00  0.00    -0.075 A 
ATOM     63  C31 non d ame     -31.077  15.966  21.589  0.00  0.00    -0.082 A 
ATOM     64  H49 non d ame     -32.573  15.357  23.020  0.00  0.00     0.084 H 
ATOM     65  C32 non d ame     -29.735  15.878  21.210  0.00  0.00    -0.083 A 
ATOM     66  H50 non d ame     -31.775  16.563  21.001  0.00  0.00     0.083 H 
ATOM     67  C33 non d ame     -28.854  15.115  21.964  0.00  0.00    -0.082 A 
ATOM     68  H51 non d ame     -29.376  16.404  20.325  0.00  0.00     0.083 H 
ATOM     69  C34 non d ame     -29.298  14.440  23.099  0.00  0.00    -0.075 A 
ATOM     70  H52 non d ame     -27.808  15.046  21.664  0.00  0.00     0.083 H 
ATOM     71  H53 non d ame     -28.599  13.845  23.688  0.00  0.00     0.084 H 
ENDBRANCH  58  61
ENDBRANCH  57  58
ENDBRANCH  55  57
ENDBRANCH  52  55
ENDBRANCH  49  52
ENDBRANCH  47  49
BRANCH  47  72
ATOM     72  C24 non d ame     -32.199   9.946  23.897  0.00  0.00    -0.039 C 
ATOM     73  H35 non d ame     -33.039   9.729  23.235  0.00  0.00     0.036 H 
ATOM     74  H36 non d ame     -31.731  10.930  23.877  0.00  0.00     0.036 H 
BRANCH  72  75
ATOM     75  C25 non d ame     -31.055   8.872  23.576  0.00  0.00    -0.001 C 
ATOM     76  C26 non d ame     -29.731   9.630  22.964  0.00  0.00    -0.035 C 
ATOM     77  C27 non d ame     -29.368   9.014  21.813  0.00  0.00     0.085 C 
ATOM     78  H38 non d ame     -29.992  10.638  22.643  0.00  0.00     0.036 H 
ATOM     79  H39 non d ame     -28.873   9.472  23.619  0.00  0.00     0.036 H 
ATOM     80  N5  non d ame     -30.514   8.116  21.413  0.00  0.00    -0.049 N 
ATOM     81  H40 non d ame     -29.267   9.812  21.077  0.00  0.00     0.075 H 
ATOM     82  H41 non d ame     -28.507   8.399  22.071  0.00  0.00     0.075 H 
ATOM     83  C28 non d ame     -31.462   8.000  22.715  0.00  0.00     0.193 C 
ATOM     84  H42 non d ame     -31.020   8.604  20.689  0.00  0.00     0.280 HD
ATOM     85  H43 non d ame     -30.112   7.208  21.226  0.00  0.00     0.280 HD
ATOM     86  H44 non d ame     -31.453   7.097  23.327  0.00  0.00     0.129 H 
ATOM     87  H37 non d ame     -30.894   8.181  24.404  0.00  0.00     0.046 H 
BRANCH  83  88
ATOM     88  O6  non d ame     -32.828   8.199  22.349  0.00  0.00    -0.369 OA
ATOM     89  H45 non d ame     -33.223   8.854  22.930  0.00  0.00     0.212 HD
ENDBRANCH  83  88
ENDBRANCH  72  75
ENDBRANCH  47  72
ENDBRANCH  45  47
ENDBRANCH   1  43
BRANCH   1  90
ATOM     90  C16 non d ame     -34.653   5.844  25.110  0.00  0.00    -0.035 C 
ATOM     91  H21 non d ame     -35.725   5.657  25.161  0.00  0.00     0.037 H 
ATOM     92  H22 non d ame     -34.265   6.616  24.445  0.00  0.00     0.037 H 
BRANCH  90  93
ATOM     93  C17 non d ame     -33.993   4.501  24.662  0.00  0.00    -0.059 C 
ATOM     94  H23 non d ame     -33.354   4.159  25.477  0.00  0.00     0.038 H 
BRANCH  93  95
ATOM     95  C18 non d ame     -35.052   3.386  24.388  0.00  0.00    -0.073 C 
ATOM     96  H24 non d ame     -34.854   2.926  23.420  0.00  0.00     0.028 H 
ATOM     97  H25 non d ame     -34.991   2.628  25.168  0.00  0.00     0.028 H 
ATOM     98  H26 non d ame     -36.049   3.825  24.384  0.00  0.00     0.028 H 
ENDBRANCH  93  95
BRANCH  93  99
ATOM     99  C19 non d ame     -33.097   4.713  23.439  0.00  0.00    -0.073 C 
ATOM    100  H27 non d ame     -32.598   3.776  23.187  0.00  0.00     0.028 H 
ATOM    101  H28 non d ame     -33.704   5.039  22.594  0.00  0.00     0.028 H 
ATOM    102  H29 non d ame     -32.349   5.474  23.664  0.00  0.00     0.028 H 
ENDBRANCH  93  99
ENDBRANCH  90  93
ENDBRANCH   1  90
TORSDOF 26
ENDMDL
MODEL 9
REMARK VINA RESULT:      -6.6      4.273      7.246
REMARK  26 active torsions:
REMARK  status: ('A' for Active; 'I' for Inactive)
REMARK    1  A    between atoms: C2_2  and  C3_3 
REMARK    2  A    between atoms: C4_6  and  C5_7 
REMARK       I    between atoms: C5_7  and  N2_9 
REMARK    3  A    between atoms: N2_9  and  C6_10 
REMARK    4  A    between atoms: C6_10  and  C7_11 
REMARK    5  A    between atoms: C6_10  and  C8_13 
REMARK       I    between atoms: C7_11  and  N3_14 
REMARK    6  A    between atoms: N3_14  and  C9_15 
REMARK    7  A    between atoms: C9_15  and  C10_16 
REMARK    8  A    between atoms: C9_15  and  C11_18 
REMARK       I    between atoms: C10_16  and  N4_21 
REMARK    9  A    between atoms: C11_18  and  C12_19 
REMARK   10  A    between atoms: C11_18  and  C13_20 
REMARK   11  A    between atoms: N4_21  and  C14_22 
REMARK   12  A    between atoms: C14_22  and  C15_23 
REMARK   13  A    between atoms: C14_22  and  C16_25 
REMARK       I    between atoms: C15_23  and  N6_40 
REMARK   14  A    between atoms: C16_25  and  C17_26 
REMARK   15  A    between atoms: C17_26  and  C18_27 
REMARK   16  A    between atoms: C17_26  and  C19_28 
REMARK   17  A    between atoms: C20_29  and  C21_30 
REMARK   18  A    between atoms: C20_29  and  C24_33 
REMARK   19  A    between atoms: C20_29  and  N6_40 
REMARK   20  A    between atoms: C21_30  and  C22_31 
REMARK   21  A    between atoms: C22_31  and  C23_32 
REMARK   22  A    between atoms: C23_32  and  O8_43 
REMARK   23  A    between atoms: C24_33  and  C25_34 
REMARK   24  A    between atoms: C28_38  and  O6_39 
REMARK   25  A    between atoms: C29_42  and  O8_43 
REMARK   26  A    between atoms: C29_42  and  C35_49 
ROOT
ATOM      1  C14 non d ame     -31.938   8.924  24.438  0.00  0.00     0.089 C 
ATOM      2  H20 non d ame     -30.894   8.713  24.672  0.00  0.00     0.087 H 
ENDROOT
BRANCH   1   3
ATOM      3  N4  non d ame     -32.614   7.648  24.256  0.00  0.00    -0.346 N 
ATOM      4  C10 non d ame     -31.849   6.445  23.766  0.00  0.00     0.241 C 
ATOM      5  O4  non d ame     -30.690   6.527  23.523  0.00  0.00    -0.271 OA
ATOM      6  H19 non d ame     -33.600   7.600  24.465  0.00  0.00     0.163 HD
BRANCH   4   7
ATOM      7  C9  non d ame     -32.564   5.131  23.587  0.00  0.00     0.092 C 
ATOM      8  H11 non d ame     -31.941   4.328  23.981  0.00  0.00     0.088 H 
BRANCH   7   9
ATOM      9  N3  non d ame     -33.805   5.139  24.367  0.00  0.00    -0.346 N 
ATOM     10  C7  non d ame     -34.181   3.977  25.135  0.00  0.00     0.240 C 
ATOM     11  O3  non d ame     -33.497   3.027  25.136  0.00  0.00    -0.271 OA
ATOM     12  H10 non d ame     -34.406   5.950  24.374  0.00  0.00     0.163 HD
BRANCH  10  13
ATOM     13  C6  non d ame     -35.505   3.990  25.960  0.00  0.00     0.086 C 
ATOM     14  H6  non d ame     -36.183   3.183  25.683  0.00  0.00     0.086 H 
BRANCH  13  15
ATOM     15  N2  non d ame     -35.186   3.800  27.366  0.00  0.00    -0.343 N 
ATOM     16  C5  non d ame     -34.182   4.656  28.000  0.00  0.00     0.273 C 
ATOM     17  O2  non d ame     -33.633   5.493  27.371  0.00  0.00    -0.266 OA
ATOM     18  H5  non d ame     -35.658   3.081  27.895  0.00  0.00     0.163 HD
BRANCH  16  19
ATOM     19  C4  non d ame     -33.836   4.467  29.485  0.00  0.00     0.154 A 
ATOM     20  C1  non d ame     -32.813   3.632  30.035  0.00  0.00    -0.017 A 
ATOM     21  C2  non d ame     -32.909   3.813  31.433  0.00  0.00     0.077 A 
ATOM     22  H1  non d ame     -32.108   2.994  29.502  0.00  0.00     0.091 H 
ATOM     23  O1  non d ame     -33.875   4.656  31.650  0.00  0.00    -0.218 OA
ATOM     24  N1  non d ame     -34.432   5.051  30.528  0.00  0.00    -0.123 NA
BRANCH  21  25
ATOM     25  C3  non d ame     -32.039   3.146  32.490  0.00  0.00    -0.029 C 
ATOM     26  H2  non d ame     -32.305   2.093  32.568  0.00  0.00     0.036 H 
ATOM     27  H3  non d ame     -30.990   3.235  32.207  0.00  0.00     0.036 H 
ATOM     28  H4  non d ame     -32.197   3.633  33.452  0.00  0.00     0.036 H 
ENDBRANCH  21  25
ENDBRANCH  16  19
ENDBRANCH  13  15
BRANCH  13  29
ATOM     29  C8  non d ame     -36.210   5.307  25.763  0.00  0.00    -0.049 C 
ATOM     30  H7  non d ame     -37.003   5.189  25.025  0.00  0.00     0.030 H 
ATOM     31  H8  non d ame     -36.642   5.634  26.709  0.00  0.00     0.030 H 
ATOM     32  H9  non d ame     -35.495   6.053  25.413  0.00  0.00     0.030 H 
ENDBRANCH  13  29
ENDBRANCH  10  13
ENDBRANCH   7   9
BRANCH   7  33
ATOM     33  C11 non d ame     -32.902   4.926  22.081  0.00  0.00    -0.033 C 
ATOM     34  H12 non d ame     -32.231   5.561  21.504  0.00  0.00     0.042 H 
BRANCH  33  35
ATOM     35  C12 non d ame     -32.650   3.451  21.638  0.00  0.00    -0.071 C 
ATOM     36  H13 non d ame     -33.504   2.835  21.921  0.00  0.00     0.028 H 
ATOM     37  H14 non d ame     -32.517   3.414  20.557  0.00  0.00     0.028 H 
ATOM     38  H15 non d ame     -31.753   3.073  22.129  0.00  0.00     0.028 H 
ENDBRANCH  33  35
BRANCH  33  39
ATOM     39  C13 non d ame     -34.369   5.367  21.773  0.00  0.00    -0.071 C 
ATOM     40  H16 non d ame     -35.020   4.494  21.779  0.00  0.00     0.028 H 
ATOM     41  H17 non d ame     -34.702   6.077  22.531  0.00  0.00     0.028 H 
ATOM     42  H18 non d ame     -34.407   5.841  20.792  0.00  0.00     0.028 H 
ENDBRANCH  33  39
ENDBRANCH   7  33
ENDBRANCH   4   7
ENDBRANCH   1   3
BRANCH   1  43
ATOM     43  C15 non d ame     -32.649   9.702  25.583  0.00  0.00     0.240 C 
ATOM     44  O5  non d ame     -33.832   9.650  25.687  0.00  0.00    -0.271 OA
ATOM     45  N6  non d ame     -31.855  10.504  26.556  0.00  0.00    -0.355 N 
ATOM     46  H46 non d ame     -30.848  10.552  26.481  0.00  0.00     0.162 HD
BRANCH  45  47
ATOM     47  C20 non d ame     -32.546  11.236  27.639  0.00  0.00     0.013 C 
ATOM     48  H30 non d ame     -33.564  11.442  27.307  0.00  0.00     0.072 H 
BRANCH  47  49
ATOM     49  C21 non d ame     -31.818  12.533  27.910  0.00  0.00    -0.038 C 
ATOM     50  H31 non d ame     -31.581  12.521  28.975  0.00  0.00     0.036 H 
ATOM     51  H32 non d ame     -31.015  12.579  27.174  0.00  0.00     0.036 H 
BRANCH  49  52
ATOM     52  C22 non d ame     -32.701  13.778  27.673  0.00  0.00     0.018 C 
ATOM     53  H33 non d ame     -33.729  13.432  27.765  0.00  0.00     0.048 H 
ATOM     54  H34 non d ame     -32.319  14.543  28.349  0.00  0.00     0.048 H 
BRANCH  52  55
ATOM     55  C23 non d ame     -32.575  14.370  26.242  0.00  0.00     0.259 C 
ATOM     56  O7  non d ame     -33.545  14.697  25.637  0.00  0.00    -0.265 OA
BRANCH  55  57
ATOM     57  O8  non d ame     -31.286  14.506  25.654  0.00  0.00    -0.317 OA
BRANCH  57  58
ATOM     58  C29 non d ame     -31.050  15.784  25.057  0.00  0.00     0.052 C 
ATOM     59  H47 non d ame     -32.018  16.284  25.037  0.00  0.00     0.082 H 
ATOM     60  H48 non d ame     -30.221  16.222  25.613  0.00  0.00     0.082 H 
BRANCH  58  61
ATOM     61  C35 non d ame     -30.588  15.550  23.593  0.00  0.00    -0.034 A 
ATOM     62  C30 non d ame     -29.280  15.153  23.332  0.00  0.00    -0.075 A 
ATOM     63  C31 non d ame     -28.864  14.944  22.017  0.00  0.00    -0.082 A 
ATOM     64  H49 non d ame     -28.580  15.008  24.155  0.00  0.00     0.084 H 
ATOM     65  C32 non d ame     -29.762  15.133  20.963  0.00  0.00    -0.083 A 
ATOM     66  H50 non d ame     -27.839  14.630  21.815  0.00  0.00     0.083 H 
ATOM     67  C33 non d ame     -31.064  15.533  21.229  0.00  0.00    -0.082 A 
ATOM     68  H51 non d ame     -29.445  14.970  19.932  0.00  0.00     0.083 H 
ATOM     69  C34 non d ame     -31.484  15.743  22.541  0.00  0.00    -0.075 A 
ATOM     70  H52 non d ame     -31.761  15.683  20.404  0.00  0.00     0.083 H 
ATOM     71  H53 non d ame     -32.509  16.055  22.743  0.00  0.00     0.084 H 
ENDBRANCH  58  61
ENDBRANCH  57  58
ENDBRANCH  55  57
ENDBRANCH  52  55
ENDBRANCH  49  52
ENDBRANCH  47  49
BRANCH  47  72
ATOM     72  C24 non d ame     -32.564  10.386  28.908  0.00  0.00    -0.039 C 
ATOM     73  H35 non d ame     -32.023   9.474  28.653  0.00  0.00     0.036 H 
ATOM     74  H36 non d ame     -32.192  11.037  29.699  0.00  0.00     0.036 H 
BRANCH  72  75
ATOM     75  C25 non d ame     -34.053   9.955  29.312  0.00  0.00    -0.001 C 
ATOM     76  C26 non d ame     -34.284  10.183  30.923  0.00  0.00    -0.035 C 
ATOM     77  C27 non d ame     -34.779   9.041  31.459  0.00  0.00     0.085 C 
ATOM     78  H38 non d ame     -33.324  10.304  31.425  0.00  0.00     0.036 H 
ATOM     79  H39 non d ame     -35.081  10.908  31.089  0.00  0.00     0.036 H 
ATOM     80  N5  non d ame     -34.599   7.955  30.426  0.00  0.00    -0.049 N 
ATOM     81  H40 non d ame     -34.144   8.824  32.319  0.00  0.00     0.075 H 
ATOM     82  H41 non d ame     -35.843   9.224  31.601  0.00  0.00     0.075 H 
ATOM     83  C28 non d ame     -34.270   8.712  29.039  0.00  0.00     0.193 C 
ATOM     84  H42 non d ame     -33.785   7.427  30.705  0.00  0.00     0.280 HD
ATOM     85  H43 non d ame     -35.494   7.495  30.337  0.00  0.00     0.280 HD
ATOM     86  H44 non d ame     -35.034   8.809  28.267  0.00  0.00     0.129 H 
ATOM     87  H37 non d ame     -34.801  10.375  28.639  0.00  0.00     0.046 H 
BRANCH  83  88
ATOM     88  O6  non d ame     -33.151   8.098  28.396  0.00  0.00    -0.369 OA
ATOM     89  H45 non d ame     -32.471   8.757  28.238  0.00  0.00     0.212 HD
ENDBRANCH  83  88
ENDBRANCH  72  75
ENDBRANCH  47  72
ENDBRANCH  45  47
ENDBRANCH   1  43
BRANCH   1  90
ATOM     90  C16 non d ame     -32.025   9.723  23.147  0.00  0.00    -0.035 C 
ATOM     91  H21 non d ame     -32.183   8.985  22.362  0.00  0.00     0.037 H 
ATOM     92  H22 non d ame     -32.776  10.491  23.334  0.00  0.00     0.037 H 
BRANCH  90  93
ATOM     93  C17 non d ame     -30.704  10.474  22.786  0.00  0.00    -0.059 C 
ATOM     94  H23 non d ame     -30.694  10.622  21.706  0.00  0.00     0.038 H 
BRANCH  93  95
ATOM     95  C18 non d ame     -30.622  11.880  23.460  0.00  0.00    -0.073 C 
ATOM     96  H24 non d ame     -29.659  12.338  23.232  0.00  0.00     0.028 H 
ATOM     97  H25 non d ame     -31.423  12.513  23.079  0.00  0.00     0.028 H 
ATOM     98  H26 non d ame     -30.726  11.772  24.540  0.00  0.00     0.028 H 
ENDBRANCH  93  95
BRANCH  93  99
ATOM     99  C19 non d ame     -29.479   9.627  23.141  0.00  0.00    -0.073 C 
ATOM    100  H27 non d ame     -29.003   9.275  22.224  0.00  0.00     0.028 H 
ATOM    101  H28 non d ame     -28.770  10.231  23.708  0.00  0.00     0.028 H 
ATOM    102  H29 non d ame     -29.789   8.772  23.741  0.00  0.00     0.028 H 
ENDBRANCH  93  99
ENDBRANCH  90  93
ENDBRANCH   1  90
TORSDOF 26
ENDMDL
MODEL 10
REMARK VINA RESULT:      -6.5      3.714     10.663
REMARK  26 active torsions:
REMARK  status: ('A' for Active; 'I' for Inactive)
REMARK    1  A    between atoms: C2_2  and  C3_3 
REMARK    2  A    between atoms: C4_6  and  C5_7 
REMARK       I    between atoms: C5_7  and  N2_9 
REMARK    3  A    between atoms: N2_9  and  C6_10 
REMARK    4  A    between atoms: C6_10  and  C7_11 
REMARK    5  A    between atoms: C6_10  and  C8_13 
REMARK       I    between atoms: C7_11  and  N3_14 
REMARK    6  A    between atoms: N3_14  and  C9_15 
REMARK    7  A    between atoms: C9_15  and  C10_16 
REMARK    8  A    between atoms: C9_15  and  C11_18 
REMARK       I    between atoms: C10_16  and  N4_21 
REMARK    9  A    between atoms: C11_18  and  C12_19 
REMARK   10  A    between atoms: C11_18  and  C13_20 
REMARK   11  A    between atoms: N4_21  and  C14_22 
REMARK   12  A    between atoms: C14_22  and  C15_23 
REMARK   13  A    between atoms: C14_22  and  C16_25 
REMARK       I    between atoms: C15_23  and  N6_40 
REMARK   14  A    between atoms: C16_25  and  C17_26 
REMARK   15  A    between atoms: C17_26  and  C18_27 
REMARK   16  A    between atoms: C17_26  and  C19_28 
REMARK   17  A    between atoms: C20_29  and  C21_30 
REMARK   18  A    between atoms: C20_29  and  C24_33 
REMARK   19  A    between atoms: C20_29  and  N6_40 
REMARK   20  A    between atoms: C21_30  and  C22_31 
REMARK   21  A    between atoms: C22_31  and  C23_32 
REMARK   22  A    between atoms: C23_32  and  O8_43 
REMARK   23  A    between atoms: C24_33  and  C25_34 
REMARK   24  A    between atoms: C28_38  and  O6_39 
REMARK   25  A    between atoms: C29_42  and  O8_43 
REMARK   26  A    between atoms: C29_42  and  C35_49 
ROOT
ATOM      1  C14 non d ame     -35.249   8.894  28.166  0.00  0.00     0.089 C 
ATOM      2  H20 non d ame     -35.143   8.525  29.187  0.00  0.00     0.087 H 
ENDROOT
BRANCH   1   3
ATOM      3  N4  non d ame     -34.177   9.850  27.931  0.00  0.00    -0.346 N 
ATOM      4  C10 non d ame     -33.319  10.328  29.074  0.00  0.00     0.241 C 
ATOM      5  O4  non d ame     -33.510   9.932  30.177  0.00  0.00    -0.271 OA
ATOM      6  H19 non d ame     -34.032  10.177  26.987  0.00  0.00     0.163 HD
BRANCH   4   7
ATOM      7  C9  non d ame     -32.210  11.314  28.813  0.00  0.00     0.092 C 
ATOM      8  H11 non d ame     -31.287  10.771  28.615  0.00  0.00     0.088 H 
BRANCH   7   9
ATOM      9  N3  non d ame     -32.522  12.092  27.610  0.00  0.00    -0.346 N 
ATOM     10  C7  non d ame     -31.648  12.029  26.464  0.00  0.00     0.240 C 
ATOM     11  O3  non d ame     -30.690  11.358  26.493  0.00  0.00    -0.271 OA
ATOM     12  H10 non d ame     -33.345  12.677  27.571  0.00  0.00     0.163 HD
BRANCH  10  13
ATOM     13  C6  non d ame     -31.984  12.862  25.188  0.00  0.00     0.086 C 
ATOM     14  H6  non d ame     -33.016  12.736  24.862  0.00  0.00     0.086 H 
BRANCH  13  15
ATOM     15  N2  non d ame     -31.811  14.274  25.487  0.00  0.00    -0.343 N 
ATOM     16  C5  non d ame     -32.950  15.052  25.978  0.00  0.00     0.273 C 
ATOM     17  O2  non d ame     -34.003  14.534  26.125  0.00  0.00    -0.266 OA
ATOM     18  H5  non d ame     -30.909  14.709  25.355  0.00  0.00     0.163 HD
BRANCH  16  19
ATOM     19  C4  non d ame     -32.782  16.546  26.299  0.00  0.00     0.154 A 
ATOM     20  C1  non d ame     -32.821  17.163  27.589  0.00  0.00    -0.017 A 
ATOM     21  C2  non d ame     -32.615  18.538  27.340  0.00  0.00     0.077 A 
ATOM     22  H1  non d ame     -32.975  16.686  28.557  0.00  0.00     0.091 H 
ATOM     23  O1  non d ame     -32.473  18.683  26.055  0.00  0.00    -0.218 OA
ATOM     24  N1  non d ame     -32.566  17.534  25.426  0.00  0.00    -0.123 NA
BRANCH  21  25
ATOM     25  C3  non d ame     -32.565  19.645  28.384  0.00  0.00    -0.029 C 
ATOM     26  H2  non d ame     -33.550  20.103  28.475  0.00  0.00     0.036 H 
ATOM     27  H3  non d ame     -32.271  19.226  29.346  0.00  0.00     0.036 H 
ATOM     28  H4  non d ame     -31.840  20.400  28.080  0.00  0.00     0.036 H 
ENDBRANCH  21  25
ENDBRANCH  16  19
ENDBRANCH  13  15
BRANCH  13  29
ATOM     29  C8  non d ame     -31.065  12.456  24.064  0.00  0.00    -0.049 C 
ATOM     30  H7  non d ame     -31.545  11.685  23.463  0.00  0.00     0.030 H 
ATOM     31  H8  non d ame     -30.850  13.322  23.439  0.00  0.00     0.030 H 
ATOM     32  H9  non d ame     -30.134  12.066  24.479  0.00  0.00     0.030 H 
ENDBRANCH  13  29
ENDBRANCH  10  13
ENDBRANCH   7   9
BRANCH   7  33
ATOM     33  C11 non d ame     -32.075  12.277  30.029  0.00  0.00    -0.033 C 
ATOM     34  H12 non d ame     -32.814  11.975  30.771  0.00  0.00     0.042 H 
BRANCH  33  35
ATOM     35  C12 non d ame     -30.668  12.158  30.693  0.00  0.00    -0.071 C 
ATOM     36  H13 non d ame     -30.451  11.109  30.899  0.00  0.00     0.028 H 
ATOM     37  H14 non d ame     -29.913  12.560  30.020  0.00  0.00     0.028 H 
ATOM     38  H15 non d ame     -30.659  12.719  31.628  0.00  0.00     0.028 H 
ENDBRANCH  33  35
BRANCH  33  39
ATOM     39  C13 non d ame     -32.383  13.751  29.613  0.00  0.00    -0.071 C 
ATOM     40  H16 non d ame     -33.334  14.060  30.046  0.00  0.00     0.028 H 
ATOM     41  H17 non d ame     -31.588  14.404  29.974  0.00  0.00     0.028 H 
ATOM     42  H18 non d ame     -32.440  13.817  28.526  0.00  0.00     0.028 H 
ENDBRANCH  33  39
ENDBRANCH   7  33
ENDBRANCH   4   7
ENDBRANCH   1   3
BRANCH   1  43
ATOM     43  C15 non d ame     -35.134   7.753  27.115  0.00  0.00     0.240 C 
ATOM     44  O5  non d ame     -35.926   6.866  27.117  0.00  0.00    -0.271 OA
ATOM     45  N6  non d ame     -34.043   7.770  26.100  0.00  0.00    -0.355 N 
ATOM     46  H46 non d ame     -33.367   8.521  26.086  0.00  0.00     0.162 HD
BRANCH  45  47
ATOM     47  C20 non d ame     -33.948   6.678  25.107  0.00  0.00     0.013 C 
ATOM     48  H30 non d ame     -34.910   6.165  25.082  0.00  0.00     0.072 H 
BRANCH  47  49
ATOM     49  C21 non d ame     -32.859   5.716  25.524  0.00  0.00    -0.038 C 
ATOM     50  H31 non d ame     -32.074   5.817  24.773  0.00  0.00     0.036 H 
ATOM     51  H32 non d ame     -32.647   5.946  26.568  0.00  0.00     0.036 H 
BRANCH  49  52
ATOM     52  C22 non d ame     -33.314   4.241  25.485  0.00  0.00     0.018 C 
ATOM     53  H33 non d ame     -34.024   4.173  24.662  0.00  0.00     0.048 H 
ATOM     54  H34 non d ame     -32.398   3.651  25.465  0.00  0.00     0.048 H 
BRANCH  52  55
ATOM     55  C23 non d ame     -34.087   3.791  26.756  0.00  0.00     0.259 C 
ATOM     56  O7  non d ame     -35.275   3.748  26.756  0.00  0.00    -0.265 OA
BRANCH  55  57
ATOM     57  O8  non d ame     -33.358   3.444  27.928  0.00  0.00    -0.317 OA
BRANCH  57  58
ATOM     58  C29 non d ame     -32.929   4.568  28.701  0.00  0.00     0.052 C 
ATOM     59  H47 non d ame     -31.871   4.695  28.474  0.00  0.00     0.082 H 
ATOM     60  H48 non d ame     -33.635   5.367  28.479  0.00  0.00     0.082 H 
BRANCH  58  61
ATOM     61  C35 non d ame     -33.068   4.196  30.202  0.00  0.00    -0.034 A 
ATOM     62  C30 non d ame     -34.065   4.784  30.975  0.00  0.00    -0.075 A 
ATOM     63  C31 non d ame     -34.189   4.451  32.324  0.00  0.00    -0.082 A 
ATOM     64  H49 non d ame     -34.747   5.506  30.526  0.00  0.00     0.084 H 
ATOM     65  C32 non d ame     -33.312   3.528  32.899  0.00  0.00    -0.083 A 
ATOM     66  H50 non d ame     -34.973   4.912  32.927  0.00  0.00     0.083 H 
ATOM     67  C33 non d ame     -32.317   2.948  32.124  0.00  0.00    -0.082 A 
ATOM     68  H51 non d ame     -33.403   3.261  33.952  0.00  0.00     0.083 H 
ATOM     69  C34 non d ame     -32.189   3.276  30.776  0.00  0.00    -0.075 A 
ATOM     70  H52 non d ame     -31.632   2.229  32.577  0.00  0.00     0.083 H 
ATOM     71  H53 non d ame     -31.407   2.815  30.174  0.00  0.00     0.084 H 
ENDBRANCH  58  61
ENDBRANCH  57  58
ENDBRANCH  55  57
ENDBRANCH  52  55
ENDBRANCH  49  52
ENDBRANCH  47  49
BRANCH  47  72
ATOM     72  C24 non d ame     -33.620   7.257  23.732  0.00  0.00    -0.039 C 
ATOM     73  H35 non d ame     -34.128   6.609  23.017  0.00  0.00     0.036 H 
ATOM     74  H36 non d ame     -33.883   8.313  23.792  0.00  0.00     0.036 H 
BRANCH  72  75
ATOM     75  C25 non d ame     -32.053   7.178  23.414  0.00  0.00    -0.001 C 
ATOM     76  C26 non d ame     -31.416   8.692  23.354  0.00  0.00    -0.035 C 
ATOM     77  C27 non d ame     -30.722   8.829  22.199  0.00  0.00     0.085 C 
ATOM     78  H38 non d ame     -32.213   9.430  23.261  0.00  0.00     0.036 H 
ATOM     79  H39 non d ame     -30.654   8.809  24.125  0.00  0.00     0.036 H 
ATOM     80  N5  non d ame     -31.098   7.662  21.317  0.00  0.00    -0.049 N 
ATOM     81  H40 non d ame     -31.089   9.750  21.746  0.00  0.00     0.075 H 
ATOM     82  H41 non d ame     -29.673   8.739  22.478  0.00  0.00     0.075 H 
ATOM     83  C28 non d ame     -31.835   6.597  22.282  0.00  0.00     0.193 C 
ATOM     84  H42 non d ame     -31.771   8.012  20.652  0.00  0.00     0.280 HD
ATOM     85  H43 non d ame     -30.231   7.258  20.994  0.00  0.00     0.280 HD
ATOM     86  H44 non d ame     -31.313   5.700  22.616  0.00  0.00     0.129 H 
ATOM     87  H37 non d ame     -31.541   6.449  24.042  0.00  0.00     0.046 H 
BRANCH  83  88
ATOM     88  O6  non d ame     -33.041   6.133  21.673  0.00  0.00    -0.369 OA
ATOM     89  H45 non d ame     -32.853   5.355  21.141  0.00  0.00     0.212 HD
ENDBRANCH  83  88
ENDBRANCH  72  75
ENDBRANCH  47  72
ENDBRANCH  45  47
ENDBRANCH   1  43
BRANCH   1  90
ATOM     90  C16 non d ame     -36.587   9.599  28.011  0.00  0.00    -0.035 C 
ATOM     91  H21 non d ame     -36.357  10.663  28.037  0.00  0.00     0.037 H 
ATOM     92  H22 non d ame     -37.042   9.160  27.123  0.00  0.00     0.037 H 
BRANCH  90  93
ATOM     93  C17 non d ame     -37.575   9.334  29.191  0.00  0.00    -0.059 C 
ATOM     94  H23 non d ame     -37.943  10.300  29.537  0.00  0.00     0.038 H 
BRANCH  93  95
ATOM     95  C18 non d ame     -38.809   8.485  28.748  0.00  0.00    -0.073 C 
ATOM     96  H24 non d ame     -38.474   7.504  28.411  0.00  0.00     0.028 H 
ATOM     97  H25 non d ame     -39.490   8.366  29.590  0.00  0.00     0.028 H 
ATOM     98  H26 non d ame     -39.325   8.992  27.932  0.00  0.00     0.028 H 
ENDBRANCH  93  95
BRANCH  93  99
ATOM     99  C19 non d ame     -36.855   8.672  30.369  0.00  0.00    -0.073 C 
ATOM    100  H27 non d ame     -36.566   7.657  30.094  0.00  0.00     0.028 H 
ATOM    101  H28 non d ame     -35.963   9.247  30.621  0.00  0.00     0.028 H 
ATOM    102  H29 non d ame     -37.521   8.640  31.231  0.00  0.00     0.028 H 
ENDBRANCH  93  99
ENDBRANCH  90  93
ENDBRANCH   1  90
TORSDOF 26
ENDMDL
MODEL 11
REMARK VINA RESULT:      -6.5      3.256      9.441
REMARK  26 active torsions:
REMARK  status: ('A' for Active; 'I' for Inactive)
REMARK    1  A    between atoms: C2_2  and  C3_3 
REMARK    2  A    between atoms: C4_6  and  C5_7 
REMARK       I    between atoms: C5_7  and  N2_9 
REMARK    3  A    between atoms: N2_9  and  C6_10 
REMARK    4  A    between atoms: C6_10  and  C7_11 
REMARK    5  A    between atoms: C6_10  and  C8_13 
REMARK       I    between atoms: C7_11  and  N3_14 
REMARK    6  A    between atoms: N3_14  and  C9_15 
REMARK    7  A    between atoms: C9_15  and  C10_16 
REMARK    8  A    between atoms: C9_15  and  C11_18 
REMARK       I    between atoms: C10_16  and  N4_21 
REMARK    9  A    between atoms: C11_18  and  C12_19 
REMARK   10  A    between atoms: C11_18  and  C13_20 
REMARK   11  A    between atoms: N4_21  and  C14_22 
REMARK   12  A    between atoms: C14_22  and  C15_23 
REMARK   13  A    between atoms: C14_22  and  C16_25 
REMARK       I    between atoms: C15_23  and  N6_40 
REMARK   14  A    between atoms: C16_25  and  C17_26 
REMARK   15  A    between atoms: C17_26  and  C18_27 
REMARK   16  A    between atoms: C17_26  and  C19_28 
REMARK   17  A    between atoms: C20_29  and  C21_30 
REMARK   18  A    between atoms: C20_29  and  C24_33 
REMARK   19  A    between atoms: C20_29  and  N6_40 
REMARK   20  A    between atoms: C21_30  and  C22_31 
REMARK   21  A    between atoms: C22_31  and  C23_32 
REMARK   22  A    between atoms: C23_32  and  O8_43 
REMARK   23  A    between atoms: C24_33  and  C25_34 
REMARK   24  A    between atoms: C28_38  and  O6_39 
REMARK   25  A    between atoms: C29_42  and  O8_43 
REMARK   26  A    between atoms: C29_42  and  C35_49 
ROOT
ATOM      1  C14 non d ame     -34.936   8.255  30.956  0.00  0.00     0.089 C 
ATOM      2  H20 non d ame     -34.641   8.476  31.982  0.00  0.00     0.087 H 
ENDROOT
BRANCH   1   3
ATOM      3  N4  non d ame     -34.185   9.143  30.082  0.00  0.00    -0.346 N 
ATOM      4  C10 non d ame     -33.567  10.405  30.627  0.00  0.00     0.241 C 
ATOM      5  O4  non d ame     -33.689  10.687  31.774  0.00  0.00    -0.271 OA
ATOM      6  H19 non d ame     -34.095   8.887  29.109  0.00  0.00     0.163 HD
BRANCH   4   7
ATOM      7  C9  non d ame     -32.789  11.311  29.709  0.00  0.00     0.092 C 
ATOM      8  H11 non d ame     -32.164  10.706  29.053  0.00  0.00     0.088 H 
BRANCH   7   9
ATOM      9  N3  non d ame     -33.719  12.057  28.855  0.00  0.00    -0.346 N 
ATOM     10  C7  non d ame     -34.145  11.500  27.596  0.00  0.00     0.240 C 
ATOM     11  O3  non d ame     -33.751  10.453  27.253  0.00  0.00    -0.271 OA
ATOM     12  H10 non d ame     -34.066  12.963  29.137  0.00  0.00     0.163 HD
BRANCH  10  13
ATOM     13  C6  non d ame     -35.132  12.300  26.690  0.00  0.00     0.086 C 
ATOM     14  H6  non d ame     -36.109  12.441  27.152  0.00  0.00     0.086 H 
BRANCH  13  15
ATOM     15  N2  non d ame     -34.588  13.627  26.457  0.00  0.00    -0.343 N 
ATOM     16  C5  non d ame     -35.456  14.798  26.595  0.00  0.00     0.273 C 
ATOM     17  O2  non d ame     -36.593  14.662  26.891  0.00  0.00    -0.266 OA
ATOM     18  H5  non d ame     -33.616  13.734  26.201  0.00  0.00     0.163 HD
BRANCH  16  19
ATOM     19  C4  non d ame     -34.893  16.207  26.352  0.00  0.00     0.154 A 
ATOM     20  C1  non d ame     -35.174  17.392  27.103  0.00  0.00    -0.017 A 
ATOM     21  C2  non d ame     -34.414  18.406  26.479  0.00  0.00     0.077 A 
ATOM     22  H1  non d ame     -35.827  17.499  27.969  0.00  0.00     0.091 H 
ATOM     23  O1  non d ame     -33.776  17.858  25.488  0.00  0.00    -0.218 OA
ATOM     24  N1  non d ame     -34.039  16.575  25.393  0.00  0.00    -0.123 NA
BRANCH  21  25
ATOM     25  C3  non d ame     -34.354  19.871  26.892  0.00  0.00    -0.029 C 
ATOM     26  H2  non d ame     -35.347  20.312  26.813  0.00  0.00     0.036 H 
ATOM     27  H3  non d ame     -34.006  19.944  27.922  0.00  0.00     0.036 H 
ATOM     28  H4  non d ame     -33.666  20.406  26.238  0.00  0.00     0.036 H 
ENDBRANCH  21  25
ENDBRANCH  16  19
ENDBRANCH  13  15
BRANCH  13  29
ATOM     29  C8  non d ame     -35.313  11.578  25.379  0.00  0.00    -0.049 C 
ATOM     30  H7  non d ame     -35.648  10.559  25.569  0.00  0.00     0.030 H 
ATOM     31  H8  non d ame     -36.058  12.098  24.777  0.00  0.00     0.030 H 
ATOM     32  H9  non d ame     -34.364  11.555  24.843  0.00  0.00     0.030 H 
ENDBRANCH  13  29
ENDBRANCH  10  13
ENDBRANCH   7   9
BRANCH   7  33
ATOM     33  C11 non d ame     -31.951  12.312  30.558  0.00  0.00    -0.033 C 
ATOM     34  H12 non d ame     -32.436  12.407  31.529  0.00  0.00     0.042 H 
BRANCH  33  35
ATOM     35  C12 non d ame     -30.507  11.776  30.805  0.00  0.00    -0.071 C 
ATOM     36  H13 non d ame     -30.559  10.774  31.232  0.00  0.00     0.028 H 
ATOM     37  H14 non d ame     -29.965  11.741  29.861  0.00  0.00     0.028 H 
ATOM     38  H15 non d ame     -29.987  12.438  31.498  0.00  0.00     0.028 H 
ENDBRANCH  33  35
BRANCH  33  39
ATOM     39  C13 non d ame     -31.925  13.725  29.892  0.00  0.00    -0.071 C 
ATOM     40  H16 non d ame     -31.422  14.430  30.553  0.00  0.00     0.028 H 
ATOM     41  H17 non d ame     -31.390  13.670  28.943  0.00  0.00     0.028 H 
ATOM     42  H18 non d ame     -32.946  14.061  29.712  0.00  0.00     0.028 H 
ENDBRANCH  33  39
ENDBRANCH   7  33
ENDBRANCH   4   7
ENDBRANCH   1   3
BRANCH   1  43
ATOM     43  C15 non d ame     -34.618   6.784  30.559  0.00  0.00     0.240 C 
ATOM     44  O5  non d ame     -34.771   5.912  31.352  0.00  0.00    -0.271 OA
ATOM     45  N6  non d ame     -34.131   6.462  29.188  0.00  0.00    -0.355 N 
ATOM     46  H46 non d ame     -34.002   7.194  28.504  0.00  0.00     0.162 HD
BRANCH  45  47
ATOM     47  C20 non d ame     -33.834   5.059  28.826  0.00  0.00     0.013 C 
ATOM     48  H30 non d ame     -33.704   4.496  29.751  0.00  0.00     0.072 H 
BRANCH  47  49
ATOM     49  C21 non d ame     -32.563   5.011  28.008  0.00  0.00    -0.038 C 
ATOM     50  H31 non d ame     -31.748   5.109  28.725  0.00  0.00     0.036 H 
ATOM     51  H32 non d ame     -32.644   4.115  27.392  0.00  0.00     0.036 H 
BRANCH  49  52
ATOM     52  C22 non d ame     -32.434   6.202  27.033  0.00  0.00     0.018 C 
ATOM     53  H33 non d ame     -33.366   6.759  27.122  0.00  0.00     0.048 H 
ATOM     54  H34 non d ame     -31.486   6.681  27.278  0.00  0.00     0.048 H 
BRANCH  52  55
ATOM     55  C23 non d ame     -32.327   5.780  25.541  0.00  0.00     0.259 C 
ATOM     56  O7  non d ame     -32.969   4.871  25.124  0.00  0.00    -0.265 OA
BRANCH  55  57
ATOM     57  O8  non d ame     -31.441   6.485  24.680  0.00  0.00    -0.317 OA
BRANCH  57  58
ATOM     58  C29 non d ame     -32.089   7.136  23.583  0.00  0.00     0.052 C 
ATOM     59  H47 non d ame     -31.819   6.562  22.698  0.00  0.00     0.082 H 
ATOM     60  H48 non d ame     -33.135   7.232  23.873  0.00  0.00     0.082 H 
BRANCH  58  61
ATOM     61  C35 non d ame     -31.486   8.560  23.448  0.00  0.00    -0.034 A 
ATOM     62  C30 non d ame     -30.484   8.806  22.514  0.00  0.00    -0.075 A 
ATOM     63  C31 non d ame     -29.942  10.085  22.394  0.00  0.00    -0.082 A 
ATOM     64  H49 non d ame     -30.123   7.998  21.879  0.00  0.00     0.084 H 
ATOM     65  C32 non d ame     -30.404  11.120  23.211  0.00  0.00    -0.083 A 
ATOM     66  H50 non d ame     -29.158  10.275  21.659  0.00  0.00     0.083 H 
ATOM     67  C33 non d ame     -31.401  10.868  24.144  0.00  0.00    -0.082 A 
ATOM     68  H51 non d ame     -29.986  12.123  23.122  0.00  0.00     0.083 H 
ATOM     69  C34 non d ame     -31.947   9.592  24.267  0.00  0.00    -0.075 A 
ATOM     70  H52 non d ame     -31.758  11.677  24.783  0.00  0.00     0.083 H 
ATOM     71  H53 non d ame     -32.731   9.403  25.001  0.00  0.00     0.084 H 
ENDBRANCH  58  61
ENDBRANCH  57  58
ENDBRANCH  55  57
ENDBRANCH  52  55
ENDBRANCH  49  52
ENDBRANCH  47  49
BRANCH  47  72
ATOM     72  C24 non d ame     -34.988   4.480  28.011  0.00  0.00    -0.039 C 
ATOM     73  H35 non d ame     -34.568   4.261  27.029  0.00  0.00     0.036 H 
ATOM     74  H36 non d ame     -35.398   3.674  28.620  0.00  0.00     0.036 H 
BRANCH  72  75
ATOM     75  C25 non d ame     -36.158   5.552  27.796  0.00  0.00    -0.001 C 
ATOM     76  C26 non d ame     -37.453   5.163  28.732  0.00  0.00    -0.035 C 
ATOM     77  C27 non d ame     -38.563   5.144  27.955  0.00  0.00     0.085 C 
ATOM     78  H38 non d ame     -37.368   4.134  29.079  0.00  0.00     0.036 H 
ATOM     79  H39 non d ame     -37.654   5.964  29.444  0.00  0.00     0.036 H 
ATOM     80  N5  non d ame     -38.097   5.163  26.519  0.00  0.00    -0.049 N 
ATOM     81  H40 non d ame     -39.046   4.189  28.161  0.00  0.00     0.075 H 
ATOM     82  H41 non d ame     -39.085   6.076  28.171  0.00  0.00     0.075 H 
ATOM     83  C28 non d ame     -36.540   5.586  26.563  0.00  0.00     0.193 C 
ATOM     84  H42 non d ame     -38.162   4.212  26.186  0.00  0.00     0.280 HD
ATOM     85  H43 non d ame     -38.618   5.896  26.060  0.00  0.00     0.280 HD
ATOM     86  H44 non d ame     -36.234   6.596  26.289  0.00  0.00     0.129 H 
ATOM     87  H37 non d ame     -35.794   6.578  27.855  0.00  0.00     0.046 H 
BRANCH  83  88
ATOM     88  O6  non d ame     -35.768   4.714  25.735  0.00  0.00    -0.369 OA
ATOM     89  H45 non d ame     -36.340   4.306  25.080  0.00  0.00     0.212 HD
ENDBRANCH  83  88
ENDBRANCH  72  75
ENDBRANCH  47  72
ENDBRANCH  45  47
ENDBRANCH   1  43
BRANCH   1  90
ATOM     90  C16 non d ame     -36.422   8.521  30.778  0.00  0.00    -0.035 C 
ATOM     91  H21 non d ame     -36.840   7.586  30.408  0.00  0.00     0.037 H 
ATOM     92  H22 non d ame     -36.758   8.930  31.731  0.00  0.00     0.037 H 
BRANCH  90  93
ATOM     93  C17 non d ame     -36.739   9.604  29.697  0.00  0.00    -0.059 C 
ATOM     94  H23 non d ame     -35.812  10.135  29.481  0.00  0.00     0.038 H 
BRANCH  93  95
ATOM     95  C18 non d ame     -37.248   8.973  28.362  0.00  0.00    -0.073 C 
ATOM     96  H24 non d ame     -37.228   7.886  28.442  0.00  0.00     0.028 H 
ATOM     97  H25 non d ame     -38.269   9.302  28.171  0.00  0.00     0.028 H 
ATOM     98  H26 non d ame     -36.604   9.289  27.542  0.00  0.00     0.028 H 
ENDBRANCH  93  95
BRANCH  93  99
ATOM     99  C19 non d ame     -37.740  10.632  30.230  0.00  0.00    -0.073 C 
ATOM    100  H27 non d ame     -37.300  11.629  30.178  0.00  0.00     0.028 H 
ATOM    101  H28 non d ame     -38.647  10.605  29.625  0.00  0.00     0.028 H 
ATOM    102  H29 non d ame     -37.987  10.397  31.265  0.00  0.00     0.028 H 
ENDBRANCH  93  99
ENDBRANCH  90  93
ENDBRANCH   1  90
TORSDOF 26
ENDMDL
MODEL 12
REMARK VINA RESULT:      -6.5      3.326      6.759
REMARK  26 active torsions:
REMARK  status: ('A' for Active; 'I' for Inactive)
REMARK    1  A    between atoms: C2_2  and  C3_3 
REMARK    2  A    between atoms: C4_6  and  C5_7 
REMARK       I    between atoms: C5_7  and  N2_9 
REMARK    3  A    between atoms: N2_9  and  C6_10 
REMARK    4  A    between atoms: C6_10  and  C7_11 
REMARK    5  A    between atoms: C6_10  and  C8_13 
REMARK       I    between atoms: C7_11  and  N3_14 
REMARK    6  A    between atoms: N3_14  and  C9_15 
REMARK    7  A    between atoms: C9_15  and  C10_16 
REMARK    8  A    between atoms: C9_15  and  C11_18 
REMARK       I    between atoms: C10_16  and  N4_21 
REMARK    9  A    between atoms: C11_18  and  C12_19 
REMARK   10  A    between atoms: C11_18  and  C13_20 
REMARK   11  A    between atoms: N4_21  and  C14_22 
REMARK   12  A    between atoms: C14_22  and  C15_23 
REMARK   13  A    between atoms: C14_22  and  C16_25 
REMARK       I    between atoms: C15_23  and  N6_40 
REMARK   14  A    between atoms: C16_25  and  C17_26 
REMARK   15  A    between atoms: C17_26  and  C18_27 
REMARK   16  A    between atoms: C17_26  and  C19_28 
REMARK   17  A    between atoms: C20_29  and  C21_30 
REMARK   18  A    between atoms: C20_29  and  C24_33 
REMARK   19  A    between atoms: C20_29  and  N6_40 
REMARK   20  A    between atoms: C21_30  and  C22_31 
REMARK   21  A    between atoms: C22_31  and  C23_32 
REMARK   22  A    between atoms: C23_32  and  O8_43 
REMARK   23  A    between atoms: C24_33  and  C25_34 
REMARK   24  A    between atoms: C28_38  and  O6_39 
REMARK   25  A    between atoms: C29_42  and  O8_43 
REMARK   26  A    between atoms: C29_42  and  C35_49 
ROOT
ATOM      1  C14 non d ame     -35.150   9.495  24.997  0.00  0.00     0.089 C 
ATOM      2  H20 non d ame     -34.925   9.888  24.006  0.00  0.00     0.087 H 
ENDROOT
BRANCH   1   3
ATOM      3  N4  non d ame     -34.393   8.263  25.163  0.00  0.00    -0.346 N 
ATOM      4  C10 non d ame     -32.948   8.195  24.742  0.00  0.00     0.241 C 
ATOM      5  O4  non d ame     -32.414   9.144  24.269  0.00  0.00    -0.271 OA
ATOM      6  H19 non d ame     -34.866   7.466  25.565  0.00  0.00     0.163 HD
BRANCH   4   7
ATOM      7  C9  non d ame     -32.178   6.913  24.925  0.00  0.00     0.092 C 
ATOM      8  H11 non d ame     -31.248   7.126  25.451  0.00  0.00     0.088 H 
BRANCH   7   9
ATOM      9  N3  non d ame     -32.951   5.994  25.765  0.00  0.00    -0.346 N 
ATOM     10  C7  non d ame     -32.664   5.891  27.175  0.00  0.00     0.240 C 
ATOM     11  O3  non d ame     -31.814   6.541  27.649  0.00  0.00    -0.271 OA
ATOM     12  H10 non d ame     -33.687   5.426  25.369  0.00  0.00     0.163 HD
BRANCH  10  13
ATOM     13  C6  non d ame     -33.488   4.909  28.063  0.00  0.00     0.086 C 
ATOM     14  H6  non d ame     -32.939   4.575  28.943  0.00  0.00     0.086 H 
BRANCH  13  15
ATOM     15  N2  non d ame     -34.674   5.594  28.550  0.00  0.00    -0.343 N 
ATOM     16  C5  non d ame     -34.975   5.587  29.982  0.00  0.00     0.273 C 
ATOM     17  O2  non d ame     -34.259   5.025  30.736  0.00  0.00    -0.266 OA
ATOM     18  H5  non d ame     -35.282   6.070  27.898  0.00  0.00     0.163 HD
BRANCH  16  19
ATOM     19  C4  non d ame     -36.226   6.309  30.510  0.00  0.00     0.154 A 
ATOM     20  C1  non d ame     -36.455   7.720  30.556  0.00  0.00    -0.017 A 
ATOM     21  C2  non d ame     -37.741   7.861  31.123  0.00  0.00     0.077 A 
ATOM     22  H1  non d ame     -35.790   8.519  30.228  0.00  0.00     0.091 H 
ATOM     23  O1  non d ame     -38.190   6.666  31.368  0.00  0.00    -0.218 OA
ATOM     24  N1  non d ame     -37.323   5.743  31.019  0.00  0.00    -0.123 NA
BRANCH  21  25
ATOM     25  C3  non d ame     -38.468   9.171  31.394  0.00  0.00    -0.029 C 
ATOM     26  H2  non d ame     -39.397   8.968  31.926  0.00  0.00     0.036 H 
ATOM     27  H3  non d ame     -37.836   9.819  32.003  0.00  0.00     0.036 H 
ATOM     28  H4  non d ame     -38.691   9.666  30.449  0.00  0.00     0.036 H 
ENDBRANCH  21  25
ENDBRANCH  16  19
ENDBRANCH  13  15
BRANCH  13  29
ATOM     29  C8  non d ame     -33.885   3.704  27.250  0.00  0.00    -0.049 C 
ATOM     30  H7  non d ame     -34.617   3.996  26.498  0.00  0.00     0.030 H 
ATOM     31  H8  non d ame     -33.004   3.292  26.757  0.00  0.00     0.030 H 
ATOM     32  H9  non d ame     -34.320   2.949  27.907  0.00  0.00     0.030 H 
ENDBRANCH  13  29
ENDBRANCH  10  13
ENDBRANCH   7   9
BRANCH   7  33
ATOM     33  C11 non d ame     -31.929   6.256  23.535  0.00  0.00    -0.033 C 
ATOM     34  H12 non d ame     -31.714   5.201  23.705  0.00  0.00     0.042 H 
BRANCH  33  35
ATOM     35  C12 non d ame     -33.199   6.337  22.633  0.00  0.00    -0.071 C 
ATOM     36  H13 non d ame     -34.082   6.464  23.260  0.00  0.00     0.028 H 
ATOM     37  H14 non d ame     -33.110   7.185  21.955  0.00  0.00     0.028 H 
ATOM     38  H15 non d ame     -33.294   5.418  22.055  0.00  0.00     0.028 H 
ENDBRANCH  33  35
BRANCH  33  39
ATOM     39  C13 non d ame     -30.690   6.893  22.829  0.00  0.00    -0.071 C 
ATOM     40  H16 non d ame     -29.781   6.602  23.356  0.00  0.00     0.028 H 
ATOM     41  H17 non d ame     -30.640   6.546  21.797  0.00  0.00     0.028 H 
ATOM     42  H18 non d ame     -30.783   7.979  22.841  0.00  0.00     0.028 H 
ENDBRANCH  33  39
ENDBRANCH   7  33
ENDBRANCH   4   7
ENDBRANCH   1   3
BRANCH   1  43
ATOM     43  C15 non d ame     -34.740  10.484  26.127  0.00  0.00     0.240 C 
ATOM     44  O5  non d ame     -35.147  10.321  27.232  0.00  0.00    -0.271 OA
ATOM     45  N6  non d ame     -33.832  11.629  25.834  0.00  0.00    -0.355 N 
ATOM     46  H46 non d ame     -33.476  11.775  24.899  0.00  0.00     0.162 HD
BRANCH  45  47
ATOM     47  C20 non d ame     -33.452  12.559  26.919  0.00  0.00     0.013 C 
ATOM     48  H30 non d ame     -33.956  12.236  27.829  0.00  0.00     0.072 H 
BRANCH  47  49
ATOM     49  C21 non d ame     -33.890  13.960  26.554  0.00  0.00    -0.038 C 
ATOM     50  H31 non d ame     -33.848  14.007  25.465  0.00  0.00     0.036 H 
ATOM     51  H32 non d ame     -34.837  14.115  27.070  0.00  0.00     0.036 H 
BRANCH  49  52
ATOM     52  C22 non d ame     -32.924  15.045  27.077  0.00  0.00     0.018 C 
ATOM     53  H33 non d ame     -33.268  15.286  28.082  0.00  0.00     0.048 H 
ATOM     54  H34 non d ame     -31.921  14.646  26.924  0.00  0.00     0.048 H 
BRANCH  52  55
ATOM     55  C23 non d ame     -32.982  16.374  26.273  0.00  0.00     0.259 C 
ATOM     56  O7  non d ame     -33.760  17.223  26.568  0.00  0.00    -0.265 OA
BRANCH  55  57
ATOM     57  O8  non d ame     -32.103  16.561  25.171  0.00  0.00    -0.317 OA
BRANCH  57  58
ATOM     58  C29 non d ame     -31.065  15.580  25.080  0.00  0.00     0.052 C 
ATOM     59  H47 non d ame     -30.210  16.007  25.605  0.00  0.00     0.082 H 
ATOM     60  H48 non d ame     -31.509  14.648  25.426  0.00  0.00     0.082 H 
BRANCH  58  61
ATOM     61  C35 non d ame     -30.690  15.418  23.583  0.00  0.00    -0.034 A 
ATOM     62  C30 non d ame     -31.360  16.157  22.613  0.00  0.00    -0.075 A 
ATOM     63  C31 non d ame     -31.024  16.011  21.268  0.00  0.00    -0.082 A 
ATOM     64  H49 non d ame     -32.149  16.850  22.906  0.00  0.00     0.084 H 
ATOM     65  C32 non d ame     -30.014  15.120  20.893  0.00  0.00    -0.083 A 
ATOM     66  H50 non d ame     -31.550  16.593  20.510  0.00  0.00     0.083 H 
ATOM     67  C33 non d ame     -29.352  14.382  21.865  0.00  0.00    -0.082 A 
ATOM     68  H51 non d ame     -29.745  15.000  19.844  0.00  0.00     0.083 H 
ATOM     69  C34 non d ame     -29.683  14.526  23.210  0.00  0.00    -0.075 A 
ATOM     70  H52 non d ame     -28.566  13.685  21.569  0.00  0.00     0.083 H 
ATOM     71  H53 non d ame     -29.157  13.944  23.967  0.00  0.00     0.084 H 
ENDBRANCH  58  61
ENDBRANCH  57  58
ENDBRANCH  55  57
ENDBRANCH  52  55
ENDBRANCH  49  52
ENDBRANCH  47  49
BRANCH  47  72
ATOM     72  C24 non d ame     -31.937  12.533  27.113  0.00  0.00    -0.039 C 
ATOM     73  H35 non d ame     -31.554  11.895  26.316  0.00  0.00     0.036 H 
ATOM     74  H36 non d ame     -31.633  13.578  27.169  0.00  0.00     0.036 H 
BRANCH  72  75
ATOM     75  C25 non d ame     -31.530  11.847  28.503  0.00  0.00    -0.001 C 
ATOM     76  C26 non d ame     -32.868  11.632  29.434  0.00  0.00    -0.035 C 
ATOM     77  C27 non d ame     -32.634  12.153  30.663  0.00  0.00     0.085 C 
ATOM     78  H38 non d ame     -33.690  12.238  29.053  0.00  0.00     0.036 H 
ATOM     79  H39 non d ame     -33.020  10.571  29.632  0.00  0.00     0.036 H 
ATOM     80  N5  non d ame     -31.383  12.992  30.554  0.00  0.00    -0.049 N 
ATOM     81  H40 non d ame     -33.483  12.804  30.869  0.00  0.00     0.075 H 
ATOM     82  H41 non d ame     -32.433  11.298  31.307  0.00  0.00     0.075 H 
ATOM     83  C28 non d ame     -30.690  12.579  29.156  0.00  0.00     0.193 C 
ATOM     84  H42 non d ame     -31.688  13.952  30.490  0.00  0.00     0.280 HD
ATOM     85  H43 non d ame     -30.779  12.703  31.311  0.00  0.00     0.280 HD
ATOM     86  H44 non d ame     -29.813  11.931  29.144  0.00  0.00     0.129 H 
ATOM     87  H37 non d ame     -30.880  10.984  28.362  0.00  0.00     0.046 H 
BRANCH  83  88
ATOM     88  O6  non d ame     -30.313  13.748  28.428  0.00  0.00    -0.369 OA
ATOM     89  H45 non d ame     -29.361  13.867  28.482  0.00  0.00     0.212 HD
ENDBRANCH  83  88
ENDBRANCH  72  75
ENDBRANCH  47  72
ENDBRANCH  45  47
ENDBRANCH   1  43
BRANCH   1  90
ATOM     90  C16 non d ame     -36.635   9.185  25.104  0.00  0.00    -0.035 C 
ATOM     91  H21 non d ame     -37.011   9.844  25.885  0.00  0.00     0.037 H 
ATOM     92  H22 non d ame     -37.020   9.267  24.087  0.00  0.00     0.037 H 
BRANCH  90  93
ATOM     93  C17 non d ame     -36.937   7.727  25.574  0.00  0.00    -0.059 C 
ATOM     94  H23 non d ame     -35.992   7.183  25.593  0.00  0.00     0.038 H 
BRANCH  93  95
ATOM     95  C18 non d ame     -37.539   7.685  27.015  0.00  0.00    -0.073 C 
ATOM     96  H24 non d ame     -37.000   8.384  27.655  0.00  0.00     0.028 H 
ATOM     97  H25 non d ame     -38.591   7.966  26.978  0.00  0.00     0.028 H 
ATOM     98  H26 non d ame     -37.446   6.677  27.419  0.00  0.00     0.028 H 
ENDBRANCH  93  95
BRANCH  93  99
ATOM     99  C19 non d ame     -37.855   7.011  24.580  0.00  0.00    -0.073 C 
ATOM    100  H27 non d ame     -38.302   6.139  25.061  0.00  0.00     0.028 H 
ATOM    101  H28 non d ame     -38.644   7.691  24.257  0.00  0.00     0.028 H 
ATOM    102  H29 non d ame     -37.275   6.690  23.715  0.00  0.00     0.028 H 
ENDBRANCH  93  99
ENDBRANCH  90  93
ENDBRANCH   1  90
TORSDOF 26
ENDMDL
MODEL 13
REMARK VINA RESULT:      -6.4      3.079      8.747
REMARK  26 active torsions:
REMARK  status: ('A' for Active; 'I' for Inactive)
REMARK    1  A    between atoms: C2_2  and  C3_3 
REMARK    2  A    between atoms: C4_6  and  C5_7 
REMARK       I    between atoms: C5_7  and  N2_9 
REMARK    3  A    between atoms: N2_9  and  C6_10 
REMARK    4  A    between atoms: C6_10  and  C7_11 
REMARK    5  A    between atoms: C6_10  and  C8_13 
REMARK       I    between atoms: C7_11  and  N3_14 
REMARK    6  A    between atoms: N3_14  and  C9_15 
REMARK    7  A    between atoms: C9_15  and  C10_16 
REMARK    8  A    between atoms: C9_15  and  C11_18 
REMARK       I    between atoms: C10_16  and  N4_21 
REMARK    9  A    between atoms: C11_18  and  C12_19 
REMARK   10  A    between atoms: C11_18  and  C13_20 
REMARK   11  A    between atoms: N4_21  and  C14_22 
REMARK   12  A    between atoms: C14_22  and  C15_23 
REMARK   13  A    between atoms: C14_22  and  C16_25 
REMARK       I    between atoms: C15_23  and  N6_40 
REMARK   14  A    between atoms: C16_25  and  C17_26 
REMARK   15  A    between atoms: C17_26  and  C18_27 
REMARK   16  A    between atoms: C17_26  and  C19_28 
REMARK   17  A    between atoms: C20_29  and  C21_30 
REMARK   18  A    between atoms: C20_29  and  C24_33 
REMARK   19  A    between atoms: C20_29  and  N6_40 
REMARK   20  A    between atoms: C21_30  and  C22_31 
REMARK   21  A    between atoms: C22_31  and  C23_32 
REMARK   22  A    between atoms: C23_32  and  O8_43 
REMARK   23  A    between atoms: C24_33  and  C25_34 
REMARK   24  A    between atoms: C28_38  and  O6_39 
REMARK   25  A    between atoms: C29_42  and  O8_43 
REMARK   26  A    between atoms: C29_42  and  C35_49 
ROOT
ATOM      1  C14 non d ame     -33.938   6.256  28.036  0.00  0.00     0.089 C 
ATOM      2  H20 non d ame     -33.580   5.475  28.706  0.00  0.00     0.087 H 
ENDROOT
BRANCH   1   3
ATOM      3  N4  non d ame     -34.311   7.400  28.856  0.00  0.00    -0.346 N 
ATOM      4  C10 non d ame     -35.165   8.502  28.283  0.00  0.00     0.241 C 
ATOM      5  O4  non d ame     -35.540   8.448  27.158  0.00  0.00    -0.271 OA
ATOM      6  H19 non d ame     -33.980   7.428  29.809  0.00  0.00     0.163 HD
BRANCH   4   7
ATOM      7  C9  non d ame     -35.546   9.675  29.147  0.00  0.00     0.092 C 
ATOM      8  H11 non d ame     -35.549   9.366  30.191  0.00  0.00     0.088 H 
BRANCH   7   9
ATOM      9  N3  non d ame     -34.536  10.730  29.010  0.00  0.00    -0.346 N 
ATOM     10  C7  non d ame     -33.393  10.751  29.889  0.00  0.00     0.240 C 
ATOM     11  O3  non d ame     -33.269   9.927  30.711  0.00  0.00    -0.271 OA
ATOM     12  H10 non d ame     -34.631  11.449  28.307  0.00  0.00     0.163 HD
BRANCH  10  13
ATOM     13  C6  non d ame     -32.324  11.878  29.741  0.00  0.00     0.086 C 
ATOM     14  H6  non d ame     -31.636  11.701  28.915  0.00  0.00     0.086 H 
BRANCH  13  15
ATOM     15  N2  non d ame     -32.998  13.134  29.458  0.00  0.00    -0.343 N 
ATOM     16  C5  non d ame     -32.261  14.217  28.804  0.00  0.00     0.273 C 
ATOM     17  O2  non d ame     -31.125  14.070  28.512  0.00  0.00    -0.266 OA
ATOM     18  H5  non d ame     -33.968  13.252  29.714  0.00  0.00     0.163 HD
BRANCH  16  19
ATOM     19  C4  non d ame     -32.963  15.550  28.498  0.00  0.00     0.154 A 
ATOM     20  C1  non d ame     -34.209  15.736  27.821  0.00  0.00    -0.017 A 
ATOM     21  C2  non d ame     -34.404  17.135  27.799  0.00  0.00     0.077 A 
ATOM     22  H1  non d ame     -34.870  14.974  27.409  0.00  0.00     0.091 H 
ATOM     23  O1  non d ame     -33.386  17.679  28.397  0.00  0.00    -0.218 OA
ATOM     24  N1  non d ame     -32.531  16.774  28.814  0.00  0.00    -0.123 NA
BRANCH  21  25
ATOM     25  C3  non d ame     -35.590  17.870  27.189  0.00  0.00    -0.029 C 
ATOM     26  H2  non d ame     -35.240  18.770  26.684  0.00  0.00     0.036 H 
ATOM     27  H3  non d ame     -36.088  17.221  26.468  0.00  0.00     0.036 H 
ATOM     28  H4  non d ame     -36.293  18.145  27.975  0.00  0.00     0.036 H 
ENDBRANCH  21  25
ENDBRANCH  16  19
ENDBRANCH  13  15
BRANCH  13  29
ATOM     29  C8  non d ame     -31.531  11.993  31.018  0.00  0.00    -0.049 C 
ATOM     30  H7  non d ame     -31.990  11.374  31.788  0.00  0.00     0.030 H 
ATOM     31  H8  non d ame     -30.510  11.656  30.843  0.00  0.00     0.030 H 
ATOM     32  H9  non d ame     -31.520  13.033  31.346  0.00  0.00     0.030 H 
ENDBRANCH  13  29
ENDBRANCH  10  13
ENDBRANCH   7   9
BRANCH   7  33
ATOM     33  C11 non d ame     -36.930  10.225  28.694  0.00  0.00    -0.033 C 
ATOM     34  H12 non d ame     -37.432   9.434  28.137  0.00  0.00     0.042 H 
BRANCH  33  35
ATOM     35  C12 non d ame     -37.829  10.579  29.919  0.00  0.00    -0.071 C 
ATOM     36  H13 non d ame     -37.363  11.380  30.493  0.00  0.00     0.028 H 
ATOM     37  H14 non d ame     -38.809  10.904  29.571  0.00  0.00     0.028 H 
ATOM     38  H15 non d ame     -37.942   9.699  30.553  0.00  0.00     0.028 H 
ENDBRANCH  33  35
BRANCH  33  39
ATOM     39  C13 non d ame     -36.761  11.452  27.742  0.00  0.00    -0.071 C 
ATOM     40  H16 non d ame     -36.084  11.190  26.928  0.00  0.00     0.028 H 
ATOM     41  H17 non d ame     -37.732  11.732  27.332  0.00  0.00     0.028 H 
ATOM     42  H18 non d ame     -36.349  12.292  28.301  0.00  0.00     0.028 H 
ENDBRANCH  33  39
ENDBRANCH   7  33
ENDBRANCH   4   7
ENDBRANCH   1   3
BRANCH   1  43
ATOM     43  C15 non d ame     -32.845   6.708  27.024  0.00  0.00     0.240 C 
ATOM     44  O5  non d ame     -31.702   6.465  27.241  0.00  0.00    -0.271 OA
ATOM     45  N6  non d ame     -33.225   7.435  25.779  0.00  0.00    -0.355 N 
ATOM     46  H46 non d ame     -34.194   7.643  25.582  0.00  0.00     0.162 HD
BRANCH  45  47
ATOM     47  C20 non d ame     -32.174   7.856  24.828  0.00  0.00     0.013 C 
ATOM     48  H30 non d ame     -31.210   7.571  25.247  0.00  0.00     0.072 H 
BRANCH  47  49
ATOM     49  C21 non d ame     -32.237   9.356  24.646  0.00  0.00    -0.038 C 
ATOM     50  H31 non d ame     -31.245   9.652  24.303  0.00  0.00     0.036 H 
ATOM     51  H32 non d ame     -33.109   9.540  24.017  0.00  0.00     0.036 H 
BRANCH  49  52
ATOM     52  C22 non d ame     -32.486  10.111  25.970  0.00  0.00     0.018 C 
ATOM     53  H33 non d ame     -33.385   9.669  26.396  0.00  0.00     0.048 H 
ATOM     54  H34 non d ame     -31.544  10.066  26.516  0.00  0.00     0.048 H 
BRANCH  52  55
ATOM     55  C23 non d ame     -32.799  11.621  25.780  0.00  0.00     0.259 C 
ATOM     56  O7  non d ame     -33.474  12.200  26.569  0.00  0.00    -0.265 OA
BRANCH  55  57
ATOM     57  O8  non d ame     -32.283  12.302  24.643  0.00  0.00    -0.317 OA
BRANCH  57  58
ATOM     58  C29 non d ame     -30.991  12.882  24.849  0.00  0.00     0.052 C 
ATOM     59  H47 non d ame     -31.087  13.507  25.736  0.00  0.00     0.082 H 
ATOM     60  H48 non d ame     -30.289  12.050  24.840  0.00  0.00     0.082 H 
BRANCH  58  61
ATOM     61  C35 non d ame     -30.679  13.798  23.634  0.00  0.00    -0.034 A 
ATOM     62  C30 non d ame     -31.407  14.968  23.440  0.00  0.00    -0.075 A 
ATOM     63  C31 non d ame     -31.127  15.790  22.349  0.00  0.00    -0.082 A 
ATOM     64  H49 non d ame     -32.196  15.241  24.141  0.00  0.00     0.084 H 
ATOM     65  C32 non d ame     -30.117  15.438  21.450  0.00  0.00    -0.083 A 
ATOM     66  H50 non d ame     -31.697  16.708  22.200  0.00  0.00     0.083 H 
ATOM     67  C33 non d ame     -29.397  14.267  21.646  0.00  0.00    -0.082 A 
ATOM     68  H51 non d ame     -29.891  16.076  20.595  0.00  0.00     0.083 H 
ATOM     69  C34 non d ame     -29.672  13.443  22.736  0.00  0.00    -0.075 A 
ATOM     70  H52 non d ame     -28.611  13.993  20.941  0.00  0.00     0.083 H 
ATOM     71  H53 non d ame     -29.101  12.527  22.884  0.00  0.00     0.084 H 
ENDBRANCH  58  61
ENDBRANCH  57  58
ENDBRANCH  55  57
ENDBRANCH  52  55
ENDBRANCH  49  52
ENDBRANCH  47  49
BRANCH  47  72
ATOM     72  C24 non d ame     -32.392   7.169  23.481  0.00  0.00    -0.039 C 
ATOM     73  H35 non d ame     -31.402   6.839  23.162  0.00  0.00     0.036 H 
ATOM     74  H36 non d ame     -33.180   6.436  23.654  0.00  0.00     0.036 H 
BRANCH  72  75
ATOM     75  C25 non d ame     -32.931   8.192  22.373  0.00  0.00    -0.001 C 
ATOM     76  C26 non d ame     -34.556   8.019  22.195  0.00  0.00    -0.035 C 
ATOM     77  C27 non d ame     -34.837   7.859  20.879  0.00  0.00     0.085 C 
ATOM     78  H38 non d ame     -34.884   7.081  22.641  0.00  0.00     0.036 H 
ATOM     79  H39 non d ame     -35.062   8.950  22.452  0.00  0.00     0.036 H 
ATOM     80  N5  non d ame     -33.527   7.579  20.180  0.00  0.00    -0.049 N 
ATOM     81  H40 non d ame     -35.467   6.972  20.822  0.00  0.00     0.075 H 
ATOM     82  H41 non d ame     -35.219   8.822  20.544  0.00  0.00     0.075 H 
ATOM     83  C28 non d ame     -32.369   7.981  21.230  0.00  0.00     0.193 C 
ATOM     84  H42 non d ame     -33.492   6.582  20.028  0.00  0.00     0.280 HD
ATOM     85  H43 non d ame     -33.483   8.212  19.394  0.00  0.00     0.280 HD
ATOM     86  H44 non d ame     -31.811   8.910  21.109  0.00  0.00     0.129 H 
ATOM     87  H37 non d ame     -32.553   9.203  22.526  0.00  0.00     0.046 H 
BRANCH  83  88
ATOM     88  O6  non d ame     -31.384   6.948  21.296  0.00  0.00    -0.369 OA
ATOM     89  H45 non d ame     -31.271   6.557  20.426  0.00  0.00     0.212 HD
ENDBRANCH  83  88
ENDBRANCH  72  75
ENDBRANCH  47  72
ENDBRANCH  45  47
ENDBRANCH   1  43
BRANCH   1  90
ATOM     90  C16 non d ame     -35.162   5.766  27.280  0.00  0.00    -0.035 C 
ATOM     91  H21 non d ame     -35.817   6.632  27.199  0.00  0.00     0.037 H 
ATOM     92  H22 non d ame     -34.773   5.289  26.380  0.00  0.00     0.037 H 
BRANCH  90  93
ATOM     93  C17 non d ame     -35.973   4.671  28.046  0.00  0.00    -0.059 C 
ATOM     94  H23 non d ame     -35.360   4.329  28.879  0.00  0.00     0.038 H 
BRANCH  93  95
ATOM     95  C18 non d ame     -37.308   5.229  28.634  0.00  0.00    -0.073 C 
ATOM     96  H24 non d ame     -37.192   6.290  28.855  0.00  0.00     0.028 H 
ATOM     97  H25 non d ame     -38.109   5.096  27.907  0.00  0.00     0.028 H 
ATOM     98  H26 non d ame     -37.554   4.692  29.549  0.00  0.00     0.028 H 
ENDBRANCH  93  95
BRANCH  93  99
ATOM     99  C19 non d ame     -36.238   3.459  27.148  0.00  0.00    -0.073 C 
ATOM    100  H27 non d ame     -35.712   2.590  27.546  0.00  0.00     0.028 H 
ATOM    101  H28 non d ame     -37.308   3.254  27.120  0.00  0.00     0.028 H 
ATOM    102  H29 non d ame     -35.882   3.669  26.140  0.00  0.00     0.028 H 
ENDBRANCH  93  99
ENDBRANCH  90  93
ENDBRANCH   1  90
TORSDOF 26
ENDMDL
MODEL 14
REMARK VINA RESULT:      -6.4      3.156      7.229
REMARK  26 active torsions:
REMARK  status: ('A' for Active; 'I' for Inactive)
REMARK    1  A    between atoms: C2_2  and  C3_3 
REMARK    2  A    between atoms: C4_6  and  C5_7 
REMARK       I    between atoms: C5_7  and  N2_9 
REMARK    3  A    between atoms: N2_9  and  C6_10 
REMARK    4  A    between atoms: C6_10  and  C7_11 
REMARK    5  A    between atoms: C6_10  and  C8_13 
REMARK       I    between atoms: C7_11  and  N3_14 
REMARK    6  A    between atoms: N3_14  and  C9_15 
REMARK    7  A    between atoms: C9_15  and  C10_16 
REMARK    8  A    between atoms: C9_15  and  C11_18 
REMARK       I    between atoms: C10_16  and  N4_21 
REMARK    9  A    between atoms: C11_18  and  C12_19 
REMARK   10  A    between atoms: C11_18  and  C13_20 
REMARK   11  A    between atoms: N4_21  and  C14_22 
REMARK   12  A    between atoms: C14_22  and  C15_23 
REMARK   13  A    between atoms: C14_22  and  C16_25 
REMARK       I    between atoms: C15_23  and  N6_40 
REMARK   14  A    between atoms: C16_25  and  C17_26 
REMARK   15  A    between atoms: C17_26  and  C18_27 
REMARK   16  A    between atoms: C17_26  and  C19_28 
REMARK   17  A    between atoms: C20_29  and  C21_30 
REMARK   18  A    between atoms: C20_29  and  C24_33 
REMARK   19  A    between atoms: C20_29  and  N6_40 
REMARK   20  A    between atoms: C21_30  and  C22_31 
REMARK   21  A    between atoms: C22_31  and  C23_32 
REMARK   22  A    between atoms: C23_32  and  O8_43 
REMARK   23  A    between atoms: C24_33  and  C25_34 
REMARK   24  A    between atoms: C28_38  and  O6_39 
REMARK   25  A    between atoms: C29_42  and  O8_43 
REMARK   26  A    between atoms: C29_42  and  C35_49 
ROOT
ATOM      1  C14 non d ame     -31.077  13.617  24.949  0.00  0.00     0.089 C 
ATOM      2  H20 non d ame     -30.112  13.195  24.666  0.00  0.00     0.087 H 
ENDROOT
BRANCH   1   3
ATOM      3  N4  non d ame     -32.068  12.558  24.833  0.00  0.00    -0.346 N 
ATOM      4  C10 non d ame     -31.845  11.228  25.506  0.00  0.00     0.241 C 
ATOM      5  O4  non d ame     -30.859  11.031  26.136  0.00  0.00    -0.271 OA
ATOM      6  H19 non d ame     -32.900  12.744  24.290  0.00  0.00     0.163 HD
BRANCH   4   7
ATOM      7  C9  non d ame     -32.884  10.145  25.379  0.00  0.00     0.092 C 
ATOM      8  H11 non d ame     -33.448  10.295  24.459  0.00  0.00     0.088 H 
BRANCH   7   9
ATOM      9  N3  non d ame     -32.221   8.841  25.273  0.00  0.00    -0.346 N 
ATOM     10  C7  non d ame     -32.202   8.143  24.012  0.00  0.00     0.240 C 
ATOM     11  O3  non d ame     -32.715   8.615  23.071  0.00  0.00    -0.271 OA
ATOM     12  H10 non d ame     -31.776   8.421  26.076  0.00  0.00     0.163 HD
BRANCH  10  13
ATOM     13  C6  non d ame     -31.498   6.755  23.906  0.00  0.00     0.086 C 
ATOM     14  H6  non d ame     -30.642   6.664  24.574  0.00  0.00     0.086 H 
BRANCH  13  15
ATOM     15  N2  non d ame     -32.439   5.718  24.294  0.00  0.00    -0.343 N 
ATOM     16  C5  non d ame     -32.620   5.401  25.712  0.00  0.00     0.273 C 
ATOM     17  O2  non d ame     -32.002   5.984  26.533  0.00  0.00    -0.266 OA
ATOM     18  H5  non d ame     -32.961   5.222  23.585  0.00  0.00     0.163 HD
BRANCH  16  19
ATOM     19  C4  non d ame     -33.613   4.307  26.136  0.00  0.00     0.154 A 
ATOM     20  C1  non d ame     -35.038   4.410  26.199  0.00  0.00    -0.017 A 
ATOM     21  C2  non d ame     -35.475   3.142  26.642  0.00  0.00     0.077 A 
ATOM     22  H1  non d ame     -35.660   5.273  25.960  0.00  0.00     0.091 H 
ATOM     23  O1  non d ame     -34.417   2.404  26.808  0.00  0.00    -0.218 OA
ATOM     24  N1  non d ame     -33.318   3.062  26.519  0.00  0.00    -0.123 NA
BRANCH  21  25
ATOM     25  C3  non d ame     -36.918   2.717  26.879  0.00  0.00    -0.029 C 
ATOM     26  H2  non d ame     -37.250   2.084  26.056  0.00  0.00     0.036 H 
ATOM     27  H3  non d ame     -36.984   2.159  27.813  0.00  0.00     0.036 H 
ATOM     28  H4  non d ame     -37.553   3.600  26.937  0.00  0.00     0.036 H 
ENDBRANCH  21  25
ENDBRANCH  16  19
ENDBRANCH  13  15
BRANCH  13  29
ATOM     29  C8  non d ame     -31.035   6.530  22.489  0.00  0.00    -0.049 C 
ATOM     30  H7  non d ame     -29.999   6.852  22.389  0.00  0.00     0.030 H 
ATOM     31  H8  non d ame     -31.110   5.470  22.246  0.00  0.00     0.030 H 
ATOM     32  H9  non d ame     -31.662   7.105  21.806  0.00  0.00     0.030 H 
ENDBRANCH  13  29
ENDBRANCH  10  13
ENDBRANCH   7   9
BRANCH   7  33
ATOM     33  C11 non d ame     -33.802  10.156  26.637  0.00  0.00    -0.033 C 
ATOM     34  H12 non d ame     -33.359  10.841  27.360  0.00  0.00     0.042 H 
BRANCH  33  35
ATOM     35  C12 non d ame     -35.227  10.692  26.296  0.00  0.00    -0.071 C 
ATOM     36  H13 non d ame     -35.309  10.846  25.219  0.00  0.00     0.028 H 
ATOM     37  H14 non d ame     -35.975   9.968  26.617  0.00  0.00     0.028 H 
ATOM     38  H15 non d ame     -35.392  11.639  26.810  0.00  0.00     0.028 H 
ENDBRANCH  33  35
BRANCH  33  39
ATOM     39  C13 non d ame     -33.870   8.740  27.292  0.00  0.00    -0.071 C 
ATOM     40  H16 non d ame     -34.895   8.532  27.603  0.00  0.00     0.028 H 
ATOM     41  H17 non d ame     -33.550   7.989  26.569  0.00  0.00     0.028 H 
ATOM     42  H18 non d ame     -33.214   8.709  28.161  0.00  0.00     0.028 H 
ENDBRANCH  33  39
ENDBRANCH   7  33
ENDBRANCH   4   7
ENDBRANCH   1   3
BRANCH   1  43
ATOM     43  C15 non d ame     -31.081  14.140  26.415  0.00  0.00     0.240 C 
ATOM     44  O5  non d ame     -30.059  14.226  27.015  0.00  0.00    -0.271 OA
ATOM     45  N6  non d ame     -32.359  14.544  27.067  0.00  0.00    -0.355 N 
ATOM     46  H46 non d ame     -33.234  14.481  26.565  0.00  0.00     0.162 HD
BRANCH  45  47
ATOM     47  C20 non d ame     -32.346  15.041  28.460  0.00  0.00     0.013 C 
ATOM     48  H30 non d ame     -31.309  15.232  28.737  0.00  0.00     0.072 H 
BRANCH  47  49
ATOM     49  C21 non d ame     -32.940  13.991  29.371  0.00  0.00    -0.038 C 
ATOM     50  H31 non d ame     -32.644  14.275  30.381  0.00  0.00     0.036 H 
ATOM     51  H32 non d ame     -33.997  13.937  29.107  0.00  0.00     0.036 H 
BRANCH  49  52
ATOM     52  C22 non d ame     -32.356  12.583  29.123  0.00  0.00     0.018 C 
ATOM     53  H33 non d ame     -33.177  11.988  28.726  0.00  0.00     0.048 H 
ATOM     54  H34 non d ame     -31.456  12.738  28.528  0.00  0.00     0.048 H 
BRANCH  52  55
ATOM     55  C23 non d ame     -31.892  11.861  30.419  0.00  0.00     0.259 C 
ATOM     56  O7  non d ame     -30.939  12.246  31.016  0.00  0.00    -0.265 OA
BRANCH  55  57
ATOM     57  O8  non d ame     -32.613  10.723  30.879  0.00  0.00    -0.317 OA
BRANCH  57  58
ATOM     58  C29 non d ame     -33.902  11.029  31.419  0.00  0.00     0.052 C 
ATOM     59  H47 non d ame     -33.798  10.939  32.500  0.00  0.00     0.082 H 
ATOM     60  H48 non d ame     -34.189  11.982  30.976  0.00  0.00     0.082 H 
BRANCH  58  61
ATOM     61  C35 non d ame     -34.896   9.942  30.928  0.00  0.00    -0.034 A 
ATOM     62  C30 non d ame     -35.874  10.265  29.993  0.00  0.00    -0.075 A 
ATOM     63  C31 non d ame     -36.767   9.289  29.553  0.00  0.00    -0.082 A 
ATOM     64  H49 non d ame     -35.942  11.281  29.605  0.00  0.00     0.084 H 
ATOM     65  C32 non d ame     -36.680   7.987  30.052  0.00  0.00    -0.083 A 
ATOM     66  H50 non d ame     -37.532   9.544  28.818  0.00  0.00     0.083 H 
ATOM     67  C33 non d ame     -35.705   7.671  30.988  0.00  0.00    -0.082 A 
ATOM     68  H51 non d ame     -37.374   7.217  29.712  0.00  0.00     0.083 H 
ATOM     69  C34 non d ame     -34.809   8.642  31.430  0.00  0.00    -0.075 A 
ATOM     70  H52 non d ame     -35.641   6.654  31.378  0.00  0.00     0.083 H 
ATOM     71  H53 non d ame     -34.045   8.386  32.164  0.00  0.00     0.084 H 
ENDBRANCH  58  61
ENDBRANCH  57  58
ENDBRANCH  55  57
ENDBRANCH  52  55
ENDBRANCH  49  52
ENDBRANCH  47  49
BRANCH  47  72
ATOM     72  C24 non d ame     -33.166  16.325  28.558  0.00  0.00    -0.039 C 
ATOM     73  H35 non d ame     -34.102  16.035  29.036  0.00  0.00     0.036 H 
ATOM     74  H36 non d ame     -32.511  17.052  29.039  0.00  0.00     0.036 H 
BRANCH  72  75
ATOM     75  C25 non d ame     -33.535  16.905  27.111  0.00  0.00    -0.001 C 
ATOM     76  C26 non d ame     -32.397  17.993  26.638  0.00  0.00    -0.035 C 
ATOM     77  C27 non d ame     -33.017  19.135  26.254  0.00  0.00     0.085 C 
ATOM     78  H38 non d ame     -31.797  18.304  27.493  0.00  0.00     0.036 H 
ATOM     79  H39 non d ame     -31.908  17.651  25.726  0.00  0.00     0.036 H 
ATOM     80  N5  non d ame     -34.447  19.042  26.731  0.00  0.00    -0.049 N 
ATOM     81  H40 non d ame     -32.513  19.936  26.796  0.00  0.00     0.075 H 
ATOM     82  H41 non d ame     -33.004  19.122  25.165  0.00  0.00     0.075 H 
ATOM     83  C28 non d ame     -34.684  17.494  27.123  0.00  0.00     0.193 C 
ATOM     84  H42 non d ame     -34.505  19.598  27.571  0.00  0.00     0.280 HD
ATOM     85  H43 non d ame     -35.027  19.266  25.935  0.00  0.00     0.280 HD
ATOM     86  H44 non d ame     -35.250  16.837  26.461  0.00  0.00     0.129 H 
ATOM     87  H37 non d ame     -33.792  16.117  26.404  0.00  0.00     0.046 H 
BRANCH  83  88
ATOM     88  O6  non d ame     -35.325  17.400  28.396  0.00  0.00    -0.369 OA
ATOM     89  H45 non d ame     -35.730  18.244  28.614  0.00  0.00     0.212 HD
ENDBRANCH  83  88
ENDBRANCH  72  75
ENDBRANCH  47  72
ENDBRANCH  45  47
ENDBRANCH   1  43
BRANCH   1  90
ATOM     90  C16 non d ame     -31.443  14.748  24.002  0.00  0.00    -0.035 C 
ATOM     91  H21 non d ame     -32.324  14.400  23.465  0.00  0.00     0.037 H 
ATOM     92  H22 non d ame     -31.500  15.640  24.626  0.00  0.00     0.037 H 
BRANCH  90  93
ATOM     93  C17 non d ame     -30.353  15.035  22.920  0.00  0.00    -0.059 C 
ATOM     94  H23 non d ame     -29.558  15.609  23.396  0.00  0.00     0.038 H 
BRANCH  93  95
ATOM     95  C18 non d ame     -29.720  13.723  22.358  0.00  0.00    -0.073 C 
ATOM     96  H24 non d ame     -28.674  13.901  22.106  0.00  0.00     0.028 H 
ATOM     97  H25 non d ame     -29.781  12.938  23.111  0.00  0.00     0.028 H 
ATOM     98  H26 non d ame     -30.261  13.412  21.464  0.00  0.00     0.028 H 
ENDBRANCH  93  95
BRANCH  93  99
ATOM     99  C19 non d ame     -30.920  15.894  21.787  0.00  0.00    -0.073 C 
ATOM    100  H27 non d ame     -30.377  16.840  21.741  0.00  0.00     0.028 H 
ATOM    101  H28 non d ame     -30.810  15.367  20.839  0.00  0.00     0.028 H 
ATOM    102  H29 non d ame     -31.976  16.090  21.973  0.00  0.00     0.028 H 
ENDBRANCH  93  99
ENDBRANCH  90  93
ENDBRANCH   1  90
TORSDOF 26
ENDMDL
MODEL 15
REMARK VINA RESULT:      -6.4      2.855      9.583
REMARK  26 active torsions:
REMARK  status: ('A' for Active; 'I' for Inactive)
REMARK    1  A    between atoms: C2_2  and  C3_3 
REMARK    2  A    between atoms: C4_6  and  C5_7 
REMARK       I    between atoms: C5_7  and  N2_9 
REMARK    3  A    between atoms: N2_9  and  C6_10 
REMARK    4  A    between atoms: C6_10  and  C7_11 
REMARK    5  A    between atoms: C6_10  and  C8_13 
REMARK       I    between atoms: C7_11  and  N3_14 
REMARK    6  A    between atoms: N3_14  and  C9_15 
REMARK    7  A    between atoms: C9_15  and  C10_16 
REMARK    8  A    between atoms: C9_15  and  C11_18 
REMARK       I    between atoms: C10_16  and  N4_21 
REMARK    9  A    between atoms: C11_18  and  C12_19 
REMARK   10  A    between atoms: C11_18  and  C13_20 
REMARK   11  A    between atoms: N4_21  and  C14_22 
REMARK   12  A    between atoms: C14_22  and  C15_23 
REMARK   13  A    between atoms: C14_22  and  C16_25 
REMARK       I    between atoms: C15_23  and  N6_40 
REMARK   14  A    between atoms: C16_25  and  C17_26 
REMARK   15  A    between atoms: C17_26  and  C18_27 
REMARK   16  A    between atoms: C17_26  and  C19_28 
REMARK   17  A    between atoms: C20_29  and  C21_30 
REMARK   18  A    between atoms: C20_29  and  C24_33 
REMARK   19  A    between atoms: C20_29  and  N6_40 
REMARK   20  A    between atoms: C21_30  and  C22_31 
REMARK   21  A    between atoms: C22_31  and  C23_32 
REMARK   22  A    between atoms: C23_32  and  O8_43 
REMARK   23  A    between atoms: C24_33  and  C25_34 
REMARK   24  A    between atoms: C28_38  and  O6_39 
REMARK   25  A    between atoms: C29_42  and  O8_43 
REMARK   26  A    between atoms: C29_42  and  C35_49 
ROOT
ATOM      1  C14 non d ame     -36.788  11.374  27.111  0.00  0.00     0.089 C 
ATOM      2  H20 non d ame     -37.603  10.658  27.223  0.00  0.00     0.087 H 
ENDROOT
BRANCH   1   3
ATOM      3  N4  non d ame     -36.017  11.357  28.345  0.00  0.00    -0.346 N 
ATOM      4  C10 non d ame     -35.793  10.063  29.086  0.00  0.00     0.241 C 
ATOM      5  O4  non d ame     -36.245   9.047  28.670  0.00  0.00    -0.271 OA
ATOM      6  H19 non d ame     -35.643  12.232  28.683  0.00  0.00     0.163 HD
BRANCH   4   7
ATOM      7  C9  non d ame     -34.989  10.063  30.359  0.00  0.00     0.092 C 
ATOM      8  H11 non d ame     -34.437   9.126  30.435  0.00  0.00     0.088 H 
BRANCH   7   9
ATOM      9  N3  non d ame     -34.001  11.145  30.314  0.00  0.00    -0.346 N 
ATOM     10  C7  non d ame     -32.779  10.975  29.567  0.00  0.00     0.240 C 
ATOM     11  O3  non d ame     -32.575   9.973  28.996  0.00  0.00    -0.271 OA
ATOM     12  H10 non d ame     -34.163  12.014  30.802  0.00  0.00     0.163 HD
BRANCH  10  13
ATOM     13  C6  non d ame     -31.730  12.129  29.525  0.00  0.00     0.086 C 
ATOM     14  H6  non d ame     -31.009  12.014  28.716  0.00  0.00     0.086 H 
BRANCH  13  15
ATOM     15  N2  non d ame     -32.420  13.386  29.290  0.00  0.00    -0.343 N 
ATOM     16  C5  non d ame     -31.809  14.394  28.421  0.00  0.00     0.273 C 
ATOM     17  O2  non d ame     -30.760  14.185  27.918  0.00  0.00    -0.266 OA
ATOM     18  H5  non d ame     -33.315  13.557  29.726  0.00  0.00     0.163 HD
BRANCH  16  19
ATOM     19  C4  non d ame     -32.529  15.727  28.164  0.00  0.00     0.154 A 
ATOM     20  C1  non d ame     -33.311  16.081  27.019  0.00  0.00    -0.017 A 
ATOM     21  C2  non d ame     -33.745  17.401  27.271  0.00  0.00     0.077 A 
ATOM     22  H1  non d ame     -33.529  15.473  26.141  0.00  0.00     0.091 H 
ATOM     23  O1  non d ame     -33.266  17.754  28.427  0.00  0.00    -0.218 OA
ATOM     24  N1  non d ame     -32.552  16.794  28.968  0.00  0.00    -0.123 NA
BRANCH  21  25
ATOM     25  C3  non d ame     -34.616  18.253  26.357  0.00  0.00    -0.029 C 
ATOM     26  H2  non d ame     -34.420  17.990  25.318  0.00  0.00     0.036 H 
ATOM     27  H3  non d ame     -35.667  18.071  26.584  0.00  0.00     0.036 H 
ATOM     28  H4  non d ame     -34.388  19.307  26.514  0.00  0.00     0.036 H 
ENDBRANCH  21  25
ENDBRANCH  16  19
ENDBRANCH  13  15
BRANCH  13  29
ATOM     29  C8  non d ame     -30.987  12.184  30.835  0.00  0.00    -0.049 C 
ATOM     30  H7  non d ame     -29.914  12.168  30.646  0.00  0.00     0.030 H 
ATOM     31  H8  non d ame     -31.248  13.100  31.363  0.00  0.00     0.030 H 
ATOM     32  H9  non d ame     -31.261  11.322  31.444  0.00  0.00     0.030 H 
ENDBRANCH  13  29
ENDBRANCH  10  13
ENDBRANCH   7   9
BRANCH   7  33
ATOM     33  C11 non d ame     -35.939  10.283  31.573  0.00  0.00    -0.033 C 
ATOM     34  H12 non d ame     -36.761  10.916  31.236  0.00  0.00     0.042 H 
BRANCH  33  35
ATOM     35  C12 non d ame     -36.556   8.936  32.062  0.00  0.00    -0.071 C 
ATOM     36  H13 non d ame     -36.158   8.115  31.464  0.00  0.00     0.028 H 
ATOM     37  H14 non d ame     -36.301   8.779  33.110  0.00  0.00     0.028 H 
ATOM     38  H15 non d ame     -37.640   8.970  31.953  0.00  0.00     0.028 H 
ENDBRANCH  33  35
BRANCH  33  39
ATOM     39  C13 non d ame     -35.202  11.025  32.733  0.00  0.00    -0.071 C 
ATOM     40  H16 non d ame     -34.155  10.722  32.751  0.00  0.00     0.028 H 
ATOM     41  H17 non d ame     -35.267  12.102  32.576  0.00  0.00     0.028 H 
ATOM     42  H18 non d ame     -35.671  10.769  33.683  0.00  0.00     0.028 H 
ENDBRANCH  33  39
ENDBRANCH   7  33
ENDBRANCH   4   7
ENDBRANCH   1   3
BRANCH   1  43
ATOM     43  C15 non d ame     -35.842  11.007  25.931  0.00  0.00     0.240 C 
ATOM     44  O5  non d ame     -35.415  11.864  25.228  0.00  0.00    -0.271 OA
ATOM     45  N6  non d ame     -35.461   9.588  25.684  0.00  0.00    -0.355 N 
ATOM     46  H46 non d ame     -35.814   8.851  26.279  0.00  0.00     0.162 HD
BRANCH  45  47
ATOM     47  C20 non d ame     -34.561   9.256  24.559  0.00  0.00     0.013 C 
ATOM     48  H30 non d ame     -34.720   9.994  23.774  0.00  0.00     0.072 H 
BRANCH  47  49
ATOM     49  C21 non d ame     -34.892   7.873  24.044  0.00  0.00    -0.038 C 
ATOM     50  H31 non d ame     -35.716   8.010  23.344  0.00  0.00     0.036 H 
ATOM     51  H32 non d ame     -33.947   7.454  23.699  0.00  0.00     0.036 H 
BRANCH  49  52
ATOM     52  C22 non d ame     -35.410   6.929  25.152  0.00  0.00     0.018 C 
ATOM     53  H33 non d ame     -35.076   7.367  26.092  0.00  0.00     0.048 H 
ATOM     54  H34 non d ame     -36.475   6.803  24.956  0.00  0.00     0.048 H 
BRANCH  52  55
ATOM     55  C23 non d ame     -34.792   5.504  25.099  0.00  0.00     0.259 C 
ATOM     56  O7  non d ame     -34.747   4.905  24.073  0.00  0.00    -0.265 OA
BRANCH  55  57
ATOM     57  O8  non d ame     -34.292   4.917  26.294  0.00  0.00    -0.317 OA
BRANCH  57  58
ATOM     58  C29 non d ame     -35.161   3.936  26.869  0.00  0.00     0.052 C 
ATOM     59  H47 non d ame     -35.886   3.693  26.093  0.00  0.00     0.082 H 
ATOM     60  H48 non d ame     -34.508   3.161  27.268  0.00  0.00     0.082 H 
BRANCH  58  61
ATOM     61  C35 non d ame     -35.913   4.600  28.054  0.00  0.00    -0.034 A 
ATOM     62  C30 non d ame     -37.304   4.576  28.096  0.00  0.00    -0.075 A 
ATOM     63  C31 non d ame     -37.980   5.172  29.160  0.00  0.00    -0.082 A 
ATOM     64  H49 non d ame     -37.864   4.092  27.296  0.00  0.00     0.084 H 
ATOM     65  C32 non d ame     -37.260   5.795  30.183  0.00  0.00    -0.083 A 
ATOM     66  H50 non d ame     -39.070   5.151  29.191  0.00  0.00     0.083 H 
ATOM     67  C33 non d ame     -35.873   5.819  30.134  0.00  0.00    -0.082 A 
ATOM     68  H51 non d ame     -37.781   6.263  31.019  0.00  0.00     0.083 H 
ATOM     69  C34 non d ame     -35.193   5.223  29.074  0.00  0.00    -0.075 A 
ATOM     70  H52 non d ame     -35.314   6.308  30.933  0.00  0.00     0.083 H 
ATOM     71  H53 non d ame     -34.103   5.244  29.044  0.00  0.00     0.084 H 
ENDBRANCH  58  61
ENDBRANCH  57  58
ENDBRANCH  55  57
ENDBRANCH  52  55
ENDBRANCH  49  52
ENDBRANCH  47  49
BRANCH  47  72
ATOM     72  C24 non d ame     -33.109   9.290  25.032  0.00  0.00    -0.039 C 
ATOM     73  H35 non d ame     -33.145   9.690  26.047  0.00  0.00     0.036 H 
ATOM     74  H36 non d ame     -32.722   8.286  24.856  0.00  0.00     0.036 H 
BRANCH  72  75
ATOM     75  C25 non d ame     -32.224  10.298  24.158  0.00  0.00    -0.001 C 
ATOM     76  C26 non d ame     -31.653   9.528  22.822  0.00  0.00    -0.035 C 
ATOM     77  C27 non d ame     -30.314   9.720  22.746  0.00  0.00     0.085 C 
ATOM     78  H38 non d ame     -31.749   8.449  22.943  0.00  0.00     0.036 H 
ATOM     79  H39 non d ame     -32.031  10.011  21.921  0.00  0.00     0.036 H 
ATOM     80  N5  non d ame     -29.871  10.273  24.080  0.00  0.00    -0.049 N 
ATOM     81  H40 non d ame     -29.885   8.727  22.612  0.00  0.00     0.075 H 
ATOM     82  H41 non d ame     -30.173  10.482  21.981  0.00  0.00     0.075 H 
ATOM     83  C28 non d ame     -31.218  10.744  24.834  0.00  0.00     0.193 C 
ATOM     84  H42 non d ame     -29.470   9.500  24.590  0.00  0.00     0.280 HD
ATOM     85  H43 non d ame     -29.312  11.090  23.877  0.00  0.00     0.280 HD
ATOM     86  H44 non d ame     -31.475  11.802  24.897  0.00  0.00     0.129 H 
ATOM     87  H37 non d ame     -32.720  11.256  24.003  0.00  0.00     0.046 H 
BRANCH  83  88
ATOM     88  O6  non d ame     -31.221  10.269  26.181  0.00  0.00    -0.369 OA
ATOM     89  H45 non d ame     -30.985  10.986  26.775  0.00  0.00     0.212 HD
ENDBRANCH  83  88
ENDBRANCH  72  75
ENDBRANCH  47  72
ENDBRANCH  45  47
ENDBRANCH   1  43
BRANCH   1  90
ATOM     90  C16 non d ame     -37.354  12.769  26.897  0.00  0.00    -0.035 C 
ATOM     91  H21 non d ame     -37.636  13.120  27.888  0.00  0.00     0.037 H 
ATOM     92  H22 non d ame     -36.595  13.303  26.325  0.00  0.00     0.037 H 
BRANCH  90  93
ATOM     93  C17 non d ame     -38.656  12.791  26.035  0.00  0.00    -0.059 C 
ATOM     94  H23 non d ame     -38.707  11.848  25.490  0.00  0.00     0.038 H 
BRANCH  93  95
ATOM     95  C18 non d ame     -39.943  12.903  26.912  0.00  0.00    -0.073 C 
ATOM     96  H24 non d ame     -40.158  13.953  27.111  0.00  0.00     0.028 H 
ATOM     97  H25 non d ame     -40.784  12.455  26.383  0.00  0.00     0.028 H 
ATOM     98  H26 non d ame     -39.787  12.379  27.855  0.00  0.00     0.028 H 
ENDBRANCH  93  95
BRANCH  93  99
ATOM     99  C19 non d ame     -38.606  13.915  24.997  0.00  0.00    -0.073 C 
ATOM    100  H27 non d ame     -37.770  14.579  25.221  0.00  0.00     0.028 H 
ATOM    101  H28 non d ame     -38.472  13.488  24.003  0.00  0.00     0.028 H 
ATOM    102  H29 non d ame     -39.537  14.480  25.027  0.00  0.00     0.028 H 
ENDBRANCH  93  99
ENDBRANCH  90  93
ENDBRANCH   1  90
TORSDOF 26
ENDMDL
MODEL 16
REMARK VINA RESULT:      -6.4      4.007      6.634
REMARK  26 active torsions:
REMARK  status: ('A' for Active; 'I' for Inactive)
REMARK    1  A    between atoms: C2_2  and  C3_3 
REMARK    2  A    between atoms: C4_6  and  C5_7 
REMARK       I    between atoms: C5_7  and  N2_9 
REMARK    3  A    between atoms: N2_9  and  C6_10 
REMARK    4  A    between atoms: C6_10  and  C7_11 
REMARK    5  A    between atoms: C6_10  and  C8_13 
REMARK       I    between atoms: C7_11  and  N3_14 
REMARK    6  A    between atoms: N3_14  and  C9_15 
REMARK    7  A    between atoms: C9_15  and  C10_16 
REMARK    8  A    between atoms: C9_15  and  C11_18 
REMARK       I    between atoms: C10_16  and  N4_21 
REMARK    9  A    between atoms: C11_18  and  C12_19 
REMARK   10  A    between atoms: C11_18  and  C13_20 
REMARK   11  A    between atoms: N4_21  and  C14_22 
REMARK   12  A    between atoms: C14_22  and  C15_23 
REMARK   13  A    between atoms: C14_22  and  C16_25 
REMARK       I    between atoms: C15_23  and  N6_40 
REMARK   14  A    between atoms: C16_25  and  C17_26 
REMARK   15  A    between atoms: C17_26  and  C18_27 
REMARK   16  A    between atoms: C17_26  and  C19_28 
REMARK   17  A    between atoms: C20_29  and  C21_30 
REMARK   18  A    between atoms: C20_29  and  C24_33 
REMARK   19  A    between atoms: C20_29  and  N6_40 
REMARK   20  A    between atoms: C21_30  and  C22_31 
REMARK   21  A    between atoms: C22_31  and  C23_32 
REMARK   22  A    between atoms: C23_32  and  O8_43 
REMARK   23  A    between atoms: C24_33  and  C25_34 
REMARK   24  A    between atoms: C28_38  and  O6_39 
REMARK   25  A    between atoms: C29_42  and  O8_43 
REMARK   26  A    between atoms: C29_42  and  C35_49 
ROOT
ATOM      1  C14 non d ame     -30.907  11.439  24.015  0.00  0.00     0.089 C 
ATOM      2  H20 non d ame     -29.888  11.062  23.927  0.00  0.00     0.087 H 
ENDROOT
BRANCH   1   3
ATOM      3  N4  non d ame     -31.801  10.407  23.510  0.00  0.00    -0.346 N 
ATOM      4  C10 non d ame     -31.255   9.071  23.078  0.00  0.00     0.241 C 
ATOM      5  O4  non d ame     -30.091   8.847  23.144  0.00  0.00    -0.271 OA
ATOM      6  H19 non d ame     -32.788  10.618  23.458  0.00  0.00     0.163 HD
BRANCH   4   7
ATOM      7  C9  non d ame     -32.195   8.013  22.562  0.00  0.00     0.092 C 
ATOM      8  H11 non d ame     -31.703   7.454  21.766  0.00  0.00     0.088 H 
BRANCH   7   9
ATOM      9  N3  non d ame     -32.498   7.062  23.636  0.00  0.00    -0.346 N 
ATOM     10  C7  non d ame     -32.614   5.655  23.341  0.00  0.00     0.240 C 
ATOM     11  O3  non d ame     -32.466   5.271  22.245  0.00  0.00    -0.271 OA
ATOM     12  H10 non d ame     -32.629   7.379  24.585  0.00  0.00     0.163 HD
BRANCH  10  13
ATOM     13  C6  non d ame     -32.940   4.648  24.487  0.00  0.00     0.086 C 
ATOM     14  H6  non d ame     -32.100   4.494  25.164  0.00  0.00     0.086 H 
BRANCH  13  15
ATOM     15  N2  non d ame     -34.028   5.182  25.289  0.00  0.00    -0.343 N 
ATOM     16  C5  non d ame     -34.033   4.963  26.736  0.00  0.00     0.273 C 
ATOM     17  O2  non d ame     -33.158   4.353  27.247  0.00  0.00    -0.266 OA
ATOM     18  H5  non d ame     -34.773   5.699  24.844  0.00  0.00     0.163 HD
BRANCH  16  19
ATOM     19  C4  non d ame     -35.177   5.523  27.596  0.00  0.00     0.154 A 
ATOM     20  C1  non d ame     -35.434   5.251  28.977  0.00  0.00    -0.017 A 
ATOM     21  C2  non d ame     -36.589   6.003  29.286  0.00  0.00     0.077 A 
ATOM     22  H1  non d ame     -34.869   4.607  29.651  0.00  0.00     0.091 H 
ATOM     23  O1  non d ame     -36.945   6.631  28.204  0.00  0.00    -0.218 OA
ATOM     24  N1  non d ame     -36.136   6.366  27.204  0.00  0.00    -0.123 NA
BRANCH  21  25
ATOM     25  C3  non d ame     -37.288   6.068  30.638  0.00  0.00    -0.029 C 
ATOM     26  H2  non d ame     -36.921   5.264  31.276  0.00  0.00     0.036 H 
ATOM     27  H3  non d ame     -37.078   7.028  31.110  0.00  0.00     0.036 H 
ATOM     28  H4  non d ame     -38.363   5.959  30.498  0.00  0.00     0.036 H 
ENDBRANCH  21  25
ENDBRANCH  16  19
ENDBRANCH  13  15
BRANCH  13  29
ATOM     29  C8  non d ame     -33.337   3.320  23.895  0.00  0.00    -0.049 C 
ATOM     30  H7  non d ame     -32.443   2.747  23.654  0.00  0.00     0.030 H 
ATOM     31  H8  non d ame     -33.940   2.766  24.615  0.00  0.00     0.030 H 
ATOM     32  H9  non d ame     -33.918   3.486  22.986  0.00  0.00     0.030 H 
ENDBRANCH  13  29
ENDBRANCH  10  13
ENDBRANCH   7   9
BRANCH   7  33
ATOM     33  C11 non d ame     -33.514   8.683  22.079  0.00  0.00    -0.033 C 
ATOM     34  H12 non d ame     -33.291   9.727  21.858  0.00  0.00     0.042 H 
BRANCH  33  35
ATOM     35  C12 non d ame     -34.036   8.027  20.763  0.00  0.00    -0.071 C 
ATOM     36  H13 non d ame     -33.315   8.193  19.963  0.00  0.00     0.028 H 
ATOM     37  H14 non d ame     -34.167   6.956  20.917  0.00  0.00     0.028 H 
ATOM     38  H15 non d ame     -34.991   8.474  20.487  0.00  0.00     0.028 H 
ENDBRANCH  33  35
BRANCH  33  39
ATOM     39  C13 non d ame     -34.602   8.649  23.199  0.00  0.00    -0.071 C 
ATOM     40  H16 non d ame     -35.551   9.002  22.796  0.00  0.00     0.028 H 
ATOM     41  H17 non d ame     -34.718   7.627  23.563  0.00  0.00     0.028 H 
ATOM     42  H18 non d ame     -34.295   9.293  24.024  0.00  0.00     0.028 H 
ENDBRANCH  33  39
ENDBRANCH   7  33
ENDBRANCH   4   7
ENDBRANCH   1   3
BRANCH   1  43
ATOM     43  C15 non d ame     -31.293  11.749  25.490  0.00  0.00     0.240 C 
ATOM     44  O5  non d ame     -30.908  11.039  26.363  0.00  0.00    -0.271 OA
ATOM     45  N6  non d ame     -32.133  12.936  25.817  0.00  0.00    -0.355 N 
ATOM     46  H46 non d ame     -32.462  13.548  25.084  0.00  0.00     0.162 HD
BRANCH  45  47
ATOM     47  C20 non d ame     -32.490  13.216  27.224  0.00  0.00     0.013 C 
ATOM     48  H30 non d ame     -32.216  12.345  27.819  0.00  0.00     0.072 H 
BRANCH  47  49
ATOM     49  C21 non d ame     -33.978  13.464  27.323  0.00  0.00    -0.038 C 
ATOM     50  H31 non d ame     -34.276  13.080  28.299  0.00  0.00     0.036 H 
ATOM     51  H32 non d ame     -34.117  14.519  27.087  0.00  0.00     0.036 H 
BRANCH  49  52
ATOM     52  C22 non d ame     -34.789  12.671  26.275  0.00  0.00     0.018 C 
ATOM     53  H33 non d ame     -35.627  13.312  26.005  0.00  0.00     0.048 H 
ATOM     54  H34 non d ame     -34.069  12.365  25.516  0.00  0.00     0.048 H 
BRANCH  52  55
ATOM     55  C23 non d ame     -35.412  11.360  26.828  0.00  0.00     0.259 C 
ATOM     56  O7  non d ame     -35.239  10.326  26.266  0.00  0.00    -0.265 OA
BRANCH  55  57
ATOM     57  O8  non d ame     -36.206  11.409  28.007  0.00  0.00    -0.317 OA
BRANCH  57  58
ATOM     58  C29 non d ame     -36.819  10.162  28.349  0.00  0.00     0.052 C 
ATOM     59  H47 non d ame     -37.879  10.381  28.481  0.00  0.00     0.082 H 
ATOM     60  H48 non d ame     -36.500   9.456  27.584  0.00  0.00     0.082 H 
BRANCH  58  61
ATOM     61  C35 non d ame     -36.238   9.702  29.713  0.00  0.00    -0.034 A 
ATOM     62  C30 non d ame     -36.990   9.850  30.875  0.00  0.00    -0.075 A 
ATOM     63  C31 non d ame     -36.468   9.437  32.100  0.00  0.00    -0.082 A 
ATOM     64  H49 non d ame     -37.986  10.289  30.826  0.00  0.00     0.084 H 
ATOM     65  C32 non d ame     -35.190   8.875  32.161  0.00  0.00    -0.083 A 
ATOM     66  H50 non d ame     -37.060   9.552  33.009  0.00  0.00     0.083 H 
ATOM     67  C33 non d ame     -34.443   8.734  31.000  0.00  0.00    -0.082 A 
ATOM     68  H51 non d ame     -34.775   8.549  33.116  0.00  0.00     0.083 H 
ATOM     69  C34 non d ame     -34.961   9.143  29.773  0.00  0.00    -0.075 A 
ATOM     70  H52 non d ame     -33.444   8.297  31.051  0.00  0.00     0.083 H 
ATOM     71  H53 non d ame     -34.369   9.027  28.865  0.00  0.00     0.084 H 
ENDBRANCH  58  61
ENDBRANCH  57  58
ENDBRANCH  55  57
ENDBRANCH  52  55
ENDBRANCH  49  52
ENDBRANCH  47  49
BRANCH  47  72
ATOM     72  C24 non d ame     -31.733  14.450  27.712  0.00  0.00    -0.039 C 
ATOM     73  H35 non d ame     -31.211  14.835  26.835  0.00  0.00     0.036 H 
ATOM     74  H36 non d ame     -32.477  15.066  28.217  0.00  0.00     0.036 H 
BRANCH  72  75
ATOM     75  C25 non d ame     -30.617  14.071  28.797  0.00  0.00    -0.001 C 
ATOM     76  C26 non d ame     -30.693  12.465  29.139  0.00  0.00    -0.035 C 
ATOM     77  C27 non d ame     -30.758  12.307  30.483  0.00  0.00     0.085 C 
ATOM     78  H38 non d ame     -31.638  12.051  28.788  0.00  0.00     0.036 H 
ATOM     79  H39 non d ame     -29.753  11.980  28.871  0.00  0.00     0.036 H 
ATOM     80  N5  non d ame     -31.064  13.663  31.072  0.00  0.00    -0.049 N 
ATOM     81  H40 non d ame     -31.605  11.643  30.657  0.00  0.00     0.075 H 
ATOM     82  H41 non d ame     -29.757  12.005  30.789  0.00  0.00     0.075 H 
ATOM     83  C28 non d ame     -30.789  14.731  29.893  0.00  0.00     0.193 C 
ATOM     84  H42 non d ame     -32.051  13.666  31.284  0.00  0.00     0.280 HD
ATOM     85  H43 non d ame     -30.388  13.814  31.807  0.00  0.00     0.280 HD
ATOM     86  H44 non d ame     -29.885  15.342  29.900  0.00  0.00     0.129 H 
ATOM     87  H37 non d ame     -29.639  14.479  28.543  0.00  0.00     0.046 H 
BRANCH  83  88
ATOM     88  O6  non d ame     -31.875  15.656  29.802  0.00  0.00    -0.369 OA
ATOM     89  H45 non d ame     -31.760  16.209  29.025  0.00  0.00     0.212 HD
ENDBRANCH  83  88
ENDBRANCH  72  75
ENDBRANCH  47  72
ENDBRANCH  45  47
ENDBRANCH   1  43
BRANCH   1  90
ATOM     90  C16 non d ame     -31.068  12.693  23.171  0.00  0.00    -0.035 C 
ATOM     91  H21 non d ame     -31.086  12.346  22.139  0.00  0.00     0.037 H 
ATOM     92  H22 non d ame     -31.930  13.213  23.588  0.00  0.00     0.037 H 
BRANCH  90  93
ATOM     93  C17 non d ame     -29.862  13.680  23.281  0.00  0.00    -0.059 C 
ATOM     94  H23 non d ame     -29.262  13.374  24.138  0.00  0.00     0.038 H 
BRANCH  93  95
ATOM     95  C18 non d ame     -28.945  13.634  22.018  0.00  0.00    -0.073 C 
ATOM     96  H24 non d ame     -29.017  14.580  21.481  0.00  0.00     0.028 H 
ATOM     97  H25 non d ame     -27.912  13.470  22.324  0.00  0.00     0.028 H 
ATOM     98  H26 non d ame     -29.264  12.821  21.366  0.00  0.00     0.028 H 
ENDBRANCH  93  95
BRANCH  93  99
ATOM     99  C19 non d ame     -30.346  15.107  23.551  0.00  0.00    -0.073 C 
ATOM    100  H27 non d ame     -31.023  15.105  24.406  0.00  0.00     0.028 H 
ATOM    101  H28 non d ame     -29.490  15.747  23.767  0.00  0.00     0.028 H 
ATOM    102  H29 non d ame     -30.870  15.485  22.673  0.00  0.00     0.028 H 
ENDBRANCH  93  99
ENDBRANCH  90  93
ENDBRANCH   1  90
TORSDOF 26
ENDMDL
MODEL 17
REMARK VINA RESULT:      -6.3      3.601     10.268
REMARK  26 active torsions:
REMARK  status: ('A' for Active; 'I' for Inactive)
REMARK    1  A    between atoms: C2_2  and  C3_3 
REMARK    2  A    between atoms: C4_6  and  C5_7 
REMARK       I    between atoms: C5_7  and  N2_9 
REMARK    3  A    between atoms: N2_9  and  C6_10 
REMARK    4  A    between atoms: C6_10  and  C7_11 
REMARK    5  A    between atoms: C6_10  and  C8_13 
REMARK       I    between atoms: C7_11  and  N3_14 
REMARK    6  A    between atoms: N3_14  and  C9_15 
REMARK    7  A    between atoms: C9_15  and  C10_16 
REMARK    8  A    between atoms: C9_15  and  C11_18 
REMARK       I    between atoms: C10_16  and  N4_21 
REMARK    9  A    between atoms: C11_18  and  C12_19 
REMARK   10  A    between atoms: C11_18  and  C13_20 
REMARK   11  A    between atoms: N4_21  and  C14_22 
REMARK   12  A    between atoms: C14_22  and  C15_23 
REMARK   13  A    between atoms: C14_22  and  C16_25 
REMARK       I    between atoms: C15_23  and  N6_40 
REMARK   14  A    between atoms: C16_25  and  C17_26 
REMARK   15  A    between atoms: C17_26  and  C18_27 
REMARK   16  A    between atoms: C17_26  and  C19_28 
REMARK   17  A    between atoms: C20_29  and  C21_30 
REMARK   18  A    between atoms: C20_29  and  C24_33 
REMARK   19  A    between atoms: C20_29  and  N6_40 
REMARK   20  A    between atoms: C21_30  and  C22_31 
REMARK   21  A    between atoms: C22_31  and  C23_32 
REMARK   22  A    between atoms: C23_32  and  O8_43 
REMARK   23  A    between atoms: C24_33  and  C25_34 
REMARK   24  A    between atoms: C28_38  and  O6_39 
REMARK   25  A    between atoms: C29_42  and  O8_43 
REMARK   26  A    between atoms: C29_42  and  C35_49 
ROOT
ATOM      1  C14 non d ame     -34.679   8.609  31.043  0.00  0.00     0.089 C 
ATOM      2  H20 non d ame     -33.762   8.855  31.579  0.00  0.00     0.087 H 
ENDROOT
BRANCH   1   3
ATOM      3  N4  non d ame     -34.635   9.297  29.761  0.00  0.00    -0.346 N 
ATOM      4  C10 non d ame     -33.657  10.421  29.533  0.00  0.00     0.241 C 
ATOM      5  O4  non d ame     -32.916  10.757  30.396  0.00  0.00    -0.271 OA
ATOM      6  H19 non d ame     -35.276   8.997  29.040  0.00  0.00     0.163 HD
BRANCH   4   7
ATOM      7  C9  non d ame     -33.622  11.118  28.198  0.00  0.00     0.092 C 
ATOM      8  H11 non d ame     -34.569  11.633  28.037  0.00  0.00     0.088 H 
BRANCH   7   9
ATOM      9  N3  non d ame     -32.570  12.139  28.207  0.00  0.00    -0.346 N 
ATOM     10  C7  non d ame     -32.840  13.456  27.685  0.00  0.00     0.240 C 
ATOM     11  O3  non d ame     -33.898  13.712  27.254  0.00  0.00    -0.271 OA
ATOM     12  H10 non d ame     -31.652  11.933  28.575  0.00  0.00     0.163 HD
BRANCH  10  13
ATOM     13  C6  non d ame     -31.716  14.538  27.695  0.00  0.00     0.086 C 
ATOM     14  H6  non d ame     -31.123  14.538  26.780  0.00  0.00     0.086 H 
BRANCH  13  15
ATOM     15  N2  non d ame     -32.327  15.853  27.795  0.00  0.00    -0.343 N 
ATOM     16  C5  non d ame     -32.193  16.797  26.683  0.00  0.00     0.273 C 
ATOM     17  O2  non d ame     -31.589  16.491  25.714  0.00  0.00    -0.266 OA
ATOM     18  H5  non d ame     -32.838  16.107  28.628  0.00  0.00     0.163 HD
BRANCH  16  19
ATOM     19  C4  non d ame     -32.835  18.190  26.776  0.00  0.00     0.154 A 
ATOM     20  C1  non d ame     -34.231  18.502  26.758  0.00  0.00    -0.017 A 
ATOM     21  C2  non d ame     -34.290  19.909  26.869  0.00  0.00     0.077 A 
ATOM     22  H1  non d ame     -35.072  17.813  26.678  0.00  0.00     0.091 H 
ATOM     23  O1  non d ame     -33.067  20.344  26.942  0.00  0.00    -0.218 OA
ATOM     24  N1  non d ame     -32.200  19.360  26.890  0.00  0.00    -0.123 NA
BRANCH  21  25
ATOM     25  C3  non d ame     -35.554  20.759  26.899  0.00  0.00    -0.029 C 
ATOM     26  H2  non d ame     -36.330  20.236  27.456  0.00  0.00     0.036 H 
ATOM     27  H3  non d ame     -35.340  21.711  27.384  0.00  0.00     0.036 H 
ATOM     28  H4  non d ame     -35.896  20.939  25.880  0.00  0.00     0.036 H 
ENDBRANCH  21  25
ENDBRANCH  16  19
ENDBRANCH  13  15
BRANCH  13  29
ATOM     29  C8  non d ame     -30.799  14.303  28.868  0.00  0.00    -0.049 C 
ATOM     30  H7  non d ame     -29.920  13.750  28.539  0.00  0.00     0.030 H 
ATOM     31  H8  non d ame     -30.489  15.262  29.285  0.00  0.00     0.030 H 
ATOM     32  H9  non d ame     -31.325  13.728  29.631  0.00  0.00     0.030 H 
ENDBRANCH  13  29
ENDBRANCH  10  13
ENDBRANCH   7   9
BRANCH   7  33
ATOM     33  C11 non d ame     -33.322  10.079  27.078  0.00  0.00    -0.033 C 
ATOM     34  H12 non d ame     -33.378   9.087  27.526  0.00  0.00     0.042 H 
BRANCH  33  35
ATOM     35  C12 non d ame     -34.392  10.141  25.944  0.00  0.00    -0.071 C 
ATOM     36  H13 non d ame     -34.940   9.200  25.909  0.00  0.00     0.028 H 
ATOM     37  H14 non d ame     -35.085  10.958  26.142  0.00  0.00     0.028 H 
ATOM     38  H15 non d ame     -33.897  10.308  24.986  0.00  0.00     0.028 H 
ENDBRANCH  33  35
BRANCH  33  39
ATOM     39  C13 non d ame     -31.880  10.271  26.509  0.00  0.00    -0.071 C 
ATOM     40  H16 non d ame     -31.552  11.295  26.687  0.00  0.00     0.028 H 
ATOM     41  H17 non d ame     -31.198   9.579  27.004  0.00  0.00     0.028 H 
ATOM     42  H18 non d ame     -31.883  10.071  25.437  0.00  0.00     0.028 H 
ENDBRANCH  33  39
ENDBRANCH   7  33
ENDBRANCH   4   7
ENDBRANCH   1   3
BRANCH   1  43
ATOM     43  C15 non d ame     -34.814   7.081  30.782  0.00  0.00     0.240 C 
ATOM     44  O5  non d ame     -35.050   6.346  31.685  0.00  0.00    -0.271 OA
ATOM     45  N6  non d ame     -34.658   6.536  29.403  0.00  0.00    -0.355 N 
ATOM     46  H46 non d ame     -34.462   7.152  28.627  0.00  0.00     0.162 HD
BRANCH  45  47
ATOM     47  C20 non d ame     -34.790   5.081  29.171  0.00  0.00     0.013 C 
ATOM     48  H30 non d ame     -34.867   4.594  30.143  0.00  0.00     0.072 H 
BRANCH  47  49
ATOM     49  C21 non d ame     -33.569   4.579  28.435  0.00  0.00    -0.038 C 
ATOM     50  H31 non d ame     -33.044   5.472  28.092  0.00  0.00     0.036 H 
ATOM     51  H32 non d ame     -33.077   3.887  29.119  0.00  0.00     0.036 H 
BRANCH  49  52
ATOM     52  C22 non d ame     -33.923   3.767  27.171  0.00  0.00     0.018 C 
ATOM     53  H33 non d ame     -33.279   2.888  27.195  0.00  0.00     0.048 H 
ATOM     54  H34 non d ame     -35.006   3.650  27.190  0.00  0.00     0.048 H 
BRANCH  52  55
ATOM     55  C23 non d ame     -33.595   4.502  25.842  0.00  0.00     0.259 C 
ATOM     56  O7  non d ame     -33.313   3.886  24.865  0.00  0.00    -0.265 OA
BRANCH  55  57
ATOM     57  O8  non d ame     -33.621   5.924  25.807  0.00  0.00    -0.317 OA
BRANCH  57  58
ATOM     58  C29 non d ame     -32.327   6.529  25.729  0.00  0.00     0.052 C 
ATOM     59  H47 non d ame     -32.365   7.394  26.390  0.00  0.00     0.082 H 
ATOM     60  H48 non d ame     -31.614   5.728  25.919  0.00  0.00     0.082 H 
BRANCH  58  61
ATOM     61  C35 non d ame     -32.122   7.031  24.274  0.00  0.00    -0.034 A 
ATOM     62  C30 non d ame     -32.994   7.972  23.733  0.00  0.00    -0.075 A 
ATOM     63  C31 non d ame     -32.810   8.422  22.426  0.00  0.00    -0.082 A 
ATOM     64  H49 non d ame     -33.821   8.354  24.331  0.00  0.00     0.084 H 
ATOM     65  C32 non d ame     -31.750   7.929  21.660  0.00  0.00    -0.083 A 
ATOM     66  H50 non d ame     -33.493   9.161  22.005  0.00  0.00     0.083 H 
ATOM     67  C33 non d ame     -30.886   6.988  22.204  0.00  0.00    -0.082 A 
ATOM     68  H51 non d ame     -31.599   8.277  20.638  0.00  0.00     0.083 H 
ATOM     69  C34 non d ame     -31.065   6.536  23.509  0.00  0.00    -0.075 A 
ATOM     70  H52 non d ame     -30.062   6.603  21.602  0.00  0.00     0.083 H 
ATOM     71  H53 non d ame     -30.381   5.798  23.929  0.00  0.00     0.084 H 
ENDBRANCH  58  61
ENDBRANCH  57  58
ENDBRANCH  55  57
ENDBRANCH  52  55
ENDBRANCH  49  52
ENDBRANCH  47  49
BRANCH  47  72
ATOM     72  C24 non d ame     -36.039   4.803  28.338  0.00  0.00    -0.039 C 
ATOM     73  H35 non d ame     -35.844   5.253  27.364  0.00  0.00     0.036 H 
ATOM     74  H36 non d ame     -36.207   3.729  28.417  0.00  0.00     0.036 H 
BRANCH  72  75
ATOM     75  C25 non d ame     -37.331   5.530  28.944  0.00  0.00    -0.001 C 
ATOM     76  C26 non d ame     -38.550   4.443  29.128  0.00  0.00    -0.035 C 
ATOM     77  C27 non d ame     -39.668   4.936  28.542  0.00  0.00     0.085 C 
ATOM     78  H38 non d ame     -38.338   3.541  28.555  0.00  0.00     0.036 H 
ATOM     79  H39 non d ame     -38.828   4.366  30.180  0.00  0.00     0.036 H 
ATOM     80  N5  non d ame     -39.238   6.108  27.692  0.00  0.00    -0.049 N 
ATOM     81  H40 non d ame     -40.030   4.139  27.892  0.00  0.00     0.075 H 
ATOM     82  H41 non d ame     -40.290   5.298  29.359  0.00  0.00     0.075 H 
ATOM     83  C28 non d ame     -37.741   6.477  28.168  0.00  0.00     0.193 C 
ATOM     84  H42 non d ame     -39.199   5.773  26.741  0.00  0.00     0.280 HD
ATOM     85  H43 non d ame     -39.851   6.874  27.933  0.00  0.00     0.280 HD
ATOM     86  H44 non d ame     -37.561   7.345  28.804  0.00  0.00     0.129 H 
ATOM     87  H37 non d ame     -37.088   6.153  29.805  0.00  0.00     0.046 H 
BRANCH  83  88
ATOM     88  O6  non d ame     -36.891   6.651  27.033  0.00  0.00    -0.369 OA
ATOM     89  H45 non d ame     -35.987   6.790  27.328  0.00  0.00     0.212 HD
ENDBRANCH  83  88
ENDBRANCH  72  75
ENDBRANCH  47  72
ENDBRANCH  45  47
ENDBRANCH   1  43
BRANCH   1  90
ATOM     90  C16 non d ame     -35.883   9.101  31.830  0.00  0.00    -0.035 C 
ATOM     91  H21 non d ame     -36.079   8.327  32.570  0.00  0.00     0.037 H 
ATOM     92  H22 non d ame     -35.626  10.111  32.151  0.00  0.00     0.037 H 
BRANCH  90  93
ATOM     93  C17 non d ame     -37.182   9.228  30.972  0.00  0.00    -0.059 C 
ATOM     94  H23 non d ame     -36.915   9.020  29.936  0.00  0.00     0.038 H 
BRANCH  93  95
ATOM     95  C18 non d ame     -38.274   8.196  31.398  0.00  0.00    -0.073 C 
ATOM     96  H24 non d ame     -39.243   8.692  31.451  0.00  0.00     0.028 H 
ATOM     97  H25 non d ame     -38.320   7.391  30.665  0.00  0.00     0.028 H 
ATOM     98  H26 non d ame     -38.023   7.784  32.375  0.00  0.00     0.028 H 
ENDBRANCH  93  95
BRANCH  93  99
ATOM     99  C19 non d ame     -37.733  10.656  31.022  0.00  0.00    -0.073 C 
ATOM    100  H27 non d ame     -37.070  11.321  30.466  0.00  0.00     0.028 H 
ATOM    101  H28 non d ame     -38.727  10.679  30.574  0.00  0.00     0.028 H 
ATOM    102  H29 non d ame     -37.794  10.986  32.058  0.00  0.00     0.028 H 
ENDBRANCH  93  99
ENDBRANCH  90  93
ENDBRANCH   1  90
TORSDOF 26
ENDMDL
MODEL 18
REMARK VINA RESULT:      -6.3      4.112      6.401
REMARK  26 active torsions:
REMARK  status: ('A' for Active; 'I' for Inactive)
REMARK    1  A    between atoms: C2_2  and  C3_3 
REMARK    2  A    between atoms: C4_6  and  C5_7 
REMARK       I    between atoms: C5_7  and  N2_9 
REMARK    3  A    between atoms: N2_9  and  C6_10 
REMARK    4  A    between atoms: C6_10  and  C7_11 
REMARK    5  A    between atoms: C6_10  and  C8_13 
REMARK       I    between atoms: C7_11  and  N3_14 
REMARK    6  A    between atoms: N3_14  and  C9_15 
REMARK    7  A    between atoms: C9_15  and  C10_16 
REMARK    8  A    between atoms: C9_15  and  C11_18 
REMARK       I    between atoms: C10_16  and  N4_21 
REMARK    9  A    between atoms: C11_18  and  C12_19 
REMARK   10  A    between atoms: C11_18  and  C13_20 
REMARK   11  A    between atoms: N4_21  and  C14_22 
REMARK   12  A    between atoms: C14_22  and  C15_23 
REMARK   13  A    between atoms: C14_22  and  C16_25 
REMARK       I    between atoms: C15_23  and  N6_40 
REMARK   14  A    between atoms: C16_25  and  C17_26 
REMARK   15  A    between atoms: C17_26  and  C18_27 
REMARK   16  A    between atoms: C17_26  and  C19_28 
REMARK   17  A    between atoms: C20_29  and  C21_30 
REMARK   18  A    between atoms: C20_29  and  C24_33 
REMARK   19  A    between atoms: C20_29  and  N6_40 
REMARK   20  A    between atoms: C21_30  and  C22_31 
REMARK   21  A    between atoms: C22_31  and  C23_32 
REMARK   22  A    between atoms: C23_32  and  O8_43 
REMARK   23  A    between atoms: C24_33  and  C25_34 
REMARK   24  A    between atoms: C28_38  and  O6_39 
REMARK   25  A    between atoms: C29_42  and  O8_43 
REMARK   26  A    between atoms: C29_42  and  C35_49 
ROOT
ATOM      1  C14 non d ame     -32.194   8.860  24.673  0.00  0.00     0.089 C 
ATOM      2  H20 non d ame     -31.232   8.492  25.029  0.00  0.00     0.087 H 
ENDROOT
BRANCH   1   3
ATOM      3  N4  non d ame     -32.822   7.786  23.919  0.00  0.00    -0.346 N 
ATOM      4  C10 non d ame     -32.485   6.347  24.217  0.00  0.00     0.241 C 
ATOM      5  O4  non d ame     -31.703   6.077  25.068  0.00  0.00    -0.271 OA
ATOM      6  H19 non d ame     -33.482   8.036  23.197  0.00  0.00     0.163 HD
BRANCH   4   7
ATOM      7  C9  non d ame     -33.148   5.247  23.429  0.00  0.00     0.092 C 
ATOM      8  H11 non d ame     -32.661   4.300  23.657  0.00  0.00     0.088 H 
BRANCH   7   9
ATOM      9  N3  non d ame     -34.549   5.125  23.843  0.00  0.00    -0.346 N 
ATOM     10  C7  non d ame     -34.915   4.190  24.878  0.00  0.00     0.240 C 
ATOM     11  O3  non d ame     -34.096   3.528  25.388  0.00  0.00    -0.271 OA
ATOM     12  H10 non d ame     -35.267   5.689  23.411  0.00  0.00     0.163 HD
BRANCH  10  13
ATOM     13  C6  non d ame     -36.409   4.062  25.313  0.00  0.00     0.086 C 
ATOM     14  H6  non d ame     -36.592   3.189  25.938  0.00  0.00     0.086 H 
BRANCH  13  15
ATOM     15  N2  non d ame     -36.770   5.225  26.106  0.00  0.00    -0.343 N 
ATOM     16  C5  non d ame     -37.305   5.039  27.456  0.00  0.00     0.273 C 
ATOM     17  O2  non d ame     -37.444   3.950  27.895  0.00  0.00    -0.266 OA
ATOM     18  H5  non d ame     -36.652   6.152  25.723  0.00  0.00     0.163 HD
BRANCH  16  19
ATOM     19  C4  non d ame     -37.691   6.260  28.307  0.00  0.00     0.154 A 
ATOM     20  C1  non d ame     -37.926   6.291  29.717  0.00  0.00    -0.017 A 
ATOM     21  C2  non d ame     -38.246   7.638  30.002  0.00  0.00     0.077 A 
ATOM     22  H1  non d ame     -37.872   5.465  30.426  0.00  0.00     0.091 H 
ATOM     23  O1  non d ame     -38.197   8.294  28.880  0.00  0.00    -0.218 OA
ATOM     24  N1  non d ame     -37.875   7.511  27.876  0.00  0.00    -0.123 NA
BRANCH  21  25
ATOM     25  C3  non d ame     -38.585   8.214  31.370  0.00  0.00    -0.029 C 
ATOM     26  H2  non d ame     -39.081   9.176  31.247  0.00  0.00     0.036 H 
ATOM     27  H3  non d ame     -39.249   7.530  31.899  0.00  0.00     0.036 H 
ATOM     28  H4  non d ame     -37.670   8.348  31.946  0.00  0.00     0.036 H 
ENDBRANCH  21  25
ENDBRANCH  16  19
ENDBRANCH  13  15
BRANCH  13  29
ATOM     29  C8  non d ame     -37.285   3.978  24.089  0.00  0.00    -0.049 C 
ATOM     30  H7  non d ame     -36.665   4.005  23.194  0.00  0.00     0.030 H 
ATOM     31  H8  non d ame     -37.851   3.047  24.110  0.00  0.00     0.030 H 
ATOM     32  H9  non d ame     -37.975   4.823  24.078  0.00  0.00     0.030 H 
ENDBRANCH  13  29
ENDBRANCH  10  13
ENDBRANCH   7   9
BRANCH   7  33
ATOM     33  C11 non d ame     -33.087   5.589  21.911  0.00  0.00    -0.033 C 
ATOM     34  H12 non d ame     -33.059   6.674  21.819  0.00  0.00     0.042 H 
BRANCH  33  35
ATOM     35  C12 non d ame     -31.786   5.029  21.256  0.00  0.00    -0.071 C 
ATOM     36  H13 non d ame     -31.705   3.961  21.462  0.00  0.00     0.028 H 
ATOM     37  H14 non d ame     -31.823   5.189  20.179  0.00  0.00     0.028 H 
ATOM     38  H15 non d ame     -30.919   5.544  21.671  0.00  0.00     0.028 H 
ENDBRANCH  33  35
BRANCH  33  39
ATOM     39  C13 non d ame     -34.362   5.073  21.170  0.00  0.00    -0.071 C 
ATOM     40  H16 non d ame     -34.133   4.922  20.115  0.00  0.00     0.028 H 
ATOM     41  H17 non d ame     -34.683   4.130  21.613  0.00  0.00     0.028 H 
ATOM     42  H18 non d ame     -35.160   5.809  21.267  0.00  0.00     0.028 H 
ENDBRANCH  33  39
ENDBRANCH   7  33
ENDBRANCH   4   7
ENDBRANCH   1   3
BRANCH   1  43
ATOM     43  C15 non d ame     -33.138   9.260  25.844  0.00  0.00     0.240 C 
ATOM     44  O5  non d ame     -34.254   8.852  25.870  0.00  0.00    -0.271 OA
ATOM     45  N6  non d ame     -32.648  10.145  26.939  0.00  0.00    -0.355 N 
ATOM     46  H46 non d ame     -31.700  10.495  26.930  0.00  0.00     0.162 HD
BRANCH  45  47
ATOM     47  C20 non d ame     -33.558  10.516  28.044  0.00  0.00     0.013 C 
ATOM     48  H30 non d ame     -34.581  10.403  27.687  0.00  0.00     0.072 H 
BRANCH  47  49
ATOM     49  C21 non d ame     -33.303  11.952  28.442  0.00  0.00    -0.038 C 
ATOM     50  H31 non d ame     -32.424  12.262  27.876  0.00  0.00     0.036 H 
ATOM     51  H32 non d ame     -34.253  12.469  28.301  0.00  0.00     0.036 H 
BRANCH  49  52
ATOM     52  C22 non d ame     -32.939  12.105  29.935  0.00  0.00     0.018 C 
ATOM     53  H33 non d ame     -33.634  12.843  30.333  0.00  0.00     0.048 H 
ATOM     54  H34 non d ame     -32.926  11.093  30.340  0.00  0.00     0.048 H 
BRANCH  52  55
ATOM     55  C23 non d ame     -31.517  12.682  30.177  0.00  0.00     0.259 C 
ATOM     56  O7  non d ame     -30.695  12.040  30.747  0.00  0.00    -0.265 OA
BRANCH  55  57
ATOM     57  O8  non d ame     -31.210  13.994  29.720  0.00  0.00    -0.317 OA
BRANCH  57  58
ATOM     58  C29 non d ame     -30.355  14.026  28.572  0.00  0.00     0.052 C 
ATOM     59  H47 non d ame     -29.652  14.839  28.751  0.00  0.00     0.082 H 
ATOM     60  H48 non d ame     -29.991  13.007  28.446  0.00  0.00     0.082 H 
BRANCH  58  61
ATOM     61  C35 non d ame     -31.225  14.391  27.339  0.00  0.00    -0.034 A 
ATOM     62  C30 non d ame     -31.064  13.696  26.144  0.00  0.00    -0.075 A 
ATOM     63  C31 non d ame     -31.844  14.024  25.036  0.00  0.00    -0.082 A 
ATOM     64  H49 non d ame     -30.327  12.896  26.075  0.00  0.00     0.084 H 
ATOM     65  C32 non d ame     -32.787  15.052  25.126  0.00  0.00    -0.083 A 
ATOM     66  H50 non d ame     -31.718  13.476  24.101  0.00  0.00     0.083 H 
ATOM     67  C33 non d ame     -32.941  15.744  26.319  0.00  0.00    -0.082 A 
ATOM     68  H51 non d ame     -33.402  15.314  24.264  0.00  0.00     0.083 H 
ATOM     69  C34 non d ame     -32.164  15.419  27.429  0.00  0.00    -0.075 A 
ATOM     70  H52 non d ame     -33.676  16.548  26.385  0.00  0.00     0.083 H 
ATOM     71  H53 non d ame     -32.292  15.966  28.363  0.00  0.00     0.084 H 
ENDBRANCH  58  61
ENDBRANCH  57  58
ENDBRANCH  55  57
ENDBRANCH  52  55
ENDBRANCH  49  52
ENDBRANCH  47  49
BRANCH  47  72
ATOM     72  C24 non d ame     -33.311   9.602  29.243  0.00  0.00    -0.039 C 
ATOM     73  H35 non d ame     -32.506   8.933  28.936  0.00  0.00     0.036 H 
ATOM     74  H36 non d ame     -33.168  10.271  30.093  0.00  0.00     0.036 H 
BRANCH  72  75
ATOM     75  C25 non d ame     -34.587   8.691  29.567  0.00  0.00    -0.001 C 
ATOM     76  C26 non d ame     -34.811   8.598  31.193  0.00  0.00    -0.035 C 
ATOM     77  C27 non d ame     -34.923   7.295  31.546  0.00  0.00     0.085 C 
ATOM     78  H38 non d ame     -33.912   8.926  31.714  0.00  0.00     0.036 H 
ATOM     79  H39 non d ame     -35.780   9.019  31.463  0.00  0.00     0.036 H 
ATOM     80  N5  non d ame     -34.470   6.477  30.360  0.00  0.00    -0.049 N 
ATOM     81  H40 non d ame     -34.219   7.154  32.366  0.00  0.00     0.075 H 
ATOM     82  H41 non d ame     -35.987   7.128  31.707  0.00  0.00     0.075 H 
ATOM     83  C28 non d ame     -34.435   7.494  29.106  0.00  0.00     0.193 C 
ATOM     84  H42 non d ame     -33.526   6.182  30.560  0.00  0.00     0.280 HD
ATOM     85  H43 non d ame     -35.191   5.789  30.197  0.00  0.00     0.280 HD
ATOM     86  H44 non d ame     -35.224   7.471  28.354  0.00  0.00     0.129 H 
ATOM     87  H37 non d ame     -35.452   8.962  28.962  0.00  0.00     0.046 H 
BRANCH  83  88
ATOM     88  O6  non d ame     -33.212   7.345  28.384  0.00  0.00    -0.369 OA
ATOM     89  H45 non d ame     -32.475   7.337  29.001  0.00  0.00     0.212 HD
ENDBRANCH  83  88
ENDBRANCH  72  75
ENDBRANCH  47  72
ENDBRANCH  45  47
ENDBRANCH   1  43
BRANCH   1  90
ATOM     90  C16 non d ame     -31.983  10.054  23.757  0.00  0.00    -0.035 C 
ATOM     91  H21 non d ame     -32.496   9.801  22.830  0.00  0.00     0.037 H 
ATOM     92  H22 non d ame     -32.298  10.922  24.336  0.00  0.00     0.037 H 
BRANCH  90  93
ATOM     93  C17 non d ame     -30.486  10.295  23.379  0.00  0.00    -0.059 C 
ATOM     94  H23 non d ame     -29.904  10.262  24.300  0.00  0.00     0.038 H 
BRANCH  93  95
ATOM     95  C18 non d ame     -29.933   9.189  22.426  0.00  0.00    -0.073 C 
ATOM     96  H24 non d ame     -30.764   8.673  21.945  0.00  0.00     0.028 H 
ATOM     97  H25 non d ame     -29.302   9.648  21.664  0.00  0.00     0.028 H 
ATOM     98  H26 non d ame     -29.345   8.474  23.001  0.00  0.00     0.028 H 
ENDBRANCH  93  95
BRANCH  93  99
ATOM     99  C19 non d ame     -30.293  11.686  22.768  0.00  0.00    -0.073 C 
ATOM    100  H27 non d ame     -29.678  11.607  21.871  0.00  0.00     0.028 H 
ATOM    101  H28 non d ame     -31.265  12.107  22.506  0.00  0.00     0.028 H 
ATOM    102  H29 non d ame     -29.800  12.335  23.491  0.00  0.00     0.028 H 
ENDBRANCH  93  99
ENDBRANCH  90  93
ENDBRANCH   1  90
TORSDOF 26
ENDMDL
MODEL 19
REMARK VINA RESULT:      -6.3      2.901      5.719
REMARK  26 active torsions:
REMARK  status: ('A' for Active; 'I' for Inactive)
REMARK    1  A    between atoms: C2_2  and  C3_3 
REMARK    2  A    between atoms: C4_6  and  C5_7 
REMARK       I    between atoms: C5_7  and  N2_9 
REMARK    3  A    between atoms: N2_9  and  C6_10 
REMARK    4  A    between atoms: C6_10  and  C7_11 
REMARK    5  A    between atoms: C6_10  and  C8_13 
REMARK       I    between atoms: C7_11  and  N3_14 
REMARK    6  A    between atoms: N3_14  and  C9_15 
REMARK    7  A    between atoms: C9_15  and  C10_16 
REMARK    8  A    between atoms: C9_15  and  C11_18 
REMARK       I    between atoms: C10_16  and  N4_21 
REMARK    9  A    between atoms: C11_18  and  C12_19 
REMARK   10  A    between atoms: C11_18  and  C13_20 
REMARK   11  A    between atoms: N4_21  and  C14_22 
REMARK   12  A    between atoms: C14_22  and  C15_23 
REMARK   13  A    between atoms: C14_22  and  C16_25 
REMARK       I    between atoms: C15_23  and  N6_40 
REMARK   14  A    between atoms: C16_25  and  C17_26 
REMARK   15  A    between atoms: C17_26  and  C18_27 
REMARK   16  A    between atoms: C17_26  and  C19_28 
REMARK   17  A    between atoms: C20_29  and  C21_30 
REMARK   18  A    between atoms: C20_29  and  C24_33 
REMARK   19  A    between atoms: C20_29  and  N6_40 
REMARK   20  A    between atoms: C21_30  and  C22_31 
REMARK   21  A    between atoms: C22_31  and  C23_32 
REMARK   22  A    between atoms: C23_32  and  O8_43 
REMARK   23  A    between atoms: C24_33  and  C25_34 
REMARK   24  A    between atoms: C28_38  and  O6_39 
REMARK   25  A    between atoms: C29_42  and  O8_43 
REMARK   26  A    between atoms: C29_42  and  C35_49 
ROOT
ATOM      1  C14 non d ame     -32.973  13.129  27.976  0.00  0.00     0.089 C 
ATOM      2  H20 non d ame     -34.045  13.301  27.881  0.00  0.00     0.087 H 
ENDROOT
BRANCH   1   3
ATOM      3  N4  non d ame     -32.703  11.778  27.508  0.00  0.00    -0.346 N 
ATOM      4  C10 non d ame     -33.451  11.218  26.325  0.00  0.00     0.241 C 
ATOM      5  O4  non d ame     -34.269  11.873  25.767  0.00  0.00    -0.271 OA
ATOM      6  H19 non d ame     -32.006  11.236  27.998  0.00  0.00     0.163 HD
BRANCH   4   7
ATOM      7  C9  non d ame     -33.156   9.819  25.850  0.00  0.00     0.092 C 
ATOM      8  H11 non d ame     -32.151   9.539  26.164  0.00  0.00     0.088 H 
BRANCH   7   9
ATOM      9  N3  non d ame     -34.087   8.881  26.485  0.00  0.00    -0.346 N 
ATOM     10  C7  non d ame     -33.591   7.886  27.404  0.00  0.00     0.240 C 
ATOM     11  O3  non d ame     -32.448   7.827  27.645  0.00  0.00    -0.271 OA
ATOM     12  H10 non d ame     -35.076   8.919  26.286  0.00  0.00     0.163 HD
BRANCH  10  13
ATOM     13  C6  non d ame     -34.586   6.888  28.074  0.00  0.00     0.086 C 
ATOM     14  H6  non d ame     -34.158   6.385  28.941  0.00  0.00     0.086 H 
BRANCH  13  15
ATOM     15  N2  non d ame     -35.744   7.625  28.551  0.00  0.00    -0.343 N 
ATOM     16  C5  non d ame     -35.738   8.181  29.906  0.00  0.00     0.273 C 
ATOM     17  O2  non d ame     -34.798   8.028  30.606  0.00  0.00    -0.266 OA
ATOM     18  H5  non d ame     -36.545   7.748  27.948  0.00  0.00     0.163 HD
BRANCH  16  19
ATOM     19  C4  non d ame     -36.956   8.963  30.423  0.00  0.00     0.154 A 
ATOM     20  C1  non d ame     -38.201   8.423  30.875  0.00  0.00    -0.017 A 
ATOM     21  C2  non d ame     -38.974   9.549  31.238  0.00  0.00     0.077 A 
ATOM     22  H1  non d ame     -38.498   7.376  30.932  0.00  0.00     0.091 H 
ATOM     23  O1  non d ame     -38.249  10.605  31.018  0.00  0.00    -0.218 OA
ATOM     24  N1  non d ame     -37.067  10.289  30.541  0.00  0.00    -0.123 NA
BRANCH  21  25
ATOM     25  C3  non d ame     -40.394   9.528  31.788  0.00  0.00    -0.029 C 
ATOM     26  H2  non d ame     -40.998  10.269  31.265  0.00  0.00     0.036 H 
ATOM     27  H3  non d ame     -40.828   8.539  31.639  0.00  0.00     0.036 H 
ATOM     28  H4  non d ame     -40.376   9.760  32.853  0.00  0.00     0.036 H 
ENDBRANCH  21  25
ENDBRANCH  16  19
ENDBRANCH  13  15
BRANCH  13  29
ATOM     29  C8  non d ame     -35.012   5.849  27.070  0.00  0.00    -0.049 C 
ATOM     30  H7  non d ame     -34.898   6.248  26.062  0.00  0.00     0.030 H 
ATOM     31  H8  non d ame     -34.391   4.960  27.180  0.00  0.00     0.030 H 
ATOM     32  H9  non d ame     -36.057   5.586  27.240  0.00  0.00     0.030 H 
ENDBRANCH  13  29
ENDBRANCH  10  13
ENDBRANCH   7   9
BRANCH   7  33
ATOM     33  C11 non d ame     -33.328   9.750  24.304  0.00  0.00    -0.033 C 
ATOM     34  H12 non d ame     -33.786  10.685  23.982  0.00  0.00     0.042 H 
BRANCH  33  35
ATOM     35  C12 non d ame     -31.949   9.630  23.584  0.00  0.00    -0.071 C 
ATOM     36  H13 non d ame     -31.826  10.465  22.894  0.00  0.00     0.028 H 
ATOM     37  H14 non d ame     -31.149   9.650  24.324  0.00  0.00     0.028 H 
ATOM     38  H15 non d ame     -31.909   8.693  23.029  0.00  0.00     0.028 H 
ENDBRANCH  33  35
BRANCH  33  39
ATOM     39  C13 non d ame     -34.282   8.581  23.900  0.00  0.00    -0.071 C 
ATOM     40  H16 non d ame     -35.077   8.965  23.260  0.00  0.00     0.028 H 
ATOM     41  H17 non d ame     -33.717   7.820  23.361  0.00  0.00     0.028 H 
ATOM     42  H18 non d ame     -34.718   8.140  24.796  0.00  0.00     0.028 H 
ENDBRANCH  33  39
ENDBRANCH   7  33
ENDBRANCH   4   7
ENDBRANCH   1   3
BRANCH   1  43
ATOM     43  C15 non d ame     -32.140  14.126  27.120  0.00  0.00     0.240 C 
ATOM     44  O5  non d ame     -30.954  14.039  27.099  0.00  0.00    -0.271 OA
ATOM     45  N6  non d ame     -32.820  15.182  26.318  0.00  0.00    -0.355 N 
ATOM     46  H46 non d ame     -33.827  15.262  26.324  0.00  0.00     0.162 HD
BRANCH  45  47
ATOM     47  C20 non d ame     -32.014  16.121  25.509  0.00  0.00     0.013 C 
ATOM     48  H30 non d ame     -31.004  16.134  25.918  0.00  0.00     0.072 H 
BRANCH  47  49
ATOM     49  C21 non d ame     -32.623  17.502  25.590  0.00  0.00    -0.038 C 
ATOM     50  H31 non d ame     -31.999  18.137  24.960  0.00  0.00     0.036 H 
ATOM     51  H32 non d ame     -33.680  17.372  25.356  0.00  0.00     0.036 H 
BRANCH  49  52
ATOM     52  C22 non d ame     -32.562  18.101  27.013  0.00  0.00     0.018 C 
ATOM     53  H33 non d ame     -32.824  17.287  27.687  0.00  0.00     0.048 H 
ATOM     54  H34 non d ame     -31.585  18.579  27.089  0.00  0.00     0.048 H 
BRANCH  52  55
ATOM     55  C23 non d ame     -33.608  19.222  27.265  0.00  0.00     0.259 C 
ATOM     56  O7  non d ame     -33.682  20.154  26.532  0.00  0.00    -0.265 OA
BRANCH  55  57
ATOM     57  O8  non d ame     -34.469  19.130  28.394  0.00  0.00    -0.317 OA
BRANCH  57  58
ATOM     58  C29 non d ame     -35.732  18.519  28.114  0.00  0.00     0.052 C 
ATOM     59  H47 non d ame     -35.804  18.475  27.027  0.00  0.00     0.082 H 
ATOM     60  H48 non d ame     -35.753  17.601  28.700  0.00  0.00     0.082 H 
BRANCH  58  61
ATOM     61  C35 non d ame     -36.847  19.462  28.642  0.00  0.00    -0.034 A 
ATOM     62  C30 non d ame     -37.118  19.524  30.005  0.00  0.00    -0.075 A 
ATOM     63  C31 non d ame     -38.119  20.370  30.480  0.00  0.00    -0.082 A 
ATOM     64  H49 non d ame     -36.547  18.910  30.702  0.00  0.00     0.084 H 
ATOM     65  C32 non d ame     -38.852  21.155  29.585  0.00  0.00    -0.083 A 
ATOM     66  H50 non d ame     -38.328  20.419  31.550  0.00  0.00     0.083 H 
ATOM     67  C33 non d ame     -38.581  21.086  28.226  0.00  0.00    -0.082 A 
ATOM     68  H51 non d ame     -39.636  21.820  29.948  0.00  0.00     0.083 H 
ATOM     69  C34 non d ame     -37.580  20.243  27.747  0.00  0.00    -0.075 A 
ATOM     70  H52 non d ame     -39.156  21.698  27.530  0.00  0.00     0.083 H 
ATOM     71  H53 non d ame     -37.371  20.196  26.678  0.00  0.00     0.084 H 
ENDBRANCH  58  61
ENDBRANCH  57  58
ENDBRANCH  55  57
ENDBRANCH  52  55
ENDBRANCH  49  52
ENDBRANCH  47  49
BRANCH  47  72
ATOM     72  C24 non d ame     -31.990  15.659  24.053  0.00  0.00    -0.039 C 
ATOM     73  H35 non d ame     -32.562  14.730  24.035  0.00  0.00     0.036 H 
ATOM     74  H36 non d ame     -32.326  16.516  23.471  0.00  0.00     0.036 H 
BRANCH  72  75
ATOM     75  C25 non d ame     -30.505  15.309  23.566  0.00  0.00    -0.001 C 
ATOM     76  C26 non d ame     -30.257  15.903  22.054  0.00  0.00    -0.035 C 
ATOM     77  C27 non d ame     -29.775  14.911  21.268  0.00  0.00     0.085 C 
ATOM     78  H38 non d ame     -31.211  16.155  21.590  0.00  0.00     0.036 H 
ATOM     79  H39 non d ame     -29.448  16.634  22.066  0.00  0.00     0.036 H 
ATOM     80  N5  non d ame     -29.980  13.616  22.018  0.00  0.00    -0.049 N 
ATOM     81  H40 non d ame     -30.406  14.911  20.379  0.00  0.00     0.075 H 
ATOM     82  H41 non d ame     -28.707  15.104  21.177  0.00  0.00     0.075 H 
ATOM     83  C28 non d ame     -30.309  14.033  23.542  0.00  0.00     0.193 C 
ATOM     84  H42 non d ame     -30.799  13.182  21.619  0.00  0.00     0.280 HD
ATOM     85  H43 non d ame     -29.093  13.134  22.000  0.00  0.00     0.280 HD
ATOM     86  H44 non d ame     -29.550  13.934  24.318  0.00  0.00     0.129 H 
ATOM     87  H37 non d ame     -29.756  15.548  24.321  0.00  0.00     0.046 H 
BRANCH  83  88
ATOM     88  O6  non d ame     -31.442  13.305  24.018  0.00  0.00    -0.369 OA
ATOM     89  H45 non d ame     -31.181  12.402  24.218  0.00  0.00     0.212 HD
ENDBRANCH  83  88
ENDBRANCH  72  75
ENDBRANCH  47  72
ENDBRANCH  45  47
ENDBRANCH   1  43
BRANCH   1  90
ATOM     90  C16 non d ame     -32.561  13.240  29.435  0.00  0.00    -0.035 C 
ATOM     91  H21 non d ame     -31.697  13.904  29.441  0.00  0.00     0.037 H 
ATOM     92  H22 non d ame     -33.468  13.520  29.971  0.00  0.00     0.037 H 
BRANCH  90  93
ATOM     93  C17 non d ame     -32.081  11.889  30.056  0.00  0.00    -0.059 C 
ATOM     94  H23 non d ame     -31.977  11.171  29.242  0.00  0.00     0.038 H 
BRANCH  93  95
ATOM     95  C18 non d ame     -30.690  12.022  30.754  0.00  0.00    -0.073 C 
ATOM     96  H24 non d ame     -30.604  13.008  31.209  0.00  0.00     0.028 H 
ATOM     97  H25 non d ame     -30.597  11.258  31.526  0.00  0.00     0.028 H 
ATOM     98  H26 non d ame     -29.899  11.892  30.016  0.00  0.00     0.028 H 
ENDBRANCH  93  95
BRANCH  93  99
ATOM     99  C19 non d ame     -33.126  11.331  31.026  0.00  0.00    -0.073 C 
ATOM    100  H27 non d ame     -34.106  11.334  30.545  0.00  0.00     0.028 H 
ATOM    101  H28 non d ame     -32.860  10.310  31.300  0.00  0.00     0.028 H 
ATOM    102  H29 non d ame     -33.158  11.951  31.921  0.00  0.00     0.028 H 
ENDBRANCH  93  99
ENDBRANCH  90  93
ENDBRANCH   1  90
TORSDOF 26
ENDMDL
MODEL 20
REMARK VINA RESULT:      -6.2      3.529      9.246
REMARK  26 active torsions:
REMARK  status: ('A' for Active; 'I' for Inactive)
REMARK    1  A    between atoms: C2_2  and  C3_3 
REMARK    2  A    between atoms: C4_6  and  C5_7 
REMARK       I    between atoms: C5_7  and  N2_9 
REMARK    3  A    between atoms: N2_9  and  C6_10 
REMARK    4  A    between atoms: C6_10  and  C7_11 
REMARK    5  A    between atoms: C6_10  and  C8_13 
REMARK       I    between atoms: C7_11  and  N3_14 
REMARK    6  A    between atoms: N3_14  and  C9_15 
REMARK    7  A    between atoms: C9_15  and  C10_16 
REMARK    8  A    between atoms: C9_15  and  C11_18 
REMARK       I    between atoms: C10_16  and  N4_21 
REMARK    9  A    between atoms: C11_18  and  C12_19 
REMARK   10  A    between atoms: C11_18  and  C13_20 
REMARK   11  A    between atoms: N4_21  and  C14_22 
REMARK   12  A    between atoms: C14_22  and  C15_23 
REMARK   13  A    between atoms: C14_22  and  C16_25 
REMARK       I    between atoms: C15_23  and  N6_40 
REMARK   14  A    between atoms: C16_25  and  C17_26 
REMARK   15  A    between atoms: C17_26  and  C18_27 
REMARK   16  A    between atoms: C17_26  and  C19_28 
REMARK   17  A    between atoms: C20_29  and  C21_30 
REMARK   18  A    between atoms: C20_29  and  C24_33 
REMARK   19  A    between atoms: C20_29  and  N6_40 
REMARK   20  A    between atoms: C21_30  and  C22_31 
REMARK   21  A    between atoms: C22_31  and  C23_32 
REMARK   22  A    between atoms: C23_32  and  O8_43 
REMARK   23  A    between atoms: C24_33  and  C25_34 
REMARK   24  A    between atoms: C28_38  and  O6_39 
REMARK   25  A    between atoms: C29_42  and  O8_43 
REMARK   26  A    between atoms: C29_42  and  C35_49 
ROOT
ATOM      1  C14 non d ame     -33.049  11.118  30.063  0.00  0.00     0.089 C 
ATOM      2  H20 non d ame     -32.121  10.563  29.919  0.00  0.00     0.087 H 
ENDROOT
BRANCH   1   3
ATOM      3  N4  non d ame     -33.670  11.279  28.756  0.00  0.00    -0.346 N 
ATOM      4  C10 non d ame     -33.016  10.704  27.526  0.00  0.00     0.241 C 
ATOM      5  O4  non d ame     -31.989  10.115  27.611  0.00  0.00    -0.271 OA
ATOM      6  H19 non d ame     -34.542  11.786  28.705  0.00  0.00     0.163 HD
BRANCH   4   7
ATOM      7  C9  non d ame     -33.675  10.876  26.182  0.00  0.00     0.092 C 
ATOM      8  H11 non d ame     -34.736  10.644  26.271  0.00  0.00     0.088 H 
BRANCH   7   9
ATOM      9  N3  non d ame     -33.572  12.277  25.763  0.00  0.00    -0.346 N 
ATOM     10  C7  non d ame     -34.558  13.234  26.199  0.00  0.00     0.240 C 
ATOM     11  O3  non d ame     -35.442  12.895  26.887  0.00  0.00    -0.271 OA
ATOM     12  H10 non d ame     -32.815  12.585  25.169  0.00  0.00     0.163 HD
BRANCH  10  13
ATOM     13  C6  non d ame     -34.445  14.723  25.748  0.00  0.00     0.086 C 
ATOM     14  H6  non d ame     -34.015  15.366  26.516  0.00  0.00     0.086 H 
BRANCH  13  15
ATOM     15  N2  non d ame     -33.559  14.802  24.598  0.00  0.00    -0.343 N 
ATOM     16  C5  non d ame     -32.123  14.996  24.806  0.00  0.00     0.273 C 
ATOM     17  O2  non d ame     -31.689  15.091  25.901  0.00  0.00    -0.266 OA
ATOM     18  H5  non d ame     -33.938  14.722  23.665  0.00  0.00     0.163 HD
BRANCH  16  19
ATOM     19  C4  non d ame     -31.175  15.080  23.599  0.00  0.00     0.154 A 
ATOM     20  C1  non d ame     -31.449  15.667  22.323  0.00  0.00    -0.017 A 
ATOM     21  C2  non d ame     -30.263  15.484  21.577  0.00  0.00     0.077 A 
ATOM     22  H1  non d ame     -32.366  16.153  21.991  0.00  0.00     0.091 H 
ATOM     23  O1  non d ame     -29.414  14.865  22.343  0.00  0.00    -0.218 OA
ATOM     24  N1  non d ame     -29.923  14.618  23.528  0.00  0.00    -0.123 NA
BRANCH  21  25
ATOM     25  C3  non d ame     -30.023  15.932  20.142  0.00  0.00    -0.029 C 
ATOM     26  H2  non d ame     -28.964  15.841  19.904  0.00  0.00     0.036 H 
ATOM     27  H3  non d ame     -30.601  15.303  19.463  0.00  0.00     0.036 H 
ATOM     28  H4  non d ame     -30.334  16.970  20.027  0.00  0.00     0.036 H 
ENDBRANCH  21  25
ENDBRANCH  16  19
ENDBRANCH  13  15
BRANCH  13  29
ATOM     29  C8  non d ame     -35.811  15.247  25.384  0.00  0.00    -0.049 C 
ATOM     30  H7  non d ame     -35.939  16.247  25.797  0.00  0.00     0.030 H 
ATOM     31  H8  non d ame     -35.908  15.287  24.300  0.00  0.00     0.030 H 
ATOM     32  H9  non d ame     -36.574  14.584  25.794  0.00  0.00     0.030 H 
ENDBRANCH  13  29
ENDBRANCH  10  13
ENDBRANCH   7   9
BRANCH   7  33
ATOM     33  C11 non d ame     -32.961   9.971  25.135  0.00  0.00    -0.033 C 
ATOM     34  H12 non d ame     -32.496   9.147  25.676  0.00  0.00     0.042 H 
BRANCH  33  35
ATOM     35  C12 non d ame     -33.982   9.354  24.129  0.00  0.00    -0.071 C 
ATOM     36  H13 non d ame     -33.971   9.929  23.202  0.00  0.00     0.028 H 
ATOM     37  H14 non d ame     -33.707   8.321  23.918  0.00  0.00     0.028 H 
ATOM     38  H15 non d ame     -34.982   9.384  24.561  0.00  0.00     0.028 H 
ENDBRANCH  33  35
BRANCH  33  39
ATOM     39  C13 non d ame     -31.835  10.757  24.391  0.00  0.00    -0.071 C 
ATOM     40  H16 non d ame     -32.206  11.093  23.422  0.00  0.00     0.028 H 
ATOM     41  H17 non d ame     -31.539  11.621  24.987  0.00  0.00     0.028 H 
ATOM     42  H18 non d ame     -30.973  10.106  24.244  0.00  0.00     0.028 H 
ENDBRANCH  33  39
ENDBRANCH   7  33
ENDBRANCH   4   7
ENDBRANCH   1   3
BRANCH   1  43
ATOM     43  C15 non d ame     -34.044  10.367  30.994  0.00  0.00     0.240 C 
ATOM     44  O5  non d ame     -34.065  10.613  32.157  0.00  0.00    -0.271 OA
ATOM     45  N6  non d ame     -34.977   9.348  30.435  0.00  0.00    -0.355 N 
ATOM     46  H46 non d ame     -34.971   9.133  29.448  0.00  0.00     0.162 HD
BRANCH  45  47
ATOM     47  C20 non d ame     -35.917   8.644  31.334  0.00  0.00     0.013 C 
ATOM     48  H30 non d ame     -35.419   8.502  32.294  0.00  0.00     0.072 H 
BRANCH  47  49
ATOM     49  C21 non d ame     -36.274   7.303  30.733  0.00  0.00    -0.038 C 
ATOM     50  H31 non d ame     -36.667   6.707  31.557  0.00  0.00     0.036 H 
ATOM     51  H32 non d ame     -36.905   7.526  29.872  0.00  0.00     0.036 H 
BRANCH  49  52
ATOM     52  C22 non d ame     -35.045   6.543  30.190  0.00  0.00     0.018 C 
ATOM     53  H33 non d ame     -34.329   7.310  29.899  0.00  0.00     0.048 H 
ATOM     54  H34 non d ame     -34.784   5.816  30.960  0.00  0.00     0.048 H 
BRANCH  52  55
ATOM     55  C23 non d ame     -35.337   5.719  28.905  0.00  0.00     0.259 C 
ATOM     56  O7  non d ame     -36.230   6.024  28.183  0.00  0.00    -0.265 OA
BRANCH  55  57
ATOM     57  O8  non d ame     -34.531   4.585  28.607  0.00  0.00    -0.317 OA
BRANCH  57  58
ATOM     58  C29 non d ame     -33.151   4.891  28.387  0.00  0.00     0.052 C 
ATOM     59  H47 non d ame     -32.980   5.849  28.879  0.00  0.00     0.082 H 
ATOM     60  H48 non d ame     -32.598   4.008  28.703  0.00  0.00     0.082 H 
BRANCH  58  61
ATOM     61  C35 non d ame     -32.941   5.079  26.860  0.00  0.00    -0.034 A 
ATOM     62  C30 non d ame     -32.193   6.153  26.388  0.00  0.00    -0.075 A 
ATOM     63  C31 non d ame     -32.004   6.323  25.017  0.00  0.00    -0.082 A 
ATOM     64  H49 non d ame     -31.755   6.863  27.090  0.00  0.00     0.084 H 
ATOM     65  C32 non d ame     -32.568   5.414  24.117  0.00  0.00    -0.083 A 
ATOM     66  H50 non d ame     -31.415   7.164  24.649  0.00  0.00     0.083 H 
ATOM     67  C33 non d ame     -33.317   4.347  24.593  0.00  0.00    -0.082 A 
ATOM     68  H51 non d ame     -32.424   5.539  23.043  0.00  0.00     0.083 H 
ATOM     69  C34 non d ame     -33.506   4.173  25.963  0.00  0.00    -0.075 A 
ATOM     70  H52 non d ame     -33.758   3.640  23.888  0.00  0.00     0.083 H 
ATOM     71  H53 non d ame     -34.094   3.331  26.329  0.00  0.00     0.084 H 
ENDBRANCH  58  61
ENDBRANCH  57  58
ENDBRANCH  55  57
ENDBRANCH  52  55
ENDBRANCH  49  52
ENDBRANCH  47  49
BRANCH  47  72
ATOM     72  C24 non d ame     -37.183   9.478  31.512  0.00  0.00    -0.039 C 
ATOM     73  H35 non d ame     -37.667   9.083  32.406  0.00  0.00     0.036 H 
ATOM     74  H36 non d ame     -36.853  10.517  31.486  0.00  0.00     0.036 H 
BRANCH  72  75
ATOM     75  C25 non d ame     -38.203   9.276  30.293  0.00  0.00    -0.001 C 
ATOM     76  C26 non d ame     -38.134  10.572  29.285  0.00  0.00    -0.035 C 
ATOM     77  C27 non d ame     -39.392  11.030  29.075  0.00  0.00     0.085 C 
ATOM     78  H38 non d ame     -37.639  11.407  29.781  0.00  0.00     0.036 H 
ATOM     79  H39 non d ame     -37.808  10.258  28.293  0.00  0.00     0.036 H 
ATOM     80  N5  non d ame     -40.278  10.370  30.104  0.00  0.00    -0.049 N 
ATOM     81  H40 non d ame     -39.349  12.100  29.275  0.00  0.00     0.075 H 
ATOM     82  H41 non d ame     -39.670  10.672  28.084  0.00  0.00     0.075 H 
ATOM     83  C28 non d ame     -39.416   9.150  30.716  0.00  0.00     0.193 C 
ATOM     84  H42 non d ame     -40.429  11.054  30.831  0.00  0.00     0.280 HD
ATOM     85  H43 non d ame     -41.065   9.988  29.599  0.00  0.00     0.280 HD
ATOM     86  H44 non d ame     -39.624   8.122  30.417  0.00  0.00     0.129 H 
ATOM     87  H37 non d ame     -38.113   8.289  29.840  0.00  0.00     0.046 H 
BRANCH  83  88
ATOM     88  O6  non d ame     -39.495   9.157  32.142  0.00  0.00    -0.369 OA
ATOM     89  H45 non d ame     -40.389   8.936  32.415  0.00  0.00     0.212 HD
ENDBRANCH  83  88
ENDBRANCH  72  75
ENDBRANCH  47  72
ENDBRANCH  45  47
ENDBRANCH   1  43
BRANCH   1  90
ATOM     90  C16 non d ame     -32.743  12.490  30.641  0.00  0.00    -0.035 C 
ATOM     91  H21 non d ame     -33.304  13.193  30.027  0.00  0.00     0.037 H 
ATOM     92  H22 non d ame     -32.955  12.407  31.707  0.00  0.00     0.037 H 
BRANCH  90  93
ATOM     93  C17 non d ame     -31.241  12.900  30.520  0.00  0.00    -0.059 C 
ATOM     94  H23 non d ame     -31.085  13.773  31.153  0.00  0.00     0.038 H 
BRANCH  93  95
ATOM     95  C18 non d ame     -30.280  11.773  31.017  0.00  0.00    -0.073 C 
ATOM     96  H24 non d ame     -29.633  12.166  31.802  0.00  0.00     0.028 H 
ATOM     97  H25 non d ame     -30.866  10.944  31.412  0.00  0.00     0.028 H 
ATOM     98  H26 non d ame     -29.669  11.423  30.185  0.00  0.00     0.028 H 
ENDBRANCH  93  95
BRANCH  93  99
ATOM     99  C19 non d ame     -30.900  13.311  29.085  0.00  0.00    -0.073 C 
ATOM    100  H27 non d ame     -30.563  12.437  28.527  0.00  0.00     0.028 H 
ATOM    101  H28 non d ame     -31.786  13.728  28.605  0.00  0.00     0.028 H 
ATOM    102  H29 non d ame     -30.109  14.060  29.100  0.00  0.00     0.028 H 
ENDBRANCH  93  99
ENDBRANCH  90  93
ENDBRANCH   1  90
TORSDOF 26
ENDMDL
