MODEL 1
REMARK VINA RESULT:      -7.5      0.000      0.000
REMARK  26 active torsions:
REMARK  status: ('A' for Active; 'I' for Inactive)
REMARK    1  A    between atoms: C2_2  and  C3_3 
REMARK    2  A    between atoms: C4_6  and  C5_7 
REMARK       I    between atoms: C5_7  and  N2_9 
REMARK    3  A    between atoms: N2_9  and  C6_10 
REMARK    4  A    between atoms: C6_10  and  C7_11 
REMARK    5  A    between atoms: C6_10  and  C8_13 
REMARK       I    between atoms: C7_11  and  N3_14 
REMARK    6  A    between atoms: N3_14  and  C9_15 
REMARK    7  A    between atoms: C9_15  and  C10_16 
REMARK    8  A    between atoms: C9_15  and  C11_18 
REMARK       I    between atoms: C10_16  and  N4_21 
REMARK    9  A    between atoms: C11_18  and  C12_19 
REMARK   10  A    between atoms: C11_18  and  C13_20 
REMARK   11  A    between atoms: N4_21  and  C14_22 
REMARK   12  A    between atoms: C14_22  and  C15_23 
REMARK   13  A    between atoms: C14_22  and  C16_25 
REMARK       I    between atoms: C15_23  and  N6_40 
REMARK   14  A    between atoms: C16_25  and  C17_26 
REMARK   15  A    between atoms: C17_26  and  C18_27 
REMARK   16  A    between atoms: C17_26  and  C19_28 
REMARK   17  A    between atoms: C20_29  and  C21_30 
REMARK   18  A    between atoms: C20_29  and  C24_33 
REMARK   19  A    between atoms: C20_29  and  N6_40 
REMARK   20  A    between atoms: C21_30  and  C22_31 
REMARK   21  A    between atoms: C22_31  and  C23_32 
REMARK   22  A    between atoms: C23_32  and  O8_43 
REMARK   23  A    between atoms: C24_33  and  C25_34 
REMARK   24  A    between atoms: C28_38  and  O6_39 
REMARK   25  A    between atoms: C29_42  and  O8_43 
REMARK   26  A    between atoms: C29_42  and  C35_49 
ROOT
ATOM      1  C14 non d ame     -30.975  14.236  24.161  0.00  0.00     0.089 C 
ATOM      2  H20 non d ame     -29.935  13.911  24.207  0.00  0.00     0.087 H 
ENDROOT
BRANCH   1   3
ATOM      3  N4  non d ame     -31.811  13.063  24.376  0.00  0.00    -0.346 N 
ATOM      4  C10 non d ame     -31.301  11.690  24.022  0.00  0.00     0.241 C 
ATOM      5  O4  non d ame     -30.215  11.551  23.564  0.00  0.00    -0.271 OA
ATOM      6  H19 non d ame     -32.732  13.202  24.764  0.00  0.00     0.163 HD
BRANCH   4   7
ATOM      7  C9  non d ame     -32.177  10.487  24.255  0.00  0.00     0.092 C 
ATOM      8  H11 non d ame     -32.922  10.427  23.463  0.00  0.00     0.088 H 
BRANCH   7   9
ATOM      9  N3  non d ame     -31.365   9.268  24.180  0.00  0.00    -0.346 N 
ATOM     10  C7  non d ame     -31.382   8.464  22.984  0.00  0.00     0.240 C 
ATOM     11  O3  non d ame     -32.043   8.782  22.072  0.00  0.00    -0.271 OA
ATOM     12  H10 non d ame     -30.790   8.981  24.960  0.00  0.00     0.163 HD
BRANCH  10  13
ATOM     13  C6  non d ame     -30.518   7.167  22.911  0.00  0.00     0.086 C 
ATOM     14  H6  non d ame     -30.693   6.495  23.751  0.00  0.00     0.086 H 
BRANCH  13  15
ATOM     15  N2  non d ame     -30.873   6.430  21.709  0.00  0.00    -0.343 N 
ATOM     16  C5  non d ame     -31.898   5.386  21.779  0.00  0.00     0.273 C 
ATOM     17  O2  non d ame     -32.428   5.144  22.808  0.00  0.00    -0.266 OA
ATOM     18  H5  non d ame     -30.413   6.641  20.835  0.00  0.00     0.163 HD
BRANCH  16  19
ATOM     19  C4  non d ame     -32.284   4.600  20.516  0.00  0.00     0.154 A 
ATOM     20  C1  non d ame     -32.473   3.187  20.402  0.00  0.00    -0.017 A 
ATOM     21  C2  non d ame     -32.814   2.975  19.047  0.00  0.00     0.077 A 
ATOM     22  H1  non d ame     -32.377   2.431  21.181  0.00  0.00     0.091 H 
ATOM     23  O1  non d ame     -32.819   4.136  18.462  0.00  0.00    -0.218 OA
ATOM     24  N1  non d ame     -32.513   5.100  19.299  0.00  0.00    -0.123 NA
BRANCH  21  25
ATOM     25  C3  non d ame     -33.121   1.634  18.394  0.00  0.00    -0.029 C 
ATOM     26  H2  non d ame     -34.114   1.666  17.948  0.00  0.00     0.036 H 
ATOM     27  H3  non d ame     -32.382   1.429  17.619  0.00  0.00     0.036 H 
ATOM     28  H4  non d ame     -33.085   0.846  19.146  0.00  0.00     0.036 H 
ENDBRANCH  21  25
ENDBRANCH  16  19
ENDBRANCH  13  15
BRANCH  13  29
ATOM     29  C8  non d ame     -29.057   7.534  22.878  0.00  0.00    -0.049 C 
ATOM     30  H7  non d ame     -28.500   6.765  22.344  0.00  0.00     0.030 H 
ATOM     31  H8  non d ame     -28.933   8.490  22.371  0.00  0.00     0.030 H 
ATOM     32  H9  non d ame     -28.679   7.612  23.899  0.00  0.00     0.030 H 
ENDBRANCH  13  29
ENDBRANCH  10  13
ENDBRANCH   7   9
BRANCH   7  33
ATOM     33  C11 non d ame     -32.828  10.586  25.666  0.00  0.00    -0.033 C 
ATOM     34  H12 non d ame     -33.352  11.540  25.720  0.00  0.00     0.042 H 
BRANCH  33  35
ATOM     35  C12 non d ame     -33.885   9.458  25.884  0.00  0.00    -0.071 C 
ATOM     36  H13 non d ame     -33.380   8.493  25.940  0.00  0.00     0.028 H 
ATOM     37  H14 non d ame     -34.425   9.640  26.812  0.00  0.00     0.028 H 
ATOM     38  H15 non d ame     -34.587   9.452  25.050  0.00  0.00     0.028 H 
ENDBRANCH  33  35
BRANCH  33  39
ATOM     39  C13 non d ame     -31.741  10.567  26.787  0.00  0.00    -0.071 C 
ATOM     40  H16 non d ame     -32.009  11.281  27.566  0.00  0.00     0.028 H 
ATOM     41  H17 non d ame     -31.677   9.567  27.216  0.00  0.00     0.028 H 
ATOM     42  H18 non d ame     -30.775  10.841  26.361  0.00  0.00     0.028 H 
ENDBRANCH  33  39
ENDBRANCH   7  33
ENDBRANCH   4   7
ENDBRANCH   1   3
BRANCH   1  43
ATOM     43  C15 non d ame     -31.309  15.289  25.257  0.00  0.00     0.240 C 
ATOM     44  O5  non d ame     -30.935  16.410  25.133  0.00  0.00    -0.271 OA
ATOM     45  N6  non d ame     -32.106  14.902  26.456  0.00  0.00    -0.355 N 
ATOM     46  H46 non d ame     -32.434  13.954  26.570  0.00  0.00     0.162 HD
BRANCH  45  47
ATOM     47  C20 non d ame     -32.415  15.916  27.488  0.00  0.00     0.013 C 
ATOM     48  H30 non d ame     -31.742  16.760  27.340  0.00  0.00     0.072 H 
BRANCH  47  49
ATOM     49  C21 non d ame     -32.200  15.316  28.859  0.00  0.00    -0.038 C 
ATOM     50  H31 non d ame     -31.607  16.046  29.410  0.00  0.00     0.036 H 
ATOM     51  H32 non d ame     -33.191  15.036  29.217  0.00  0.00     0.036 H 
BRANCH  49  52
ATOM     52  C22 non d ame     -31.367  14.016  28.820  0.00  0.00     0.018 C 
ATOM     53  H33 non d ame     -31.677  13.494  27.916  0.00  0.00     0.048 H 
ATOM     54  H34 non d ame     -30.329  14.327  28.943  0.00  0.00     0.048 H 
BRANCH  52  55
ATOM     55  C23 non d ame     -31.664  13.047  29.998  0.00  0.00     0.259 C 
ATOM     56  O7  non d ame     -30.915  12.968  30.918  0.00  0.00    -0.265 OA
BRANCH  55  57
ATOM     57  O8  non d ame     -32.837  12.242  29.959  0.00  0.00    -0.317 OA
BRANCH  57  58
ATOM     58  C29 non d ame     -33.102  11.539  31.177  0.00  0.00     0.052 C 
ATOM     59  H47 non d ame     -32.138  11.158  31.513  0.00  0.00     0.082 H 
ATOM     60  H48 non d ame     -33.663  12.232  31.802  0.00  0.00     0.082 H 
BRANCH  58  61
ATOM     61  C35 non d ame     -34.017  10.331  30.842  0.00  0.00    -0.034 A 
ATOM     62  C30 non d ame     -33.769   9.562  29.708  0.00  0.00    -0.075 A 
ATOM     63  C31 non d ame     -34.591   8.478  29.407  0.00  0.00    -0.082 A 
ATOM     64  H49 non d ame     -32.931   9.810  29.056  0.00  0.00     0.084 H 
ATOM     65  C32 non d ame     -35.666   8.163  30.243  0.00  0.00    -0.083 A 
ATOM     66  H50 non d ame     -34.393   7.876  28.519  0.00  0.00     0.083 H 
ATOM     67  C33 non d ame     -35.912   8.936  31.370  0.00  0.00    -0.082 A 
ATOM     68  H51 non d ame     -36.314   7.316  30.014  0.00  0.00     0.083 H 
ATOM     69  C34 non d ame     -35.092  10.019  31.676  0.00  0.00    -0.075 A 
ATOM     70  H52 non d ame     -36.754   8.689  32.019  0.00  0.00     0.083 H 
ATOM     71  H53 non d ame     -35.290  10.620  32.564  0.00  0.00     0.084 H 
ENDBRANCH  58  61
ENDBRANCH  57  58
ENDBRANCH  55  57
ENDBRANCH  52  55
ENDBRANCH  49  52
ENDBRANCH  47  49
BRANCH  47  72
ATOM     72  C24 non d ame     -33.868  16.366  27.350  0.00  0.00    -0.039 C 
ATOM     73  H35 non d ame     -34.293  15.737  26.566  0.00  0.00     0.036 H 
ATOM     74  H36 non d ame     -34.280  16.331  28.359  0.00  0.00     0.036 H 
BRANCH  72  75
ATOM     75  C25 non d ame     -33.974  17.883  26.847  0.00  0.00    -0.001 C 
ATOM     76  C26 non d ame     -32.511  18.620  26.982  0.00  0.00    -0.035 C 
ATOM     77  C27 non d ame     -32.668  19.785  27.655  0.00  0.00     0.085 C 
ATOM     78  H38 non d ame     -31.856  18.038  27.630  0.00  0.00     0.036 H 
ATOM     79  H39 non d ame     -32.160  18.940  26.000  0.00  0.00     0.036 H 
ATOM     80  N5  non d ame     -34.045  19.752  28.277  0.00  0.00    -0.049 N 
ATOM     81  H40 non d ame     -31.920  19.767  28.447  0.00  0.00     0.075 H 
ATOM     82  H41 non d ame     -32.640  20.566  26.897  0.00  0.00     0.075 H 
ATOM     83  C28 non d ame     -34.833  18.547  27.546  0.00  0.00     0.193 C 
ATOM     84  H42 non d ame     -33.914  19.508  29.247  0.00  0.00     0.280 HD
ATOM     85  H43 non d ame     -34.489  20.625  28.030  0.00  0.00     0.280 HD
ATOM     86  H44 non d ame     -35.584  18.760  26.785  0.00  0.00     0.129 H 
ATOM     87  H37 non d ame     -34.484  17.965  25.888  0.00  0.00     0.046 H 
BRANCH  83  88
ATOM     88  O6  non d ame     -35.489  17.728  28.515  0.00  0.00    -0.369 OA
ATOM     89  H45 non d ame     -35.946  18.286  29.149  0.00  0.00     0.212 HD
ENDBRANCH  83  88
ENDBRANCH  72  75
ENDBRANCH  47  72
ENDBRANCH  45  47
ENDBRANCH   1  43
BRANCH   1  90
ATOM     90  C16 non d ame     -31.274  14.815  22.788  0.00  0.00    -0.035 C 
ATOM     91  H21 non d ame     -32.109  14.230  22.404  0.00  0.00     0.037 H 
ATOM     92  H22 non d ame     -31.386  15.888  22.945  0.00  0.00     0.037 H 
BRANCH  90  93
ATOM     93  C17 non d ame     -30.106  14.637  21.766  0.00  0.00    -0.059 C 
ATOM     94  H23 non d ame     -29.994  13.570  21.575  0.00  0.00     0.038 H 
BRANCH  93  95
ATOM     95  C18 non d ame     -30.405  15.336  20.401  0.00  0.00    -0.073 C 
ATOM     96  H24 non d ame     -30.822  14.609  19.704  0.00  0.00     0.028 H 
ATOM     97  H25 non d ame     -31.122  16.142  20.556  0.00  0.00     0.028 H 
ATOM     98  H26 non d ame     -29.481  15.744  19.992  0.00  0.00     0.028 H 
ENDBRANCH  93  95
BRANCH  93  99
ATOM     99  C19 non d ame     -28.784  15.136  22.355  0.00  0.00    -0.073 C 
ATOM    100  H27 non d ame     -28.966  15.572  23.338  0.00  0.00     0.028 H 
ATOM    101  H28 non d ame     -28.090  14.301  22.452  0.00  0.00     0.028 H 
ATOM    102  H29 non d ame     -28.355  15.891  21.696  0.00  0.00     0.028 H 
ENDBRANCH  93  99
ENDBRANCH  90  93
ENDBRANCH   1  90
TORSDOF 26
ENDMDL
MODEL 2
REMARK VINA RESULT:      -7.4      3.245      8.745
REMARK  26 active torsions:
REMARK  status: ('A' for Active; 'I' for Inactive)
REMARK    1  A    between atoms: C2_2  and  C3_3 
REMARK    2  A    between atoms: C4_6  and  C5_7 
REMARK       I    between atoms: C5_7  and  N2_9 
REMARK    3  A    between atoms: N2_9  and  C6_10 
REMARK    4  A    between atoms: C6_10  and  C7_11 
REMARK    5  A    between atoms: C6_10  and  C8_13 
REMARK       I    between atoms: C7_11  and  N3_14 
REMARK    6  A    between atoms: N3_14  and  C9_15 
REMARK    7  A    between atoms: C9_15  and  C10_16 
REMARK    8  A    between atoms: C9_15  and  C11_18 
REMARK       I    between atoms: C10_16  and  N4_21 
REMARK    9  A    between atoms: C11_18  and  C12_19 
REMARK   10  A    between atoms: C11_18  and  C13_20 
REMARK   11  A    between atoms: N4_21  and  C14_22 
REMARK   12  A    between atoms: C14_22  and  C15_23 
REMARK   13  A    between atoms: C14_22  and  C16_25 
REMARK       I    between atoms: C15_23  and  N6_40 
REMARK   14  A    between atoms: C16_25  and  C17_26 
REMARK   15  A    between atoms: C17_26  and  C18_27 
REMARK   16  A    between atoms: C17_26  and  C19_28 
REMARK   17  A    between atoms: C20_29  and  C21_30 
REMARK   18  A    between atoms: C20_29  and  C24_33 
REMARK   19  A    between atoms: C20_29  and  N6_40 
REMARK   20  A    between atoms: C21_30  and  C22_31 
REMARK   21  A    between atoms: C22_31  and  C23_32 
REMARK   22  A    between atoms: C23_32  and  O8_43 
REMARK   23  A    between atoms: C24_33  and  C25_34 
REMARK   24  A    between atoms: C28_38  and  O6_39 
REMARK   25  A    between atoms: C29_42  and  O8_43 
REMARK   26  A    between atoms: C29_42  and  C35_49 
ROOT
ATOM      1  C14 non d ame     -32.659   9.526  24.769  0.00  0.00     0.089 C 
ATOM      2  H20 non d ame     -32.283   8.634  25.270  0.00  0.00     0.087 H 
ENDROOT
BRANCH   1   3
ATOM      3  N4  non d ame     -33.971   9.821  25.325  0.00  0.00    -0.346 N 
ATOM      4  C10 non d ame     -34.817   8.718  25.908  0.00  0.00     0.241 C 
ATOM      5  O4  non d ame     -34.423   7.599  25.917  0.00  0.00    -0.271 OA
ATOM      6  H19 non d ame     -34.290  10.779  25.305  0.00  0.00     0.163 HD
BRANCH   4   7
ATOM      7  C9  non d ame     -36.171   9.042  26.484  0.00  0.00     0.092 C 
ATOM      8  H11 non d ame     -36.708   8.115  26.682  0.00  0.00     0.088 H 
BRANCH   7   9
ATOM      9  N3  non d ame     -36.005   9.731  27.768  0.00  0.00    -0.346 N 
ATOM     10  C7  non d ame     -36.451   9.101  28.985  0.00  0.00     0.240 C 
ATOM     11  O3  non d ame     -36.947   8.042  28.951  0.00  0.00    -0.271 OA
ATOM     12  H10 non d ame     -35.580  10.646  27.812  0.00  0.00     0.163 HD
BRANCH  10  13
ATOM     13  C6  non d ame     -36.274   9.840  30.349  0.00  0.00     0.086 C 
ATOM     14  H6  non d ame     -36.016   9.164  31.164  0.00  0.00     0.086 H 
BRANCH  13  15
ATOM     15  N2  non d ame     -35.180  10.788  30.233  0.00  0.00    -0.343 N 
ATOM     16  C5  non d ame     -33.871  10.452  30.796  0.00  0.00     0.273 C 
ATOM     17  O2  non d ame     -33.709   9.417  31.344  0.00  0.00    -0.266 OA
ATOM     18  H5  non d ame     -35.327  11.672  29.766  0.00  0.00     0.163 HD
BRANCH  16  19
ATOM     19  C4  non d ame     -32.704  11.446  30.680  0.00  0.00     0.154 A 
ATOM     20  C1  non d ame     -32.726  12.736  30.062  0.00  0.00    -0.017 A 
ATOM     21  C2  non d ame     -31.415  13.238  30.223  0.00  0.00     0.077 A 
ATOM     22  H1  non d ame     -33.564  13.232  29.572  0.00  0.00     0.091 H 
ATOM     23  O1  non d ame     -30.730  12.335  30.861  0.00  0.00    -0.218 OA
ATOM     24  N1  non d ame     -31.461  11.280  31.138  0.00  0.00    -0.123 NA
BRANCH  21  25
ATOM     25  C3  non d ame     -30.901  14.587  29.740  0.00  0.00    -0.029 C 
ATOM     26  H2  non d ame     -31.253  14.769  28.725  0.00  0.00     0.036 H 
ATOM     27  H3  non d ame     -31.271  15.374  30.397  0.00  0.00     0.036 H 
ATOM     28  H4  non d ame     -29.811  14.587  29.752  0.00  0.00     0.036 H 
ENDBRANCH  21  25
ENDBRANCH  16  19
ENDBRANCH  13  15
BRANCH  13  29
ATOM     29  C8  non d ame     -37.549  10.562  30.701  0.00  0.00    -0.049 C 
ATOM     30  H7  non d ame     -37.548  10.807  31.762  0.00  0.00     0.030 H 
ATOM     31  H8  non d ame     -37.621  11.480  30.117  0.00  0.00     0.030 H 
ATOM     32  H9  non d ame     -38.404   9.922  30.477  0.00  0.00     0.030 H 
ENDBRANCH  13  29
ENDBRANCH  10  13
ENDBRANCH   7   9
BRANCH   7  33
ATOM     33  C11 non d ame     -36.945   9.968  25.499  0.00  0.00    -0.033 C 
ATOM     34  H12 non d ame     -36.303  10.820  25.275  0.00  0.00     0.042 H 
BRANCH  33  35
ATOM     35  C12 non d ame     -37.243   9.240  24.152  0.00  0.00    -0.071 C 
ATOM     36  H13 non d ame     -38.318   9.079  24.056  0.00  0.00     0.028 H 
ATOM     37  H14 non d ame     -36.892   9.852  23.321  0.00  0.00     0.028 H 
ATOM     38  H15 non d ame     -36.731   8.278  24.137  0.00  0.00     0.028 H 
ENDBRANCH  33  35
BRANCH  33  39
ATOM     39  C13 non d ame     -38.255  10.510  26.153  0.00  0.00    -0.071 C 
ATOM     40  H16 non d ame     -38.811   9.682  26.593  0.00  0.00     0.028 H 
ATOM     41  H17 non d ame     -38.003  11.232  26.930  0.00  0.00     0.028 H 
ATOM     42  H18 non d ame     -38.868  10.995  25.394  0.00  0.00     0.028 H 
ENDBRANCH  33  39
ENDBRANCH   7  33
ENDBRANCH   4   7
ENDBRANCH   1   3
BRANCH   1  43
ATOM     43  C15 non d ame     -31.737  10.758  24.995  0.00  0.00     0.240 C 
ATOM     44  O5  non d ame     -30.994  10.779  25.923  0.00  0.00    -0.271 OA
ATOM     45  N6  non d ame     -31.771  11.909  24.048  0.00  0.00    -0.355 N 
ATOM     46  H46 non d ame     -32.395  11.902  23.253  0.00  0.00     0.162 HD
BRANCH  45  47
ATOM     47  C20 non d ame     -30.887  13.073  24.277  0.00  0.00     0.013 C 
ATOM     48  H30 non d ame     -30.151  12.791  25.030  0.00  0.00     0.072 H 
BRANCH  47  49
ATOM     49  C21 non d ame     -31.713  14.239  24.772  0.00  0.00    -0.038 C 
ATOM     50  H31 non d ame     -31.111  15.128  24.582  0.00  0.00     0.036 H 
ATOM     51  H32 non d ame     -32.689  14.130  24.297  0.00  0.00     0.036 H 
BRANCH  49  52
ATOM     52  C22 non d ame     -31.961  14.195  26.295  0.00  0.00     0.018 C 
ATOM     53  H33 non d ame     -31.645  13.203  26.617  0.00  0.00     0.048 H 
ATOM     54  H34 non d ame     -31.471  15.081  26.699  0.00  0.00     0.048 H 
BRANCH  52  55
ATOM     55  C23 non d ame     -33.459  14.316  26.690  0.00  0.00     0.259 C 
ATOM     56  O7  non d ame     -34.295  13.754  26.060  0.00  0.00    -0.265 OA
BRANCH  55  57
ATOM     57  O8  non d ame     -33.823  15.120  27.806  0.00  0.00    -0.317 OA
BRANCH  57  58
ATOM     58  C29 non d ame     -34.841  16.084  27.523  0.00  0.00     0.052 C 
ATOM     59  H47 non d ame     -35.391  15.689  26.669  0.00  0.00     0.082 H 
ATOM     60  H48 non d ame     -35.353  16.259  28.468  0.00  0.00     0.082 H 
BRANCH  58  61
ATOM     61  C35 non d ame     -34.144  17.402  27.091  0.00  0.00    -0.034 A 
ATOM     62  C30 non d ame     -33.039  17.868  27.797  0.00  0.00    -0.075 A 
ATOM     63  C31 non d ame     -32.413  19.053  27.410  0.00  0.00    -0.082 A 
ATOM     64  H49 non d ame     -32.663  17.307  28.652  0.00  0.00     0.084 H 
ATOM     65  C32 non d ame     -32.898  19.773  26.314  0.00  0.00    -0.083 A 
ATOM     66  H50 non d ame     -31.546  19.415  27.963  0.00  0.00     0.083 H 
ATOM     67  C33 non d ame     -34.003  19.306  25.617  0.00  0.00    -0.082 A 
ATOM     68  H51 non d ame     -32.414  20.700  26.005  0.00  0.00     0.083 H 
ATOM     69  C34 non d ame     -34.630  18.122  25.999  0.00  0.00    -0.075 A 
ATOM     70  H52 non d ame     -34.380  19.871  24.763  0.00  0.00     0.083 H 
ATOM     71  H53 non d ame     -35.497  17.760  25.444  0.00  0.00     0.084 H 
ENDBRANCH  58  61
ENDBRANCH  57  58
ENDBRANCH  55  57
ENDBRANCH  52  55
ENDBRANCH  49  52
ENDBRANCH  47  49
BRANCH  47  72
ATOM     72  C24 non d ame     -30.192  13.456  22.973  0.00  0.00    -0.039 C 
ATOM     73  H35 non d ame     -29.145  13.185  23.113  0.00  0.00     0.036 H 
ATOM     74  H36 non d ame     -30.776  12.985  22.183  0.00  0.00     0.036 H 
BRANCH  72  75
ATOM     75  C25 non d ame     -30.240  15.037  22.717  0.00  0.00    -0.001 C 
ATOM     76  C26 non d ame     -31.181  15.364  21.410  0.00  0.00    -0.035 C 
ATOM     77  C27 non d ame     -30.489  16.163  20.562  0.00  0.00     0.085 C 
ATOM     78  H38 non d ame     -31.343  14.456  20.828  0.00  0.00     0.036 H 
ATOM     79  H39 non d ame     -32.031  15.981  21.704  0.00  0.00     0.036 H 
ATOM     80  N5  non d ame     -29.048  16.143  21.015  0.00  0.00    -0.049 N 
ATOM     81  H40 non d ame     -30.562  15.683  19.586  0.00  0.00     0.075 H 
ATOM     82  H41 non d ame     -30.894  17.163  20.709  0.00  0.00     0.075 H 
ATOM     83  C28 non d ame     -29.059  15.511  22.501  0.00  0.00     0.193 C 
ATOM     84  H42 non d ame     -28.564  15.507  20.399  0.00  0.00     0.280 HD
ATOM     85  H43 non d ame     -28.756  17.108  21.077  0.00  0.00     0.280 HD
ATOM     86  H44 non d ame     -28.940  16.152  23.375  0.00  0.00     0.129 H 
ATOM     87  H37 non d ame     -30.447  15.596  23.629  0.00  0.00     0.046 H 
BRANCH  83  88
ATOM     88  O6  non d ame     -28.046  14.511  22.618  0.00  0.00    -0.369 OA
ATOM     89  H45 non d ame     -27.852  14.148  21.750  0.00  0.00     0.212 HD
ENDBRANCH  83  88
ENDBRANCH  72  75
ENDBRANCH  47  72
ENDBRANCH  45  47
ENDBRANCH   1  43
BRANCH   1  90
ATOM     90  C16 non d ame     -32.799   9.259  23.279  0.00  0.00    -0.035 C 
ATOM     91  H21 non d ame     -33.842   9.468  23.045  0.00  0.00     0.037 H 
ATOM     92  H22 non d ame     -32.007   9.840  22.806  0.00  0.00     0.037 H 
BRANCH  90  93
ATOM     93  C17 non d ame     -32.550   7.768  22.884  0.00  0.00    -0.059 C 
ATOM     94  H23 non d ame     -33.504   7.244  22.954  0.00  0.00     0.038 H 
BRANCH  93  95
ATOM     95  C18 non d ame     -32.036   7.625  21.416  0.00  0.00    -0.073 C 
ATOM     96  H24 non d ame     -31.156   6.981  21.400  0.00  0.00     0.028 H 
ATOM     97  H25 non d ame     -32.818   7.185  20.798  0.00  0.00     0.028 H 
ATOM     98  H26 non d ame     -31.773   8.608  21.025  0.00  0.00     0.028 H 
ENDBRANCH  93  95
BRANCH  93  99
ATOM     99  C19 non d ame     -31.588   7.096  23.866  0.00  0.00    -0.073 C 
ATOM    100  H27 non d ame     -32.030   7.093  24.864  0.00  0.00     0.028 H 
ATOM    101  H28 non d ame     -31.402   6.069  23.549  0.00  0.00     0.028 H 
ATOM    102  H29 non d ame     -30.647   7.645  23.887  0.00  0.00     0.028 H 
ENDBRANCH  93  99
ENDBRANCH  90  93
ENDBRANCH   1  90
TORSDOF 26
ENDMDL
MODEL 3
REMARK VINA RESULT:      -7.4      2.836      8.333
REMARK  26 active torsions:
REMARK  status: ('A' for Active; 'I' for Inactive)
REMARK    1  A    between atoms: C2_2  and  C3_3 
REMARK    2  A    between atoms: C4_6  and  C5_7 
REMARK       I    between atoms: C5_7  and  N2_9 
REMARK    3  A    between atoms: N2_9  and  C6_10 
REMARK    4  A    between atoms: C6_10  and  C7_11 
REMARK    5  A    between atoms: C6_10  and  C8_13 
REMARK       I    between atoms: C7_11  and  N3_14 
REMARK    6  A    between atoms: N3_14  and  C9_15 
REMARK    7  A    between atoms: C9_15  and  C10_16 
REMARK    8  A    between atoms: C9_15  and  C11_18 
REMARK       I    between atoms: C10_16  and  N4_21 
REMARK    9  A    between atoms: C11_18  and  C12_19 
REMARK   10  A    between atoms: C11_18  and  C13_20 
REMARK   11  A    between atoms: N4_21  and  C14_22 
REMARK   12  A    between atoms: C14_22  and  C15_23 
REMARK   13  A    between atoms: C14_22  and  C16_25 
REMARK       I    between atoms: C15_23  and  N6_40 
REMARK   14  A    between atoms: C16_25  and  C17_26 
REMARK   15  A    between atoms: C17_26  and  C18_27 
REMARK   16  A    between atoms: C17_26  and  C19_28 
REMARK   17  A    between atoms: C20_29  and  C21_30 
REMARK   18  A    between atoms: C20_29  and  C24_33 
REMARK   19  A    between atoms: C20_29  and  N6_40 
REMARK   20  A    between atoms: C21_30  and  C22_31 
REMARK   21  A    between atoms: C22_31  and  C23_32 
REMARK   22  A    between atoms: C23_32  and  O8_43 
REMARK   23  A    between atoms: C24_33  and  C25_34 
REMARK   24  A    between atoms: C28_38  and  O6_39 
REMARK   25  A    between atoms: C29_42  and  O8_43 
REMARK   26  A    between atoms: C29_42  and  C35_49 
ROOT
ATOM      1  C14 non d ame     -32.283   9.500  24.175  0.00  0.00     0.089 C 
ATOM      2  H20 non d ame     -31.918   8.635  24.729  0.00  0.00     0.087 H 
ENDROOT
BRANCH   1   3
ATOM      3  N4  non d ame     -33.577   9.864  24.732  0.00  0.00    -0.346 N 
ATOM      4  C10 non d ame     -34.260   8.959  25.727  0.00  0.00     0.241 C 
ATOM      5  O4  non d ame     -33.749   7.942  26.062  0.00  0.00    -0.271 OA
ATOM      6  H19 non d ame     -33.996  10.732  24.432  0.00  0.00     0.163 HD
BRANCH   4   7
ATOM      7  C9  non d ame     -35.597   9.353  26.297  0.00  0.00     0.092 C 
ATOM      8  H11 non d ame     -35.530   9.377  27.385  0.00  0.00     0.088 H 
BRANCH   7   9
ATOM      9  N3  non d ame     -35.938  10.708  25.853  0.00  0.00    -0.346 N 
ATOM     10  C7  non d ame     -36.020  11.781  26.813  0.00  0.00     0.240 C 
ATOM     11  O3  non d ame     -35.815  11.572  27.946  0.00  0.00    -0.271 OA
ATOM     12  H10 non d ame     -36.119  10.903  24.879  0.00  0.00     0.163 HD
BRANCH  10  13
ATOM     13  C6  non d ame     -36.387  13.221  26.336  0.00  0.00     0.086 C 
ATOM     14  H6  non d ame     -37.288  13.606  26.811  0.00  0.00     0.086 H 
BRANCH  13  15
ATOM     15  N2  non d ame     -35.308  14.126  26.695  0.00  0.00    -0.343 N 
ATOM     16  C5  non d ame     -35.626  15.472  27.176  0.00  0.00     0.273 C 
ATOM     17  O2  non d ame     -36.752  15.819  27.268  0.00  0.00    -0.266 OA
ATOM     18  H5  non d ame     -34.348  13.823  26.610  0.00  0.00     0.163 HD
BRANCH  16  19
ATOM     19  C4  non d ame     -34.494  16.439  27.560  0.00  0.00     0.154 A 
ATOM     20  C1  non d ame     -34.063  17.596  26.836  0.00  0.00    -0.017 A 
ATOM     21  C2  non d ame     -33.005  18.130  27.604  0.00  0.00     0.077 A 
ATOM     22  H1  non d ame     -34.458  17.987  25.898  0.00  0.00     0.091 H 
ATOM     23  O1  non d ame     -32.855  17.365  28.644  0.00  0.00    -0.218 OA
ATOM     24  N1  non d ame     -33.713  16.371  28.641  0.00  0.00    -0.123 NA
BRANCH  21  25
ATOM     25  C3  non d ame     -32.191  19.374  27.275  0.00  0.00    -0.029 C 
ATOM     26  H2  non d ame     -32.235  20.070  28.112  0.00  0.00     0.036 H 
ATOM     27  H3  non d ame     -31.154  19.093  27.093  0.00  0.00     0.036 H 
ATOM     28  H4  non d ame     -32.599  19.852  26.384  0.00  0.00     0.036 H 
ENDBRANCH  21  25
ENDBRANCH  16  19
ENDBRANCH  13  15
BRANCH  13  29
ATOM     29  C8  non d ame     -36.587  13.221  24.842  0.00  0.00    -0.049 C 
ATOM     30  H7  non d ame     -37.177  12.353  24.553  0.00  0.00     0.030 H 
ATOM     31  H8  non d ame     -37.110  14.130  24.545  0.00  0.00     0.030 H 
ATOM     32  H9  non d ame     -35.616  13.182  24.345  0.00  0.00     0.030 H 
ENDBRANCH  13  29
ENDBRANCH  10  13
ENDBRANCH   7   9
BRANCH   7  33
ATOM     33  C11 non d ame     -36.686   8.358  25.799  0.00  0.00    -0.033 C 
ATOM     34  H12 non d ame     -36.353   7.352  26.053  0.00  0.00     0.042 H 
BRANCH  33  35
ATOM     35  C12 non d ame     -38.047   8.597  26.524  0.00  0.00    -0.071 C 
ATOM     36  H13 non d ame     -38.712   9.163  25.870  0.00  0.00     0.028 H 
ATOM     37  H14 non d ame     -38.505   7.638  26.765  0.00  0.00     0.028 H 
ATOM     38  H15 non d ame     -37.877   9.161  27.441  0.00  0.00     0.028 H 
ENDBRANCH  33  35
BRANCH  33  39
ATOM     39  C13 non d ame     -36.848   8.436  24.248  0.00  0.00    -0.071 C 
ATOM     40  H16 non d ame     -37.420   9.327  23.987  0.00  0.00     0.028 H 
ATOM     41  H17 non d ame     -35.863   8.486  23.781  0.00  0.00     0.028 H 
ATOM     42  H18 non d ame     -37.373   7.550  23.891  0.00  0.00     0.028 H 
ENDBRANCH  33  39
ENDBRANCH   7  33
ENDBRANCH   4   7
ENDBRANCH   1   3
BRANCH   1  43
ATOM     43  C15 non d ame     -31.329  10.723  24.300  0.00  0.00     0.240 C 
ATOM     44  O5  non d ame     -30.157  10.551  24.397  0.00  0.00    -0.271 OA
ATOM     45  N6  non d ame     -31.876  12.110  24.288  0.00  0.00    -0.355 N 
ATOM     46  H46 non d ame     -32.869  12.269  24.201  0.00  0.00     0.162 HD
BRANCH  45  47
ATOM     47  C20 non d ame     -30.955  13.261  24.406  0.00  0.00     0.013 C 
ATOM     48  H30 non d ame     -30.185  13.000  25.133  0.00  0.00     0.072 H 
BRANCH  47  49
ATOM     49  C21 non d ame     -31.727  14.471  24.882  0.00  0.00    -0.038 C 
ATOM     50  H31 non d ame     -31.589  15.230  24.110  0.00  0.00     0.036 H 
ATOM     51  H32 non d ame     -32.727  14.108  25.117  0.00  0.00     0.036 H 
BRANCH  49  52
ATOM     52  C22 non d ame     -31.160  15.068  26.188  0.00  0.00     0.018 C 
ATOM     53  H33 non d ame     -30.098  15.226  26.004  0.00  0.00     0.048 H 
ATOM     54  H34 non d ame     -31.804  15.914  26.429  0.00  0.00     0.048 H 
BRANCH  52  55
ATOM     55  C23 non d ame     -31.245  14.105  27.405  0.00  0.00     0.259 C 
ATOM     56  O7  non d ame     -30.493  14.220  28.318  0.00  0.00    -0.265 OA
BRANCH  55  57
ATOM     57  O8  non d ame     -32.225  13.074  27.410  0.00  0.00    -0.317 OA
BRANCH  57  58
ATOM     58  C29 non d ame     -31.711  11.784  27.753  0.00  0.00     0.052 C 
ATOM     59  H47 non d ame     -31.931  11.142  26.899  0.00  0.00     0.082 H 
ATOM     60  H48 non d ame     -30.680  11.949  28.060  0.00  0.00     0.082 H 
BRANCH  58  61
ATOM     61  C35 non d ame     -32.509  11.261  28.978  0.00  0.00    -0.034 A 
ATOM     62  C30 non d ame     -33.065   9.985  28.953  0.00  0.00    -0.075 A 
ATOM     63  C31 non d ame     -33.783   9.516  30.053  0.00  0.00    -0.082 A 
ATOM     64  H49 non d ame     -32.941   9.354  28.073  0.00  0.00     0.084 H 
ATOM     65  C32 non d ame     -33.944  10.328  31.179  0.00  0.00    -0.083 A 
ATOM     66  H50 non d ame     -34.216   8.515  30.032  0.00  0.00     0.083 H 
ATOM     67  C33 non d ame     -33.391  11.601  31.197  0.00  0.00    -0.082 A 
ATOM     68  H51 non d ame     -34.503   9.968  32.044  0.00  0.00     0.083 H 
ATOM     69  C34 non d ame     -32.672  12.073  30.101  0.00  0.00    -0.075 A 
ATOM     70  H52 non d ame     -33.521  12.233  32.076  0.00  0.00     0.083 H 
ATOM     71  H53 non d ame     -32.239  13.073  30.123  0.00  0.00     0.084 H 
ENDBRANCH  58  61
ENDBRANCH  57  58
ENDBRANCH  55  57
ENDBRANCH  52  55
ENDBRANCH  49  52
ENDBRANCH  47  49
BRANCH  47  72
ATOM     72  C24 non d ame     -30.323  13.559  23.048  0.00  0.00    -0.039 C 
ATOM     73  H35 non d ame     -29.291  13.217  23.128  0.00  0.00     0.036 H 
ATOM     74  H36 non d ame     -30.991  13.109  22.313  0.00  0.00     0.036 H 
BRANCH  72  75
ATOM     75  C25 non d ame     -30.279  15.132  22.747  0.00  0.00    -0.001 C 
ATOM     76  C26 non d ame     -31.329  15.500  21.538  0.00  0.00    -0.035 C 
ATOM     77  C27 non d ame     -30.675  16.220  20.595  0.00  0.00     0.085 C 
ATOM     78  H38 non d ame     -31.623  14.594  21.008  0.00  0.00     0.036 H 
ATOM     79  H39 non d ame     -32.092  16.190  21.901  0.00  0.00     0.036 H 
ATOM     80  N5  non d ame     -29.200  16.097  20.891  0.00  0.00    -0.049 N 
ATOM     81  H40 non d ame     -30.891  15.724  19.648  0.00  0.00     0.075 H 
ATOM     82  H41 non d ame     -30.984  17.253  20.751  0.00  0.00     0.075 H 
ATOM     83  C28 non d ame     -29.096  15.505  22.389  0.00  0.00     0.193 C 
ATOM     84  H42 non d ame     -28.836  15.409  20.248  0.00  0.00     0.280 HD
ATOM     85  H43 non d ame     -28.830  17.037  20.889  0.00  0.00     0.280 HD
ATOM     86  H44 non d ame     -28.833  16.156  23.224  0.00  0.00     0.129 H 
ATOM     87  H37 non d ame     -30.341  15.728  23.657  0.00  0.00     0.046 H 
BRANCH  83  88
ATOM     88  O6  non d ame     -28.155  14.431  22.431  0.00  0.00    -0.369 OA
ATOM     89  H45 non d ame     -27.338  14.704  22.006  0.00  0.00     0.212 HD
ENDBRANCH  83  88
ENDBRANCH  72  75
ENDBRANCH  47  72
ENDBRANCH  45  47
ENDBRANCH   1  43
BRANCH   1  90
ATOM     90  C16 non d ame     -32.458   9.136  22.709  0.00  0.00    -0.035 C 
ATOM     91  H21 non d ame     -33.479   8.769  22.623  0.00  0.00     0.037 H 
ATOM     92  H22 non d ame     -32.146  10.021  22.153  0.00  0.00     0.037 H 
BRANCH  90  93
ATOM     93  C17 non d ame     -31.530   7.970  22.240  0.00  0.00    -0.059 C 
ATOM     94  H23 non d ame     -30.624   8.414  21.828  0.00  0.00     0.038 H 
BRANCH  93  95
ATOM     95  C18 non d ame     -31.109   7.039  23.421  0.00  0.00    -0.073 C 
ATOM     96  H24 non d ame     -30.470   6.240  23.045  0.00  0.00     0.028 H 
ATOM     97  H25 non d ame     -30.563   7.620  24.164  0.00  0.00     0.028 H 
ATOM     98  H26 non d ame     -31.999   6.607  23.879  0.00  0.00     0.028 H 
ENDBRANCH  93  95
BRANCH  93  99
ATOM     99  C19 non d ame     -32.191   7.163  21.119  0.00  0.00    -0.073 C 
ATOM    100  H27 non d ame     -32.692   7.842  20.429  0.00  0.00     0.028 H 
ATOM    101  H28 non d ame     -31.431   6.595  20.581  0.00  0.00     0.028 H 
ATOM    102  H29 non d ame     -32.921   6.476  21.548  0.00  0.00     0.028 H 
ENDBRANCH  93  99
ENDBRANCH  90  93
ENDBRANCH   1  90
TORSDOF 26
ENDMDL
MODEL 4
REMARK VINA RESULT:      -7.2      2.722     10.165
REMARK  26 active torsions:
REMARK  status: ('A' for Active; 'I' for Inactive)
REMARK    1  A    between atoms: C2_2  and  C3_3 
REMARK    2  A    between atoms: C4_6  and  C5_7 
REMARK       I    between atoms: C5_7  and  N2_9 
REMARK    3  A    between atoms: N2_9  and  C6_10 
REMARK    4  A    between atoms: C6_10  and  C7_11 
REMARK    5  A    between atoms: C6_10  and  C8_13 
REMARK       I    between atoms: C7_11  and  N3_14 
REMARK    6  A    between atoms: N3_14  and  C9_15 
REMARK    7  A    between atoms: C9_15  and  C10_16 
REMARK    8  A    between atoms: C9_15  and  C11_18 
REMARK       I    between atoms: C10_16  and  N4_21 
REMARK    9  A    between atoms: C11_18  and  C12_19 
REMARK   10  A    between atoms: C11_18  and  C13_20 
REMARK   11  A    between atoms: N4_21  and  C14_22 
REMARK   12  A    between atoms: C14_22  and  C15_23 
REMARK   13  A    between atoms: C14_22  and  C16_25 
REMARK       I    between atoms: C15_23  and  N6_40 
REMARK   14  A    between atoms: C16_25  and  C17_26 
REMARK   15  A    between atoms: C17_26  and  C18_27 
REMARK   16  A    between atoms: C17_26  and  C19_28 
REMARK   17  A    between atoms: C20_29  and  C21_30 
REMARK   18  A    between atoms: C20_29  and  C24_33 
REMARK   19  A    between atoms: C20_29  and  N6_40 
REMARK   20  A    between atoms: C21_30  and  C22_31 
REMARK   21  A    between atoms: C22_31  and  C23_32 
REMARK   22  A    between atoms: C23_32  and  O8_43 
REMARK   23  A    between atoms: C24_33  and  C25_34 
REMARK   24  A    between atoms: C28_38  and  O6_39 
REMARK   25  A    between atoms: C29_42  and  O8_43 
REMARK   26  A    between atoms: C29_42  and  C35_49 
ROOT
ATOM      1  C14 non d ame     -33.039   9.265  27.488  0.00  0.00     0.089 C 
ATOM      2  H20 non d ame     -32.030   8.853  27.464  0.00  0.00     0.087 H 
ENDROOT
BRANCH   1   3
ATOM      3  N4  non d ame     -32.928  10.680  27.811  0.00  0.00    -0.346 N 
ATOM      4  C10 non d ame     -31.801  11.505  27.243  0.00  0.00     0.241 C 
ATOM      5  O4  non d ame     -30.994  11.008  26.528  0.00  0.00    -0.271 OA
ATOM      6  H19 non d ame     -33.623  11.083  28.424  0.00  0.00     0.163 HD
BRANCH   4   7
ATOM      7  C9  non d ame     -31.704  12.969  27.585  0.00  0.00     0.092 C 
ATOM      8  H11 non d ame     -30.666  13.290  27.494  0.00  0.00     0.088 H 
BRANCH   7   9
ATOM      9  N3  non d ame     -32.485  13.749  26.621  0.00  0.00    -0.346 N 
ATOM     10  C7  non d ame     -31.827  14.384  25.506  0.00  0.00     0.240 C 
ATOM     11  O3  non d ame     -30.669  14.278  25.370  0.00  0.00    -0.271 OA
ATOM     12  H10 non d ame     -33.484  13.851  26.727  0.00  0.00     0.163 HD
BRANCH  10  13
ATOM     13  C6  non d ame     -32.663  15.216  24.485  0.00  0.00     0.086 C 
ATOM     14  H6  non d ame     -33.292  14.594  23.849  0.00  0.00     0.086 H 
BRANCH  13  15
ATOM     15  N2  non d ame     -33.556  16.100  25.215  0.00  0.00    -0.343 N 
ATOM     16  C5  non d ame     -32.997  17.192  26.014  0.00  0.00     0.273 C 
ATOM     17  O2  non d ame     -31.827  17.351  26.065  0.00  0.00    -0.266 OA
ATOM     18  H5  non d ame     -34.555  15.956  25.168  0.00  0.00     0.163 HD
BRANCH  16  19
ATOM     19  C4  non d ame     -33.931  18.134  26.791  0.00  0.00     0.154 A 
ATOM     20  C1  non d ame     -34.776  19.153  26.249  0.00  0.00    -0.017 A 
ATOM     21  C2  non d ame     -35.419  19.725  27.369  0.00  0.00     0.077 A 
ATOM     22  H1  non d ame     -34.904  19.435  25.204  0.00  0.00     0.091 H 
ATOM     23  O1  non d ame     -34.988  19.099  28.425  0.00  0.00    -0.218 OA
ATOM     24  N1  non d ame     -34.118  18.167  28.112  0.00  0.00    -0.123 NA
BRANCH  21  25
ATOM     25  C3  non d ame     -36.432  20.862  27.345  0.00  0.00    -0.029 C 
ATOM     26  H2  non d ame     -37.308  20.556  26.773  0.00  0.00     0.036 H 
ATOM     27  H3  non d ame     -36.732  21.104  28.365  0.00  0.00     0.036 H 
ATOM     28  H4  non d ame     -35.983  21.740  26.881  0.00  0.00     0.036 H 
ENDBRANCH  21  25
ENDBRANCH  16  19
ENDBRANCH  13  15
BRANCH  13  29
ATOM     29  C8  non d ame     -31.736  16.024  23.613  0.00  0.00    -0.049 C 
ATOM     30  H7  non d ame     -32.076  17.059  23.580  0.00  0.00     0.030 H 
ATOM     31  H8  non d ame     -30.727  15.987  24.022  0.00  0.00     0.030 H 
ATOM     32  H9  non d ame     -31.735  15.611  22.603  0.00  0.00     0.030 H 
ENDBRANCH  13  29
ENDBRANCH  10  13
ENDBRANCH   7   9
BRANCH   7  33
ATOM     33  C11 non d ame     -32.267  13.205  29.017  0.00  0.00    -0.033 C 
ATOM     34  H12 non d ame     -33.112  12.530  29.154  0.00  0.00     0.042 H 
BRANCH  33  35
ATOM     35  C12 non d ame     -31.208  12.856  30.109  0.00  0.00    -0.071 C 
ATOM     36  H13 non d ame     -31.017  13.736  30.724  0.00  0.00     0.028 H 
ATOM     37  H14 non d ame     -31.584  12.049  30.736  0.00  0.00     0.028 H 
ATOM     38  H15 non d ame     -30.281  12.543  29.628  0.00  0.00     0.028 H 
ENDBRANCH  33  35
BRANCH  33  39
ATOM     39  C13 non d ame     -32.788  14.669  29.179  0.00  0.00    -0.071 C 
ATOM     40  H16 non d ame     -33.769  14.760  28.713  0.00  0.00     0.028 H 
ATOM     41  H17 non d ame     -32.864  14.913  30.239  0.00  0.00     0.028 H 
ATOM     42  H18 non d ame     -32.092  15.357  28.698  0.00  0.00     0.028 H 
ENDBRANCH  33  39
ENDBRANCH   7  33
ENDBRANCH   4   7
ENDBRANCH   1   3
BRANCH   1  43
ATOM     43  C15 non d ame     -33.761   9.127  26.116  0.00  0.00     0.240 C 
ATOM     44  O5  non d ame     -34.789   9.693  25.930  0.00  0.00    -0.271 OA
ATOM     45  N6  non d ame     -33.165   8.296  25.031  0.00  0.00    -0.355 N 
ATOM     46  H46 non d ame     -32.289   7.814  25.176  0.00  0.00     0.162 HD
BRANCH  45  47
ATOM     47  C20 non d ame     -33.864   8.175  23.733  0.00  0.00     0.013 C 
ATOM     48  H30 non d ame     -34.787   8.752  23.795  0.00  0.00     0.072 H 
BRANCH  47  49
ATOM     49  C21 non d ame     -34.178   6.721  23.468  0.00  0.00    -0.038 C 
ATOM     50  H31 non d ame     -35.233   6.597  23.717  0.00  0.00     0.036 H 
ATOM     51  H32 non d ame     -33.831   6.525  22.453  0.00  0.00     0.036 H 
BRANCH  49  52
ATOM     52  C22 non d ame     -33.395   5.760  24.390  0.00  0.00     0.018 C 
ATOM     53  H33 non d ame     -33.026   4.966  23.743  0.00  0.00     0.048 H 
ATOM     54  H34 non d ame     -32.693   6.387  24.940  0.00  0.00     0.048 H 
BRANCH  52  55
ATOM     55  C23 non d ame     -34.278   5.064  25.463  0.00  0.00     0.259 C 
ATOM     56  O7  non d ame     -34.470   3.892  25.417  0.00  0.00    -0.265 OA
BRANCH  55  57
ATOM     57  O8  non d ame     -34.868   5.846  26.495  0.00  0.00    -0.317 OA
BRANCH  57  58
ATOM     58  C29 non d ame     -35.956   5.202  27.164  0.00  0.00     0.052 C 
ATOM     59  H47 non d ame     -36.850   5.750  26.868  0.00  0.00     0.082 H 
ATOM     60  H48 non d ame     -35.862   4.143  26.928  0.00  0.00     0.082 H 
BRANCH  58  61
ATOM     61  C35 non d ame     -35.752   5.383  28.692  0.00  0.00    -0.034 A 
ATOM     62  C30 non d ame     -36.784   5.888  29.477  0.00  0.00    -0.075 A 
ATOM     63  C31 non d ame     -36.601   6.051  30.850  0.00  0.00    -0.082 A 
ATOM     64  H49 non d ame     -37.736   6.156  29.018  0.00  0.00     0.084 H 
ATOM     65  C32 non d ame     -35.380   5.710  31.437  0.00  0.00    -0.083 A 
ATOM     66  H50 non d ame     -37.413   6.445  31.463  0.00  0.00     0.083 H 
ATOM     67  C33 non d ame     -34.352   5.211  30.648  0.00  0.00    -0.082 A 
ATOM     68  H51 non d ame     -35.228   5.834  32.509  0.00  0.00     0.083 H 
ATOM     69  C34 non d ame     -34.531   5.044  29.277  0.00  0.00    -0.075 A 
ATOM     70  H52 non d ame     -33.398   4.948  31.109  0.00  0.00     0.083 H 
ATOM     71  H53 non d ame     -33.719   4.650  28.665  0.00  0.00     0.084 H 
ENDBRANCH  58  61
ENDBRANCH  57  58
ENDBRANCH  55  57
ENDBRANCH  52  55
ENDBRANCH  49  52
ENDBRANCH  47  49
BRANCH  47  72
ATOM     72  C24 non d ame     -32.974   8.717  22.616  0.00  0.00    -0.039 C 
ATOM     73  H35 non d ame     -33.128   8.045  21.772  0.00  0.00     0.036 H 
ATOM     74  H36 non d ame     -33.232   9.773  22.526  0.00  0.00     0.036 H 
BRANCH  72  75
ATOM     75  C25 non d ame     -31.422   8.642  23.005  0.00  0.00    -0.001 C 
ATOM     76  C26 non d ame     -30.797  10.158  23.112  0.00  0.00    -0.035 C 
ATOM     77  C27 non d ame     -29.674  10.222  22.357  0.00  0.00     0.085 C 
ATOM     78  H38 non d ame     -31.466  10.874  22.633  0.00  0.00     0.036 H 
ATOM     79  H39 non d ame     -30.435  10.344  24.123  0.00  0.00     0.036 H 
ATOM     80  N5  non d ame     -29.656   8.988  21.487  0.00  0.00    -0.049 N 
ATOM     81  H40 non d ame     -29.798  11.102  21.725  0.00  0.00     0.075 H 
ATOM     82  H41 non d ame     -28.846  10.171  23.063  0.00  0.00     0.075 H 
ATOM     83  C28 non d ame     -30.751   7.984  22.119  0.00  0.00     0.193 C 
ATOM     84  H42 non d ame     -29.975   9.277  20.574  0.00  0.00     0.280 HD
ATOM     85  H43 non d ame     -28.740   8.576  21.596  0.00  0.00     0.280 HD
ATOM     86  H44 non d ame     -30.435   7.123  22.710  0.00  0.00     0.129 H 
ATOM     87  H37 non d ame     -31.239   7.970  23.843  0.00  0.00     0.046 H 
BRANCH  83  88
ATOM     88  O6  non d ame     -31.588   7.456  21.090  0.00  0.00    -0.369 OA
ATOM     89  H45 non d ame     -31.328   6.551  20.897  0.00  0.00     0.212 HD
ENDBRANCH  83  88
ENDBRANCH  72  75
ENDBRANCH  47  72
ENDBRANCH  45  47
ENDBRANCH   1  43
BRANCH   1  90
ATOM     90  C16 non d ame     -33.854   8.571  28.567  0.00  0.00    -0.035 C 
ATOM     91  H21 non d ame     -34.617   8.006  28.033  0.00  0.00     0.037 H 
ATOM     92  H22 non d ame     -33.126   8.051  29.189  0.00  0.00     0.037 H 
BRANCH  90  93
ATOM     93  C17 non d ame     -34.615   9.558  29.509  0.00  0.00    -0.059 C 
ATOM     94  H23 non d ame     -34.248  10.563  29.300  0.00  0.00     0.038 H 
BRANCH  93  95
ATOM     95  C18 non d ame     -36.155   9.551  29.249  0.00  0.00    -0.073 C 
ATOM     96  H24 non d ame     -36.685   9.572  30.202  0.00  0.00     0.028 H 
ATOM     97  H25 non d ame     -36.429  10.429  28.663  0.00  0.00     0.028 H 
ATOM     98  H26 non d ame     -36.428   8.649  28.702  0.00  0.00     0.028 H 
ENDBRANCH  93  95
BRANCH  93  99
ATOM     99  C19 non d ame     -34.310   9.256  30.978  0.00  0.00    -0.073 C 
ATOM    100  H27 non d ame     -34.327   8.177  31.139  0.00  0.00     0.028 H 
ATOM    101  H28 non d ame     -33.323   9.645  31.233  0.00  0.00     0.028 H 
ATOM    102  H29 non d ame     -35.061   9.730  31.610  0.00  0.00     0.028 H 
ENDBRANCH  93  99
ENDBRANCH  90  93
ENDBRANCH   1  90
TORSDOF 26
ENDMDL
MODEL 5
REMARK VINA RESULT:      -7.2      4.066     10.007
REMARK  26 active torsions:
REMARK  status: ('A' for Active; 'I' for Inactive)
REMARK    1  A    between atoms: C2_2  and  C3_3 
REMARK    2  A    between atoms: C4_6  and  C5_7 
REMARK       I    between atoms: C5_7  and  N2_9 
REMARK    3  A    between atoms: N2_9  and  C6_10 
REMARK    4  A    between atoms: C6_10  and  C7_11 
REMARK    5  A    between atoms: C6_10  and  C8_13 
REMARK       I    between atoms: C7_11  and  N3_14 
REMARK    6  A    between atoms: N3_14  and  C9_15 
REMARK    7  A    between atoms: C9_15  and  C10_16 
REMARK    8  A    between atoms: C9_15  and  C11_18 
REMARK       I    between atoms: C10_16  and  N4_21 
REMARK    9  A    between atoms: C11_18  and  C12_19 
REMARK   10  A    between atoms: C11_18  and  C13_20 
REMARK   11  A    between atoms: N4_21  and  C14_22 
REMARK   12  A    between atoms: C14_22  and  C15_23 
REMARK   13  A    between atoms: C14_22  and  C16_25 
REMARK       I    between atoms: C15_23  and  N6_40 
REMARK   14  A    between atoms: C16_25  and  C17_26 
REMARK   15  A    between atoms: C17_26  and  C18_27 
REMARK   16  A    between atoms: C17_26  and  C19_28 
REMARK   17  A    between atoms: C20_29  and  C21_30 
REMARK   18  A    between atoms: C20_29  and  C24_33 
REMARK   19  A    between atoms: C20_29  and  N6_40 
REMARK   20  A    between atoms: C21_30  and  C22_31 
REMARK   21  A    between atoms: C22_31  and  C23_32 
REMARK   22  A    between atoms: C23_32  and  O8_43 
REMARK   23  A    between atoms: C24_33  and  C25_34 
REMARK   24  A    between atoms: C28_38  and  O6_39 
REMARK   25  A    between atoms: C29_42  and  O8_43 
REMARK   26  A    between atoms: C29_42  and  C35_49 
ROOT
ATOM      1  C14 non d ame     -33.058  10.071  25.215  0.00  0.00     0.089 C 
ATOM      2  H20 non d ame     -33.166   9.536  26.159  0.00  0.00     0.087 H 
ENDROOT
BRANCH   1   3
ATOM      3  N4  non d ame     -34.283  10.826  24.997  0.00  0.00    -0.346 N 
ATOM      4  C10 non d ame     -35.439  10.696  25.955  0.00  0.00     0.241 C 
ATOM      5  O4  non d ame     -35.362   9.975  26.895  0.00  0.00    -0.271 OA
ATOM      6  H19 non d ame     -34.330  11.432  24.190  0.00  0.00     0.163 HD
BRANCH   4   7
ATOM      7  C9  non d ame     -36.698  11.489  25.716  0.00  0.00     0.092 C 
ATOM      8  H11 non d ame     -37.154  11.734  26.675  0.00  0.00     0.088 H 
BRANCH   7   9
ATOM      9  N3  non d ame     -36.361  12.755  25.059  0.00  0.00    -0.346 N 
ATOM     10  C7  non d ame     -36.478  13.996  25.783  0.00  0.00     0.240 C 
ATOM     11  O3  non d ame     -36.841  13.995  26.896  0.00  0.00    -0.271 OA
ATOM     12  H10 non d ame     -36.048  12.772  24.099  0.00  0.00     0.163 HD
BRANCH  10  13
ATOM     13  C6  non d ame     -36.121  15.341  25.078  0.00  0.00     0.086 C 
ATOM     14  H6  non d ame     -36.845  15.621  24.313  0.00  0.00     0.086 H 
BRANCH  13  15
ATOM     15  N2  non d ame     -36.126  16.408  26.064  0.00  0.00    -0.343 N 
ATOM     16  C5  non d ame     -36.591  17.743  25.682  0.00  0.00     0.273 C 
ATOM     17  O2  non d ame     -36.956  17.949  24.577  0.00  0.00    -0.266 OA
ATOM     18  H5  non d ame     -35.810  16.223  27.006  0.00  0.00     0.163 HD
BRANCH  16  19
ATOM     19  C4  non d ame     -36.602  18.880  26.716  0.00  0.00     0.154 A 
ATOM     20  C1  non d ame     -36.605  18.752  28.141  0.00  0.00    -0.017 A 
ATOM     21  C2  non d ame     -36.617  20.080  28.624  0.00  0.00     0.077 A 
ATOM     22  H1  non d ame     -36.600  17.837  28.733  0.00  0.00     0.091 H 
ATOM     23  O1  non d ame     -36.618  20.869  27.590  0.00  0.00    -0.218 OA
ATOM     24  N1  non d ame     -36.610  20.191  26.465  0.00  0.00    -0.123 NA
BRANCH  21  25
ATOM     25  C3  non d ame     -36.624  20.507  30.085  0.00  0.00    -0.029 C 
ATOM     26  H2  non d ame     -35.925  19.890  30.648  0.00  0.00     0.036 H 
ATOM     27  H3  non d ame     -36.323  21.553  30.160  0.00  0.00     0.036 H 
ATOM     28  H4  non d ame     -37.626  20.388  30.495  0.00  0.00     0.036 H 
ENDBRANCH  21  25
ENDBRANCH  16  19
ENDBRANCH  13  15
BRANCH  13  29
ATOM     29  C8  non d ame     -34.759  15.232  24.441  0.00  0.00    -0.049 C 
ATOM     30  H7  non d ame     -34.376  16.229  24.227  0.00  0.00     0.030 H 
ATOM     31  H8  non d ame     -34.079  14.722  25.123  0.00  0.00     0.030 H 
ATOM     32  H9  non d ame     -34.836  14.665  23.512  0.00  0.00     0.030 H 
ENDBRANCH  13  29
ENDBRANCH  10  13
ENDBRANCH   7   9
BRANCH   7  33
ATOM     33  C11 non d ame     -37.659  10.672  24.802  0.00  0.00    -0.033 C 
ATOM     34  H12 non d ame     -37.068   9.900  24.311  0.00  0.00     0.042 H 
BRANCH  33  35
ATOM     35  C12 non d ame     -38.765   9.956  25.638  0.00  0.00    -0.071 C 
ATOM     36  H13 non d ame     -39.747  10.232  25.253  0.00  0.00     0.028 H 
ATOM     37  H14 non d ame     -38.635   8.877  25.564  0.00  0.00     0.028 H 
ATOM     38  H15 non d ame     -38.687  10.262  26.681  0.00  0.00     0.028 H 
ENDBRANCH  33  35
BRANCH  33  39
ATOM     39  C13 non d ame     -38.283  11.580  23.695  0.00  0.00    -0.071 C 
ATOM     40  H16 non d ame     -39.191  11.114  23.312  0.00  0.00     0.028 H 
ATOM     41  H17 non d ame     -38.524  12.556  24.118  0.00  0.00     0.028 H 
ATOM     42  H18 non d ame     -37.568  11.705  22.882  0.00  0.00     0.028 H 
ENDBRANCH  33  39
ENDBRANCH   7  33
ENDBRANCH   4   7
ENDBRANCH   1   3
BRANCH   1  43
ATOM     43  C15 non d ame     -31.861  11.065  25.236  0.00  0.00     0.240 C 
ATOM     44  O5  non d ame     -30.877  10.792  25.845  0.00  0.00    -0.271 OA
ATOM     45  N6  non d ame     -31.937  12.353  24.490  0.00  0.00    -0.355 N 
ATOM     46  H46 non d ame     -32.766  12.594  23.965  0.00  0.00     0.162 HD
BRANCH  45  47
ATOM     47  C20 non d ame     -30.790  13.286  24.520  0.00  0.00     0.013 C 
ATOM     48  H30 non d ame     -29.990  12.814  25.091  0.00  0.00     0.072 H 
BRANCH  47  49
ATOM     49  C21 non d ame     -31.212  14.576  25.187  0.00  0.00    -0.038 C 
ATOM     50  H31 non d ame     -30.398  15.279  25.008  0.00  0.00     0.036 H 
ATOM     51  H32 non d ame     -32.211  14.790  24.807  0.00  0.00     0.036 H 
BRANCH  49  52
ATOM     52  C22 non d ame     -31.346  14.442  26.719  0.00  0.00     0.018 C 
ATOM     53  H33 non d ame     -30.846  13.510  26.979  0.00  0.00     0.048 H 
ATOM     54  H34 non d ame     -30.987  15.386  27.129  0.00  0.00     0.048 H 
BRANCH  52  55
ATOM     55  C23 non d ame     -32.813  14.293  27.208  0.00  0.00     0.259 C 
ATOM     56  O7  non d ame     -33.352  13.233  27.182  0.00  0.00    -0.265 OA
BRANCH  55  57
ATOM     57  O8  non d ame     -33.512  15.440  27.676  0.00  0.00    -0.317 OA
BRANCH  57  58
ATOM     58  C29 non d ame     -32.680  16.404  28.328  0.00  0.00     0.052 C 
ATOM     59  H47 non d ame     -33.099  16.529  29.326  0.00  0.00     0.082 H 
ATOM     60  H48 non d ame     -31.659  16.044  28.206  0.00  0.00     0.082 H 
BRANCH  58  61
ATOM     61  C35 non d ame     -32.818  17.749  27.565  0.00  0.00    -0.034 A 
ATOM     62  C30 non d ame     -32.822  18.950  28.268  0.00  0.00    -0.075 A 
ATOM     63  C31 non d ame     -32.947  20.158  27.583  0.00  0.00    -0.082 A 
ATOM     64  H49 non d ame     -32.728  18.946  29.353  0.00  0.00     0.084 H 
ATOM     65  C32 non d ame     -33.070  20.162  26.191  0.00  0.00    -0.083 A 
ATOM     66  H50 non d ame     -32.947  21.099  28.136  0.00  0.00     0.083 H 
ATOM     67  C33 non d ame     -33.070  18.961  25.495  0.00  0.00    -0.082 A 
ATOM     68  H51 non d ame     -33.167  21.103  25.648  0.00  0.00     0.083 H 
ATOM     69  C34 non d ame     -32.944  17.751  26.175  0.00  0.00    -0.075 A 
ATOM     70  H52 non d ame     -33.169  18.967  24.409  0.00  0.00     0.083 H 
ATOM     71  H53 non d ame     -32.943  16.812  25.622  0.00  0.00     0.084 H 
ENDBRANCH  58  61
ENDBRANCH  57  58
ENDBRANCH  55  57
ENDBRANCH  52  55
ENDBRANCH  49  52
ENDBRANCH  47  49
BRANCH  47  72
ATOM     72  C24 non d ame     -30.323  13.576  23.095  0.00  0.00    -0.039 C 
ATOM     73  H35 non d ame     -29.321  13.151  23.026  0.00  0.00     0.036 H 
ATOM     74  H36 non d ame     -31.118  13.204  22.448  0.00  0.00     0.036 H 
BRANCH  72  75
ATOM     75  C25 non d ame     -30.190  15.149  22.824  0.00  0.00    -0.001 C 
ATOM     76  C26 non d ame     -31.280  15.615  21.685  0.00  0.00    -0.035 C 
ATOM     77  C27 non d ame     -30.633  16.313  20.720  0.00  0.00     0.085 C 
ATOM     78  H38 non d ame     -31.663  14.744  21.155  0.00  0.00     0.036 H 
ATOM     79  H39 non d ame     -31.972  16.345  22.105  0.00  0.00     0.036 H 
ATOM     80  N5  non d ame     -29.154  16.085  20.928  0.00  0.00    -0.049 N 
ATOM     81  H40 non d ame     -30.935  15.855  19.778  0.00  0.00     0.075 H 
ATOM     82  H41 non d ame     -30.862  17.360  20.915  0.00  0.00     0.075 H 
ATOM     83  C28 non d ame     -29.006  15.452  22.405  0.00  0.00     0.193 C 
ATOM     84  H42 non d ame     -28.874  15.391  20.251  0.00  0.00     0.280 HD
ATOM     85  H43 non d ame     -28.723  16.998  20.924  0.00  0.00     0.280 HD
ATOM     86  H44 non d ame     -28.653  16.064  23.236  0.00  0.00     0.129 H 
ATOM     87  H37 non d ame     -30.160  15.726  23.747  0.00  0.00     0.046 H 
BRANCH  83  88
ATOM     88  O6  non d ame     -28.139  14.317  22.371  0.00  0.00    -0.369 OA
ATOM     89  H45 non d ame     -28.415  13.682  23.037  0.00  0.00     0.212 HD
ENDBRANCH  83  88
ENDBRANCH  72  75
ENDBRANCH  47  72
ENDBRANCH  45  47
ENDBRANCH   1  43
BRANCH   1  90
ATOM     90  C16 non d ame     -32.877   9.078  24.078  0.00  0.00    -0.035 C 
ATOM     91  H21 non d ame     -33.622   9.353  23.333  0.00  0.00     0.037 H 
ATOM     92  H22 non d ame     -31.816   9.115  23.829  0.00  0.00     0.037 H 
BRANCH  90  93
ATOM     93  C17 non d ame     -33.184   7.601  24.483  0.00  0.00    -0.059 C 
ATOM     94  H23 non d ame     -32.648   6.951  23.791  0.00  0.00     0.038 H 
BRANCH  93  95
ATOM     95  C18 non d ame     -32.688   7.270  25.927  0.00  0.00    -0.073 C 
ATOM     96  H24 non d ame     -32.731   6.193  26.089  0.00  0.00     0.028 H 
ATOM     97  H25 non d ame     -31.660   7.613  26.046  0.00  0.00     0.028 H 
ATOM     98  H26 non d ame     -33.326   7.773  26.654  0.00  0.00     0.028 H 
ENDBRANCH  93  95
BRANCH  93  99
ATOM     99  C19 non d ame     -34.676   7.292  24.336  0.00  0.00    -0.073 C 
ATOM    100  H27 non d ame     -35.247   8.219  24.399  0.00  0.00     0.028 H 
ATOM    101  H28 non d ame     -34.857   6.820  23.370  0.00  0.00     0.028 H 
ATOM    102  H29 non d ame     -34.988   6.618  25.133  0.00  0.00     0.028 H 
ENDBRANCH  93  99
ENDBRANCH  90  93
ENDBRANCH   1  90
TORSDOF 26
ENDMDL
MODEL 6
REMARK VINA RESULT:      -7.2      3.388      7.471
REMARK  26 active torsions:
REMARK  status: ('A' for Active; 'I' for Inactive)
REMARK    1  A    between atoms: C2_2  and  C3_3 
REMARK    2  A    between atoms: C4_6  and  C5_7 
REMARK       I    between atoms: C5_7  and  N2_9 
REMARK    3  A    between atoms: N2_9  and  C6_10 
REMARK    4  A    between atoms: C6_10  and  C7_11 
REMARK    5  A    between atoms: C6_10  and  C8_13 
REMARK       I    between atoms: C7_11  and  N3_14 
REMARK    6  A    between atoms: N3_14  and  C9_15 
REMARK    7  A    between atoms: C9_15  and  C10_16 
REMARK    8  A    between atoms: C9_15  and  C11_18 
REMARK       I    between atoms: C10_16  and  N4_21 
REMARK    9  A    between atoms: C11_18  and  C12_19 
REMARK   10  A    between atoms: C11_18  and  C13_20 
REMARK   11  A    between atoms: N4_21  and  C14_22 
REMARK   12  A    between atoms: C14_22  and  C15_23 
REMARK   13  A    between atoms: C14_22  and  C16_25 
REMARK       I    between atoms: C15_23  and  N6_40 
REMARK   14  A    between atoms: C16_25  and  C17_26 
REMARK   15  A    between atoms: C17_26  and  C18_27 
REMARK   16  A    between atoms: C17_26  and  C19_28 
REMARK   17  A    between atoms: C20_29  and  C21_30 
REMARK   18  A    between atoms: C20_29  and  C24_33 
REMARK   19  A    between atoms: C20_29  and  N6_40 
REMARK   20  A    between atoms: C21_30  and  C22_31 
REMARK   21  A    between atoms: C22_31  and  C23_32 
REMARK   22  A    between atoms: C23_32  and  O8_43 
REMARK   23  A    between atoms: C24_33  and  C25_34 
REMARK   24  A    between atoms: C28_38  and  O6_39 
REMARK   25  A    between atoms: C29_42  and  O8_43 
REMARK   26  A    between atoms: C29_42  and  C35_49 
ROOT
ATOM      1  C14 non d ame     -31.052  14.075  24.648  0.00  0.00     0.089 C 
ATOM      2  H20 non d ame     -30.121  13.968  25.204  0.00  0.00     0.087 H 
ENDROOT
BRANCH   1   3
ATOM      3  N4  non d ame     -31.439  12.752  24.182  0.00  0.00    -0.346 N 
ATOM      4  C10 non d ame     -31.258  11.548  25.070  0.00  0.00     0.241 C 
ATOM      5  O4  non d ame     -30.797  11.667  26.157  0.00  0.00    -0.271 OA
ATOM      6  H19 non d ame     -31.827  12.671  23.252  0.00  0.00     0.163 HD
BRANCH   4   7
ATOM      7  C9  non d ame     -31.667  10.186  24.572  0.00  0.00     0.092 C 
ATOM      8  H11 non d ame     -31.089   9.424  25.094  0.00  0.00     0.088 H 
BRANCH   7   9
ATOM      9  N3  non d ame     -33.079   9.953  24.892  0.00  0.00    -0.346 N 
ATOM     10  C7  non d ame     -33.461   8.797  25.665  0.00  0.00     0.240 C 
ATOM     11  O3  non d ame     -32.646   8.044  26.038  0.00  0.00    -0.271 OA
ATOM     12  H10 non d ame     -33.793  10.593  24.576  0.00  0.00     0.163 HD
BRANCH  10  13
ATOM     13  C6  non d ame     -34.965   8.552  25.999  0.00  0.00     0.086 C 
ATOM     14  H6  non d ame     -35.395   7.727  25.431  0.00  0.00     0.086 H 
BRANCH  13  15
ATOM     15  N2  non d ame     -35.085   8.197  27.403  0.00  0.00    -0.343 N 
ATOM     16  C5  non d ame     -35.338   6.804  27.776  0.00  0.00     0.273 C 
ATOM     17  O2  non d ame     -35.446   5.976  26.939  0.00  0.00    -0.266 OA
ATOM     18  H5  non d ame     -34.994   8.911  28.112  0.00  0.00     0.163 HD
BRANCH  16  19
ATOM     19  C4  non d ame     -35.465   6.414  29.257  0.00  0.00     0.154 A 
ATOM     20  C1  non d ame     -34.603   5.548  30.001  0.00  0.00    -0.017 A 
ATOM     21  C2  non d ame     -35.151   5.521  31.303  0.00  0.00     0.077 A 
ATOM     22  H1  non d ame     -33.715   5.022  29.650  0.00  0.00     0.091 H 
ATOM     23  O1  non d ame     -36.203   6.284  31.297  0.00  0.00    -0.218 OA
ATOM     24  N1  non d ame     -36.407   6.817  30.114  0.00  0.00    -0.123 NA
BRANCH  21  25
ATOM     25  C3  non d ame     -34.608   4.741  32.493  0.00  0.00    -0.029 C 
ATOM     26  H2  non d ame     -35.235   3.868  32.673  0.00  0.00     0.036 H 
ATOM     27  H3  non d ame     -33.589   4.417  32.282  0.00  0.00     0.036 H 
ATOM     28  H4  non d ame     -34.610   5.378  33.377  0.00  0.00     0.036 H 
ENDBRANCH  21  25
ENDBRANCH  16  19
ENDBRANCH  13  15
BRANCH  13  29
ATOM     29  C8  non d ame     -35.756   9.803  25.713  0.00  0.00    -0.049 C 
ATOM     30  H7  non d ame     -36.366   9.653  24.823  0.00  0.00     0.030 H 
ATOM     31  H8  non d ame     -36.403  10.026  26.562  0.00  0.00     0.030 H 
ATOM     32  H9  non d ame     -35.072  10.636  25.549  0.00  0.00     0.030 H 
ENDBRANCH  13  29
ENDBRANCH  10  13
ENDBRANCH   7   9
BRANCH   7  33
ATOM     33  C11 non d ame     -31.470  10.117  23.029  0.00  0.00    -0.033 C 
ATOM     34  H12 non d ame     -31.928  11.008  22.599  0.00  0.00     0.042 H 
BRANCH  33  35
ATOM     35  C12 non d ame     -29.956  10.139  22.649  0.00  0.00    -0.071 C 
ATOM     36  H13 non d ame     -29.419  10.796  23.333  0.00  0.00     0.028 H 
ATOM     37  H14 non d ame     -29.549   9.131  22.720  0.00  0.00     0.028 H 
ATOM     38  H15 non d ame     -29.842  10.507  21.630  0.00  0.00     0.028 H 
ENDBRANCH  33  35
BRANCH  33  39
ATOM     39  C13 non d ame     -32.187   8.867  22.429  0.00  0.00    -0.071 C 
ATOM     40  H16 non d ame     -31.934   8.774  21.372  0.00  0.00     0.028 H 
ATOM     41  H17 non d ame     -31.864   7.971  22.960  0.00  0.00     0.028 H 
ATOM     42  H18 non d ame     -33.266   8.980  22.535  0.00  0.00     0.028 H 
ENDBRANCH  33  39
ENDBRANCH   7  33
ENDBRANCH   4   7
ENDBRANCH   1   3
BRANCH   1  43
ATOM     43  C15 non d ame     -32.201  14.643  25.532  0.00  0.00     0.240 C 
ATOM     44  O5  non d ame     -33.323  14.311  25.327  0.00  0.00    -0.271 OA
ATOM     45  N6  non d ame     -31.899  15.593  26.640  0.00  0.00    -0.355 N 
ATOM     46  H46 non d ame     -30.948  15.879  26.827  0.00  0.00     0.162 HD
BRANCH  45  47
ATOM     47  C20 non d ame     -33.002  16.123  27.471  0.00  0.00     0.013 C 
ATOM     48  H30 non d ame     -33.941  15.769  27.046  0.00  0.00     0.072 H 
BRANCH  47  49
ATOM     49  C21 non d ame     -32.962  17.635  27.450  0.00  0.00    -0.038 C 
ATOM     50  H31 non d ame     -32.471  17.929  28.379  0.00  0.00     0.036 H 
ATOM     51  H32 non d ame     -32.519  17.904  26.491  0.00  0.00     0.036 H 
BRANCH  49  52
ATOM     52  C22 non d ame     -34.368  18.272  27.477  0.00  0.00     0.018 C 
ATOM     53  H33 non d ame     -34.990  17.642  26.842  0.00  0.00     0.048 H 
ATOM     54  H34 non d ame     -34.615  18.396  28.532  0.00  0.00     0.048 H 
BRANCH  52  55
ATOM     55  C23 non d ame     -34.423  19.695  26.855  0.00  0.00     0.259 C 
ATOM     56  O7  non d ame     -33.508  20.110  26.219  0.00  0.00    -0.265 OA
BRANCH  55  57
ATOM     57  O8  non d ame     -35.574  20.504  27.064  0.00  0.00    -0.317 OA
BRANCH  57  58
ATOM     58  C29 non d ame     -36.809  19.784  27.008  0.00  0.00     0.052 C 
ATOM     59  H47 non d ame     -36.605  18.812  27.455  0.00  0.00     0.082 H 
ATOM     60  H48 non d ame     -37.555  20.443  27.452  0.00  0.00     0.082 H 
BRANCH  58  61
ATOM     61  C35 non d ame     -37.172  19.572  25.514  0.00  0.00    -0.034 A 
ATOM     62  C30 non d ame     -37.303  18.283  25.005  0.00  0.00    -0.075 A 
ATOM     63  C31 non d ame     -37.628  18.093  23.663  0.00  0.00    -0.082 A 
ATOM     64  H49 non d ame     -37.150  17.424  25.657  0.00  0.00     0.084 H 
ATOM     65  C32 non d ame     -37.821  19.197  22.828  0.00  0.00    -0.083 A 
ATOM     66  H50 non d ame     -37.732  17.081  23.268  0.00  0.00     0.083 H 
ATOM     67  C33 non d ame     -37.686  20.480  23.339  0.00  0.00    -0.082 A 
ATOM     68  H51 non d ame     -38.077  19.056  21.777  0.00  0.00     0.083 H 
ATOM     69  C34 non d ame     -37.363  20.675  24.680  0.00  0.00    -0.075 A 
ATOM     70  H52 non d ame     -37.835  21.340  22.684  0.00  0.00     0.083 H 
ATOM     71  H53 non d ame     -37.260  21.686  25.075  0.00  0.00     0.084 H 
ENDBRANCH  58  61
ENDBRANCH  57  58
ENDBRANCH  55  57
ENDBRANCH  52  55
ENDBRANCH  49  52
ENDBRANCH  47  49
BRANCH  47  72
ATOM     72  C24 non d ame     -32.850  15.628  28.907  0.00  0.00    -0.039 C 
ATOM     73  H35 non d ame     -32.480  16.485  29.472  0.00  0.00     0.036 H 
ATOM     74  H36 non d ame     -33.810  15.181  29.164  0.00  0.00     0.036 H 
BRANCH  72  75
ATOM     75  C25 non d ame     -31.745  14.474  29.023  0.00  0.00    -0.001 C 
ATOM     76  C26 non d ame     -32.461  13.053  29.437  0.00  0.00    -0.035 C 
ATOM     77  C27 non d ame     -31.810  12.530  30.503  0.00  0.00     0.085 C 
ATOM     78  H38 non d ame     -33.466  13.237  29.817  0.00  0.00     0.036 H 
ATOM     79  H39 non d ame     -32.303  12.311  28.653  0.00  0.00     0.036 H 
ATOM     80  N5  non d ame     -30.925  13.621  31.057  0.00  0.00    -0.049 N 
ATOM     81  H40 non d ame     -32.587  12.297  31.232  0.00  0.00     0.075 H 
ATOM     82  H41 non d ame     -31.184  11.735  30.101  0.00  0.00     0.075 H 
ATOM     83  C28 non d ame     -30.860  14.762  29.918  0.00  0.00     0.193 C 
ATOM     84  H42 non d ame     -31.404  13.997  31.862  0.00  0.00     0.280 HD
ATOM     85  H43 non d ame     -30.005  13.216  31.161  0.00  0.00     0.280 HD
ATOM     86  H44 non d ame     -29.973  14.869  29.292  0.00  0.00     0.129 H 
ATOM     87  H37 non d ame     -31.073  14.459  28.165  0.00  0.00     0.046 H 
BRANCH  83  88
ATOM     88  O6  non d ame     -31.078  16.050  30.496  0.00  0.00    -0.369 OA
ATOM     89  H45 non d ame     -31.938  16.068  30.924  0.00  0.00     0.212 HD
ENDBRANCH  83  88
ENDBRANCH  72  75
ENDBRANCH  47  72
ENDBRANCH  45  47
ENDBRANCH   1  43
BRANCH   1  90
ATOM     90  C16 non d ame     -30.835  14.982  23.448  0.00  0.00    -0.035 C 
ATOM     91  H21 non d ame     -31.804  15.047  22.956  0.00  0.00     0.037 H 
ATOM     92  H22 non d ame     -30.364  15.880  23.847  0.00  0.00     0.037 H 
BRANCH  90  93
ATOM     93  C17 non d ame     -29.844  14.396  22.392  0.00  0.00    -0.059 C 
ATOM     94  H23 non d ame     -29.880  13.309  22.473  0.00  0.00     0.038 H 
BRANCH  93  95
ATOM     95  C18 non d ame     -30.244  14.778  20.932  0.00  0.00    -0.073 C 
ATOM     96  H24 non d ame     -31.083  15.474  20.954  0.00  0.00     0.028 H 
ATOM     97  H25 non d ame     -29.396  15.248  20.434  0.00  0.00     0.028 H 
ATOM     98  H26 non d ame     -30.533  13.879  20.387  0.00  0.00     0.028 H 
ENDBRANCH  93  95
BRANCH  93  99
ATOM     99  C19 non d ame     -28.406  14.827  22.693  0.00  0.00    -0.073 C 
ATOM    100  H27 non d ame     -27.734  13.981  22.545  0.00  0.00     0.028 H 
ATOM    101  H28 non d ame     -28.121  15.638  22.022  0.00  0.00     0.028 H 
ATOM    102  H29 non d ame     -28.337  15.169  23.725  0.00  0.00     0.028 H 
ENDBRANCH  93  99
ENDBRANCH  90  93
ENDBRANCH   1  90
TORSDOF 26
ENDMDL
MODEL 7
REMARK VINA RESULT:      -7.2      3.701      9.232
REMARK  26 active torsions:
REMARK  status: ('A' for Active; 'I' for Inactive)
REMARK    1  A    between atoms: C2_2  and  C3_3 
REMARK    2  A    between atoms: C4_6  and  C5_7 
REMARK       I    between atoms: C5_7  and  N2_9 
REMARK    3  A    between atoms: N2_9  and  C6_10 
REMARK    4  A    between atoms: C6_10  and  C7_11 
REMARK    5  A    between atoms: C6_10  and  C8_13 
REMARK       I    between atoms: C7_11  and  N3_14 
REMARK    6  A    between atoms: N3_14  and  C9_15 
REMARK    7  A    between atoms: C9_15  and  C10_16 
REMARK    8  A    between atoms: C9_15  and  C11_18 
REMARK       I    between atoms: C10_16  and  N4_21 
REMARK    9  A    between atoms: C11_18  and  C12_19 
REMARK   10  A    between atoms: C11_18  and  C13_20 
REMARK   11  A    between atoms: N4_21  and  C14_22 
REMARK   12  A    between atoms: C14_22  and  C15_23 
REMARK   13  A    between atoms: C14_22  and  C16_25 
REMARK       I    between atoms: C15_23  and  N6_40 
REMARK   14  A    between atoms: C16_25  and  C17_26 
REMARK   15  A    between atoms: C17_26  and  C18_27 
REMARK   16  A    between atoms: C17_26  and  C19_28 
REMARK   17  A    between atoms: C20_29  and  C21_30 
REMARK   18  A    between atoms: C20_29  and  C24_33 
REMARK   19  A    between atoms: C20_29  and  N6_40 
REMARK   20  A    between atoms: C21_30  and  C22_31 
REMARK   21  A    between atoms: C22_31  and  C23_32 
REMARK   22  A    between atoms: C23_32  and  O8_43 
REMARK   23  A    between atoms: C24_33  and  C25_34 
REMARK   24  A    between atoms: C28_38  and  O6_39 
REMARK   25  A    between atoms: C29_42  and  O8_43 
REMARK   26  A    between atoms: C29_42  and  C35_49 
ROOT
ATOM      1  C14 non d ame     -32.873  10.354  25.565  0.00  0.00     0.089 C 
ATOM      2  H20 non d ame     -33.103  10.032  26.581  0.00  0.00     0.087 H 
ENDROOT
BRANCH   1   3
ATOM      3  N4  non d ame     -34.102  10.867  24.979  0.00  0.00    -0.346 N 
ATOM      4  C10 non d ame     -35.420  10.679  25.686  0.00  0.00     0.241 C 
ATOM      5  O4  non d ame     -35.468  10.109  26.726  0.00  0.00    -0.271 OA
ATOM      6  H19 non d ame     -34.041  11.347  24.092  0.00  0.00     0.163 HD
BRANCH   4   7
ATOM      7  C9  non d ame     -36.682  11.221  25.067  0.00  0.00     0.092 C 
ATOM      8  H11 non d ame     -37.498  11.138  25.785  0.00  0.00     0.088 H 
BRANCH   7   9
ATOM      9  N3  non d ame     -36.509  12.646  24.771  0.00  0.00    -0.346 N 
ATOM     10  C7  non d ame     -36.826  13.634  25.773  0.00  0.00     0.240 C 
ATOM     11  O3  non d ame     -37.222  13.300  26.822  0.00  0.00    -0.271 OA
ATOM     12  H10 non d ame     -36.169  12.950  23.870  0.00  0.00     0.163 HD
BRANCH  10  13
ATOM     13  C6  non d ame     -36.642  15.150  25.451  0.00  0.00     0.086 C 
ATOM     14  H6  non d ame     -37.487  15.570  24.905  0.00  0.00     0.086 H 
BRANCH  13  15
ATOM     15  N2  non d ame     -36.545  15.889  26.699  0.00  0.00    -0.343 N 
ATOM     16  C5  non d ame     -36.969  17.289  26.743  0.00  0.00     0.273 C 
ATOM     17  O2  non d ame     -37.385  17.814  25.768  0.00  0.00    -0.266 OA
ATOM     18  H5  non d ame     -36.186  15.433  27.526  0.00  0.00     0.163 HD
BRANCH  16  19
ATOM     19  C4  non d ame     -36.873  18.082  28.056  0.00  0.00     0.154 A 
ATOM     20  C1  non d ame     -37.833  18.120  29.116  0.00  0.00    -0.017 A 
ATOM     21  C2  non d ame     -37.274  18.986  30.081  0.00  0.00     0.077 A 
ATOM     22  H1  non d ame     -38.789  17.600  29.175  0.00  0.00     0.091 H 
ATOM     23  O1  non d ame     -36.127  19.391  29.622  0.00  0.00    -0.218 OA
ATOM     24  N1  non d ame     -35.870  18.877  28.441  0.00  0.00    -0.123 NA
BRANCH  21  25
ATOM     25  C3  non d ame     -37.898  19.373  31.415  0.00  0.00    -0.029 C 
ATOM     26  H2  non d ame     -38.746  18.721  31.622  0.00  0.00     0.036 H 
ATOM     27  H3  non d ame     -37.158  19.266  32.208  0.00  0.00     0.036 H 
ATOM     28  H4  non d ame     -38.237  20.407  31.373  0.00  0.00     0.036 H 
ENDBRANCH  21  25
ENDBRANCH  16  19
ENDBRANCH  13  15
BRANCH  13  29
ATOM     29  C8  non d ame     -35.390  15.345  24.636  0.00  0.00    -0.049 C 
ATOM     30  H7  non d ame     -35.643  15.353  23.576  0.00  0.00     0.030 H 
ATOM     31  H8  non d ame     -34.925  16.293  24.904  0.00  0.00     0.030 H 
ATOM     32  H9  non d ame     -34.694  14.529  24.837  0.00  0.00     0.030 H 
ENDBRANCH  13  29
ENDBRANCH  10  13
ENDBRANCH   7   9
BRANCH   7  33
ATOM     33  C11 non d ame     -36.983  10.453  23.746  0.00  0.00    -0.033 C 
ATOM     34  H12 non d ame     -36.180  10.679  23.045  0.00  0.00     0.042 H 
BRANCH  33  35
ATOM     35  C12 non d ame     -36.984   8.909  23.976  0.00  0.00    -0.071 C 
ATOM     36  H13 non d ame     -36.050   8.612  24.453  0.00  0.00     0.028 H 
ATOM     37  H14 non d ame     -37.822   8.637  24.616  0.00  0.00     0.028 H 
ATOM     38  H15 non d ame     -37.078   8.400  23.017  0.00  0.00     0.028 H 
ENDBRANCH  33  35
BRANCH  33  39
ATOM     39  C13 non d ame     -38.328  10.933  23.114  0.00  0.00    -0.071 C 
ATOM     40  H16 non d ame     -38.236  11.977  22.813  0.00  0.00     0.028 H 
ATOM     41  H17 non d ame     -38.559  10.321  22.241  0.00  0.00     0.028 H 
ATOM     42  H18 non d ame     -39.129  10.836  23.846  0.00  0.00     0.028 H 
ENDBRANCH  33  39
ENDBRANCH   7  33
ENDBRANCH   4   7
ENDBRANCH   1   3
BRANCH   1  43
ATOM     43  C15 non d ame     -31.801  11.482  25.534  0.00  0.00     0.240 C 
ATOM     44  O5  non d ame     -30.786  11.349  26.138  0.00  0.00    -0.271 OA
ATOM     45  N6  non d ame     -32.036  12.724  24.744  0.00  0.00    -0.355 N 
ATOM     46  H46 non d ame     -32.893  12.846  24.223  0.00  0.00     0.162 HD
BRANCH  45  47
ATOM     47  C20 non d ame     -31.007  13.786  24.725  0.00  0.00     0.013 C 
ATOM     48  H30 non d ame     -30.263  13.544  25.484  0.00  0.00     0.072 H 
BRANCH  47  49
ATOM     49  C21 non d ame     -31.654  15.115  25.040  0.00  0.00    -0.038 C 
ATOM     50  H31 non d ame     -31.048  15.865  24.532  0.00  0.00     0.036 H 
ATOM     51  H32 non d ame     -32.707  14.998  24.782  0.00  0.00     0.036 H 
BRANCH  49  52
ATOM     52  C22 non d ame     -31.610  15.462  26.545  0.00  0.00     0.018 C 
ATOM     53  H33 non d ame     -31.376  14.529  27.055  0.00  0.00     0.048 H 
ATOM     54  H34 non d ame     -30.937  16.315  26.631  0.00  0.00     0.048 H 
BRANCH  52  55
ATOM     55  C23 non d ame     -32.975  15.933  27.119  0.00  0.00     0.259 C 
ATOM     56  O7  non d ame     -33.441  16.976  26.787  0.00  0.00    -0.265 OA
BRANCH  55  57
ATOM     57  O8  non d ame     -33.658  15.111  28.057  0.00  0.00    -0.317 OA
BRANCH  57  58
ATOM     58  C29 non d ame     -33.676  13.723  27.711  0.00  0.00     0.052 C 
ATOM     59  H47 non d ame     -34.725  13.428  27.727  0.00  0.00     0.082 H 
ATOM     60  H48 non d ame     -33.100  13.640  26.790  0.00  0.00     0.082 H 
BRANCH  58  61
ATOM     61  C35 non d ame     -32.929  12.942  28.826  0.00  0.00    -0.034 A 
ATOM     62  C30 non d ame     -31.968  13.585  29.600  0.00  0.00    -0.075 A 
ATOM     63  C31 non d ame     -31.296  12.884  30.602  0.00  0.00    -0.082 A 
ATOM     64  H49 non d ame     -31.739  14.635  29.423  0.00  0.00     0.084 H 
ATOM     65  C32 non d ame     -31.588  11.536  30.826  0.00  0.00    -0.083 A 
ATOM     66  H50 non d ame     -30.544  13.390  31.208  0.00  0.00     0.083 H 
ATOM     67  C33 non d ame     -32.546  10.899  30.048  0.00  0.00    -0.082 A 
ATOM     68  H51 non d ame     -31.069  10.981  31.608  0.00  0.00     0.083 H 
ATOM     69  C34 non d ame     -33.220  11.595  29.048  0.00  0.00    -0.075 A 
ATOM     70  H52 non d ame     -32.770   9.846  30.224  0.00  0.00     0.083 H 
ATOM     71  H53 non d ame     -33.972  11.089  28.442  0.00  0.00     0.084 H 
ENDBRANCH  58  61
ENDBRANCH  57  58
ENDBRANCH  55  57
ENDBRANCH  52  55
ENDBRANCH  49  52
ENDBRANCH  47  49
BRANCH  47  72
ATOM     72  C24 non d ame     -30.356  13.849  23.345  0.00  0.00    -0.039 C 
ATOM     73  H35 non d ame     -29.353  13.442  23.479  0.00  0.00     0.036 H 
ATOM     74  H36 non d ame     -31.057  13.357  22.671  0.00  0.00     0.036 H 
BRANCH  72  75
ATOM     75  C25 non d ame     -30.191  15.358  22.836  0.00  0.00    -0.001 C 
ATOM     76  C26 non d ame     -31.271  15.666  21.636  0.00  0.00    -0.035 C 
ATOM     77  C27 non d ame     -30.611  16.194  20.578  0.00  0.00     0.085 C 
ATOM     78  H38 non d ame     -31.673  14.731  21.245  0.00  0.00     0.036 H 
ATOM     79  H39 non d ame     -31.949  16.465  21.937  0.00  0.00     0.036 H 
ATOM     80  N5  non d ame     -29.137  15.971  20.822  0.00  0.00    -0.049 N 
ATOM     81  H40 non d ame     -30.922  15.603  19.716  0.00  0.00     0.075 H 
ATOM     82  H41 non d ame     -30.818  17.263  20.609  0.00  0.00     0.075 H 
ATOM     83  C28 non d ame     -29.002  15.570  22.380  0.00  0.00     0.193 C 
ATOM     84  H42 non d ame     -28.871  15.176  20.261  0.00  0.00     0.280 HD
ATOM     85  H43 non d ame     -28.687  16.864  20.679  0.00  0.00     0.280 HD
ATOM     86  H44 non d ame     -28.636  16.295  23.108  0.00  0.00     0.129 H 
ATOM     87  H37 non d ame     -30.150  16.070  23.660  0.00  0.00     0.046 H 
BRANCH  83  88
ATOM     88  O6  non d ame     -28.158  14.426  22.522  0.00  0.00    -0.369 OA
ATOM     89  H45 non d ame     -27.413  14.646  23.087  0.00  0.00     0.212 HD
ENDBRANCH  83  88
ENDBRANCH  72  75
ENDBRANCH  47  72
ENDBRANCH  45  47
ENDBRANCH   1  43
BRANCH   1  90
ATOM     90  C16 non d ame     -32.390   9.168  24.746  0.00  0.00    -0.035 C 
ATOM     91  H21 non d ame     -31.380   8.965  25.101  0.00  0.00     0.037 H 
ATOM     92  H22 non d ame     -33.167   8.410  24.849  0.00  0.00     0.037 H 
BRANCH  90  93
ATOM     93  C17 non d ame     -32.267   9.470  23.218  0.00  0.00    -0.059 C 
ATOM     94  H23 non d ame     -32.591  10.498  23.058  0.00  0.00     0.038 H 
BRANCH  93  95
ATOM     95  C18 non d ame     -30.795   9.349  22.710  0.00  0.00    -0.073 C 
ATOM     96  H24 non d ame     -30.771   9.489  21.629  0.00  0.00     0.028 H 
ATOM     97  H25 non d ame     -30.182  10.113  23.188  0.00  0.00     0.028 H 
ATOM     98  H26 non d ame     -30.405   8.362  22.957  0.00  0.00     0.028 H 
ENDBRANCH  93  95
BRANCH  93  99
ATOM     99  C19 non d ame     -33.199   8.567  22.406  0.00  0.00    -0.073 C 
ATOM    100  H27 non d ame     -33.830   7.992  23.085  0.00  0.00     0.028 H 
ATOM    101  H28 non d ame     -33.827   9.180  21.759  0.00  0.00     0.028 H 
ATOM    102  H29 non d ame     -32.606   7.886  21.797  0.00  0.00     0.028 H 
ENDBRANCH  93  99
ENDBRANCH  90  93
ENDBRANCH   1  90
TORSDOF 26
ENDMDL
MODEL 8
REMARK VINA RESULT:      -7.2      2.473      3.290
REMARK  26 active torsions:
REMARK  status: ('A' for Active; 'I' for Inactive)
REMARK    1  A    between atoms: C2_2  and  C3_3 
REMARK    2  A    between atoms: C4_6  and  C5_7 
REMARK       I    between atoms: C5_7  and  N2_9 
REMARK    3  A    between atoms: N2_9  and  C6_10 
REMARK    4  A    between atoms: C6_10  and  C7_11 
REMARK    5  A    between atoms: C6_10  and  C8_13 
REMARK       I    between atoms: C7_11  and  N3_14 
REMARK    6  A    between atoms: N3_14  and  C9_15 
REMARK    7  A    between atoms: C9_15  and  C10_16 
REMARK    8  A    between atoms: C9_15  and  C11_18 
REMARK       I    between atoms: C10_16  and  N4_21 
REMARK    9  A    between atoms: C11_18  and  C12_19 
REMARK   10  A    between atoms: C11_18  and  C13_20 
REMARK   11  A    between atoms: N4_21  and  C14_22 
REMARK   12  A    between atoms: C14_22  and  C15_23 
REMARK   13  A    between atoms: C14_22  and  C16_25 
REMARK       I    between atoms: C15_23  and  N6_40 
REMARK   14  A    between atoms: C16_25  and  C17_26 
REMARK   15  A    between atoms: C17_26  and  C18_27 
REMARK   16  A    between atoms: C17_26  and  C19_28 
REMARK   17  A    between atoms: C20_29  and  C21_30 
REMARK   18  A    between atoms: C20_29  and  C24_33 
REMARK   19  A    between atoms: C20_29  and  N6_40 
REMARK   20  A    between atoms: C21_30  and  C22_31 
REMARK   21  A    between atoms: C22_31  and  C23_32 
REMARK   22  A    between atoms: C23_32  and  O8_43 
REMARK   23  A    between atoms: C24_33  and  C25_34 
REMARK   24  A    between atoms: C28_38  and  O6_39 
REMARK   25  A    between atoms: C29_42  and  O8_43 
REMARK   26  A    between atoms: C29_42  and  C35_49 
ROOT
ATOM      1  C14 non d ame     -31.115  14.213  24.453  0.00  0.00     0.089 C 
ATOM      2  H20 non d ame     -30.121  13.780  24.569  0.00  0.00     0.087 H 
ENDROOT
BRANCH   1   3
ATOM      3  N4  non d ame     -32.081  13.132  24.567  0.00  0.00    -0.346 N 
ATOM      4  C10 non d ame     -31.734  11.876  25.325  0.00  0.00     0.241 C 
ATOM      5  O4  non d ame     -30.668  11.757  25.834  0.00  0.00    -0.271 OA
ATOM      6  H19 non d ame     -32.981  13.251  24.125  0.00  0.00     0.163 HD
BRANCH   4   7
ATOM      7  C9  non d ame     -32.748  10.768  25.437  0.00  0.00     0.092 C 
ATOM      8  H11 non d ame     -33.496  10.886  24.654  0.00  0.00     0.088 H 
BRANCH   7   9
ATOM      9  N3  non d ame     -32.089   9.477  25.217  0.00  0.00    -0.346 N 
ATOM     10  C7  non d ame     -32.419   8.689  24.055  0.00  0.00     0.240 C 
ATOM     11  O3  non d ame     -33.214   9.077  23.289  0.00  0.00    -0.271 OA
ATOM     12  H10 non d ame     -31.402   9.129  25.870  0.00  0.00     0.163 HD
BRANCH  10  13
ATOM     13  C6  non d ame     -31.717   7.314  23.827  0.00  0.00     0.086 C 
ATOM     14  H6  non d ame     -30.769   7.232  24.359  0.00  0.00     0.086 H 
BRANCH  13  15
ATOM     15  N2  non d ame     -32.573   6.256  24.337  0.00  0.00    -0.343 N 
ATOM     16  C5  non d ame     -32.571   5.953  25.769  0.00  0.00     0.273 C 
ATOM     17  O2  non d ame     -31.874   6.564  26.504  0.00  0.00    -0.266 OA
ATOM     18  H5  non d ame     -33.163   5.737  23.702  0.00  0.00     0.163 HD
BRANCH  16  19
ATOM     19  C4  non d ame     -33.472   4.837  26.322  0.00  0.00     0.154 A 
ATOM     20  C1  non d ame     -34.805   4.519  25.910  0.00  0.00    -0.017 A 
ATOM     21  C2  non d ame     -35.183   3.425  26.719  0.00  0.00     0.077 A 
ATOM     22  H1  non d ame     -35.405   5.007  25.141  0.00  0.00     0.091 H 
ATOM     23  O1  non d ame     -34.179   3.154  27.499  0.00  0.00    -0.218 OA
ATOM     24  N1  non d ame     -33.168   3.965  27.286  0.00  0.00    -0.123 NA
BRANCH  21  25
ATOM     25  C3  non d ame     -36.520   2.697  26.683  0.00  0.00    -0.029 C 
ATOM     26  H2  non d ame     -37.331   3.425  26.672  0.00  0.00     0.036 H 
ATOM     27  H3  non d ame     -36.575   2.081  25.785  0.00  0.00     0.036 H 
ATOM     28  H4  non d ame     -36.613   2.062  27.564  0.00  0.00     0.036 H 
ENDBRANCH  21  25
ENDBRANCH  16  19
ENDBRANCH  13  15
BRANCH  13  29
ATOM     29  C8  non d ame     -31.467   7.113  22.355  0.00  0.00    -0.049 C 
ATOM     30  H7  non d ame     -31.653   8.045  21.823  0.00  0.00     0.030 H 
ATOM     31  H8  non d ame     -30.432   6.808  22.200  0.00  0.00     0.030 H 
ATOM     32  H9  non d ame     -32.135   6.339  21.975  0.00  0.00     0.030 H 
ENDBRANCH  13  29
ENDBRANCH  10  13
ENDBRANCH   7   9
BRANCH   7  33
ATOM     33  C11 non d ame     -33.381  10.787  26.860  0.00  0.00    -0.033 C 
ATOM     34  H12 non d ame     -32.566  10.839  27.582  0.00  0.00     0.042 H 
BRANCH  33  35
ATOM     35  C12 non d ame     -34.273  12.051  27.067  0.00  0.00    -0.071 C 
ATOM     36  H13 non d ame     -34.501  12.165  28.127  0.00  0.00     0.028 H 
ATOM     37  H14 non d ame     -33.741  12.933  26.713  0.00  0.00     0.028 H 
ATOM     38  H15 non d ame     -35.201  11.936  26.508  0.00  0.00     0.028 H 
ENDBRANCH  33  35
BRANCH  33  39
ATOM     39  C13 non d ame     -34.185   9.476  27.132  0.00  0.00    -0.071 C 
ATOM     40  H16 non d ame     -35.195   9.579  26.735  0.00  0.00     0.028 H 
ATOM     41  H17 non d ame     -33.687   8.636  26.646  0.00  0.00     0.028 H 
ATOM     42  H18 non d ame     -34.233   9.295  28.206  0.00  0.00     0.028 H 
ENDBRANCH  33  39
ENDBRANCH   7  33
ENDBRANCH   4   7
ENDBRANCH   1   3
BRANCH   1  43
ATOM     43  C15 non d ame     -31.424  15.272  25.552  0.00  0.00     0.240 C 
ATOM     44  O5  non d ame     -31.029  16.385  25.427  0.00  0.00    -0.271 OA
ATOM     45  N6  non d ame     -32.221  14.899  26.754  0.00  0.00    -0.355 N 
ATOM     46  H46 non d ame     -32.567  13.956  26.869  0.00  0.00     0.162 HD
BRANCH  45  47
ATOM     47  C20 non d ame     -32.507  15.916  27.788  0.00  0.00     0.013 C 
ATOM     48  H30 non d ame     -31.712  16.661  27.754  0.00  0.00     0.072 H 
BRANCH  47  49
ATOM     49  C21 non d ame     -32.538  15.254  29.147  0.00  0.00    -0.038 C 
ATOM     50  H31 non d ame     -32.655  16.064  29.867  0.00  0.00     0.036 H 
ATOM     51  H32 non d ame     -33.296  14.474  29.077  0.00  0.00     0.036 H 
BRANCH  49  52
ATOM     52  C22 non d ame     -31.212  14.544  29.498  0.00  0.00     0.018 C 
ATOM     53  H33 non d ame     -30.523  14.791  28.692  0.00  0.00     0.048 H 
ATOM     54  H34 non d ame     -30.982  14.840  30.522  0.00  0.00     0.048 H 
BRANCH  52  55
ATOM     55  C23 non d ame     -31.317  12.994  29.513  0.00  0.00     0.259 C 
ATOM     56  O7  non d ame     -30.465  12.328  29.020  0.00  0.00    -0.265 OA
BRANCH  55  57
ATOM     57  O8  non d ame     -32.451  12.378  30.112  0.00  0.00    -0.317 OA
BRANCH  57  58
ATOM     58  C29 non d ame     -32.328  10.962  30.271  0.00  0.00     0.052 C 
ATOM     59  H47 non d ame     -32.305  10.552  29.262  0.00  0.00     0.082 H 
ATOM     60  H48 non d ame     -31.481  10.812  30.940  0.00  0.00     0.082 H 
BRANCH  58  61
ATOM     61  C35 non d ame     -33.609  10.447  30.982  0.00  0.00    -0.034 A 
ATOM     62  C30 non d ame     -34.213  11.218  31.971  0.00  0.00    -0.075 A 
ATOM     63  C31 non d ame     -35.363  10.756  32.610  0.00  0.00    -0.082 A 
ATOM     64  H49 non d ame     -33.785  12.181  32.247  0.00  0.00     0.084 H 
ATOM     65  C32 non d ame     -35.909   9.519  32.257  0.00  0.00    -0.083 A 
ATOM     66  H50 non d ame     -35.835  11.362  33.384  0.00  0.00     0.083 H 
ATOM     67  C33 non d ame     -35.300   8.753  31.272  0.00  0.00    -0.082 A 
ATOM     68  H51 non d ame     -36.809   9.151  32.751  0.00  0.00     0.083 H 
ATOM     69  C34 non d ame     -34.152   9.211  30.630  0.00  0.00    -0.075 A 
ATOM     70  H52 non d ame     -35.727   7.786  31.000  0.00  0.00     0.083 H 
ATOM     71  H53 non d ame     -33.681   8.604  29.856  0.00  0.00     0.084 H 
ENDBRANCH  58  61
ENDBRANCH  57  58
ENDBRANCH  55  57
ENDBRANCH  52  55
ENDBRANCH  49  52
ENDBRANCH  47  49
BRANCH  47  72
ATOM     72  C24 non d ame     -33.858  16.571  27.508  0.00  0.00    -0.039 C 
ATOM     73  H35 non d ame     -34.338  15.937  26.762  0.00  0.00     0.036 H 
ATOM     74  H36 non d ame     -34.322  16.709  28.485  0.00  0.00     0.036 H 
BRANCH  72  75
ATOM     75  C25 non d ame     -33.689  18.024  26.856  0.00  0.00    -0.001 C 
ATOM     76  C26 non d ame     -34.365  19.159  27.835  0.00  0.00    -0.035 C 
ATOM     77  C27 non d ame     -35.210  19.923  27.101  0.00  0.00     0.085 C 
ATOM     78  H38 non d ame     -35.020  18.683  28.564  0.00  0.00     0.036 H 
ATOM     79  H39 non d ame     -33.605  19.867  28.168  0.00  0.00     0.036 H 
ATOM     80  N5  non d ame     -35.420  19.208  25.787  0.00  0.00    -0.049 N 
ATOM     81  H40 non d ame     -36.148  19.933  27.655  0.00  0.00     0.075 H 
ATOM     82  H41 non d ame     -34.675  20.854  26.917  0.00  0.00     0.075 H 
ATOM     83  C28 non d ame     -34.262  18.087  25.701  0.00  0.00     0.193 C 
ATOM     84  H42 non d ame     -36.314  18.743  25.855  0.00  0.00     0.280 HD
ATOM     85  H43 non d ame     -35.261  19.893  25.062  0.00  0.00     0.280 HD
ATOM     86  H44 non d ame     -33.395  18.237  25.058  0.00  0.00     0.129 H 
ATOM     87  H37 non d ame     -32.671  18.207  26.514  0.00  0.00     0.046 H 
BRANCH  83  88
ATOM     88  O6  non d ame     -34.819  16.832  25.306  0.00  0.00    -0.369 OA
ATOM     89  H45 non d ame     -34.871  16.250  26.069  0.00  0.00     0.212 HD
ENDBRANCH  83  88
ENDBRANCH  72  75
ENDBRANCH  47  72
ENDBRANCH  45  47
ENDBRANCH   1  43
BRANCH   1  90
ATOM     90  C16 non d ame     -31.241  14.851  23.079  0.00  0.00    -0.035 C 
ATOM     91  H21 non d ame     -32.148  14.430  22.649  0.00  0.00     0.037 H 
ATOM     92  H22 non d ame     -31.166  15.925  23.252  0.00  0.00     0.037 H 
BRANCH  90  93
ATOM     93  C17 non d ame     -30.078  14.478  22.106  0.00  0.00    -0.059 C 
ATOM     94  H23 non d ame     -30.027  13.390  22.054  0.00  0.00     0.038 H 
BRANCH  93  95
ATOM     95  C18 non d ame     -30.324  15.013  20.660  0.00  0.00    -0.073 C 
ATOM     96  H24 non d ame     -29.779  14.396  19.945  0.00  0.00     0.028 H 
ATOM     97  H25 non d ame     -31.390  14.973  20.434  0.00  0.00     0.028 H 
ATOM     98  H26 non d ame     -29.976  16.044  20.589  0.00  0.00     0.028 H 
ENDBRANCH  93  95
BRANCH  93  99
ATOM     99  C19 non d ame     -28.733  14.971  22.647  0.00  0.00    -0.073 C 
ATOM    100  H27 non d ame     -28.836  15.220  23.704  0.00  0.00     0.028 H 
ATOM    101  H28 non d ame     -27.984  14.187  22.531  0.00  0.00     0.028 H 
ATOM    102  H29 non d ame     -28.421  15.856  22.093  0.00  0.00     0.028 H 
ENDBRANCH  93  99
ENDBRANCH  90  93
ENDBRANCH   1  90
TORSDOF 26
ENDMDL
MODEL 9
REMARK VINA RESULT:      -7.1      3.364      8.013
REMARK  26 active torsions:
REMARK  status: ('A' for Active; 'I' for Inactive)
REMARK    1  A    between atoms: C2_2  and  C3_3 
REMARK    2  A    between atoms: C4_6  and  C5_7 
REMARK       I    between atoms: C5_7  and  N2_9 
REMARK    3  A    between atoms: N2_9  and  C6_10 
REMARK    4  A    between atoms: C6_10  and  C7_11 
REMARK    5  A    between atoms: C6_10  and  C8_13 
REMARK       I    between atoms: C7_11  and  N3_14 
REMARK    6  A    between atoms: N3_14  and  C9_15 
REMARK    7  A    between atoms: C9_15  and  C10_16 
REMARK    8  A    between atoms: C9_15  and  C11_18 
REMARK       I    between atoms: C10_16  and  N4_21 
REMARK    9  A    between atoms: C11_18  and  C12_19 
REMARK   10  A    between atoms: C11_18  and  C13_20 
REMARK   11  A    between atoms: N4_21  and  C14_22 
REMARK   12  A    between atoms: C14_22  and  C15_23 
REMARK   13  A    between atoms: C14_22  and  C16_25 
REMARK       I    between atoms: C15_23  and  N6_40 
REMARK   14  A    between atoms: C16_25  and  C17_26 
REMARK   15  A    between atoms: C17_26  and  C18_27 
REMARK   16  A    between atoms: C17_26  and  C19_28 
REMARK   17  A    between atoms: C20_29  and  C21_30 
REMARK   18  A    between atoms: C20_29  and  C24_33 
REMARK   19  A    between atoms: C20_29  and  N6_40 
REMARK   20  A    between atoms: C21_30  and  C22_31 
REMARK   21  A    between atoms: C22_31  and  C23_32 
REMARK   22  A    between atoms: C23_32  and  O8_43 
REMARK   23  A    between atoms: C24_33  and  C25_34 
REMARK   24  A    between atoms: C28_38  and  O6_39 
REMARK   25  A    between atoms: C29_42  and  O8_43 
REMARK   26  A    between atoms: C29_42  and  C35_49 
ROOT
ATOM      1  C14 non d ame     -30.890  13.945  24.703  0.00  0.00     0.089 C 
ATOM      2  H20 non d ame     -29.926  13.722  25.162  0.00  0.00     0.087 H 
ENDROOT
BRANCH   1   3
ATOM      3  N4  non d ame     -31.432  12.695  24.192  0.00  0.00    -0.346 N 
ATOM      4  C10 non d ame     -31.423  11.454  25.047  0.00  0.00     0.241 C 
ATOM      5  O4  non d ame     -30.972  11.484  26.145  0.00  0.00    -0.271 OA
ATOM      6  H19 non d ame     -31.808  12.689  23.254  0.00  0.00     0.163 HD
BRANCH   4   7
ATOM      7  C9  non d ame     -31.992  10.169  24.503  0.00  0.00     0.092 C 
ATOM      8  H11 non d ame     -31.773   9.358  25.197  0.00  0.00     0.088 H 
BRANCH   7   9
ATOM      9  N3  non d ame     -33.451  10.281  24.413  0.00  0.00    -0.346 N 
ATOM     10  C7  non d ame     -34.290   9.430  25.220  0.00  0.00     0.240 C 
ATOM     11  O3  non d ame     -33.807   8.650  25.948  0.00  0.00    -0.271 OA
ATOM     12  H10 non d ame     -33.881  10.948  23.788  0.00  0.00     0.163 HD
BRANCH  10  13
ATOM     13  C6  non d ame     -35.842   9.550  25.118  0.00  0.00     0.086 C 
ATOM     14  H6  non d ame     -36.357   9.100  25.966  0.00  0.00     0.086 H 
BRANCH  13  15
ATOM     15  N2  non d ame     -36.206  10.957  25.109  0.00  0.00    -0.343 N 
ATOM     16  C5  non d ame     -37.382  11.402  25.860  0.00  0.00     0.273 C 
ATOM     17  O2  non d ame     -38.030  10.621  26.466  0.00  0.00    -0.266 OA
ATOM     18  H5  non d ame     -35.649  11.618  24.587  0.00  0.00     0.163 HD
BRANCH  16  19
ATOM     19  C4  non d ame     -37.778  12.888  25.860  0.00  0.00     0.154 A 
ATOM     20  C1  non d ame     -38.293  13.645  24.761  0.00  0.00    -0.017 A 
ATOM     21  C2  non d ame     -38.492  14.945  25.278  0.00  0.00     0.077 A 
ATOM     22  H1  non d ame     -38.491  13.304  23.745  0.00  0.00     0.091 H 
ATOM     23  O1  non d ame     -38.134  14.925  26.528  0.00  0.00    -0.218 OA
ATOM     24  N1  non d ame     -37.713  13.735  26.891  0.00  0.00    -0.123 NA
BRANCH  21  25
ATOM     25  C3  non d ame     -39.031  16.146  24.513  0.00  0.00    -0.029 C 
ATOM     26  H2  non d ame     -39.357  16.910  25.219  0.00  0.00     0.036 H 
ATOM     27  H3  non d ame     -38.245  16.554  23.877  0.00  0.00     0.036 H 
ATOM     28  H4  non d ame     -39.874  15.837  23.896  0.00  0.00     0.036 H 
ENDBRANCH  21  25
ENDBRANCH  16  19
ENDBRANCH  13  15
BRANCH  13  29
ATOM     29  C8  non d ame     -36.317   8.886  23.851  0.00  0.00    -0.049 C 
ATOM     30  H7  non d ame     -35.980   9.460  22.989  0.00  0.00     0.030 H 
ATOM     31  H8  non d ame     -35.910   7.876  23.795  0.00  0.00     0.030 H 
ATOM     32  H9  non d ame     -37.407   8.839  23.853  0.00  0.00     0.030 H 
ENDBRANCH  13  29
ENDBRANCH  10  13
ENDBRANCH   7   9
BRANCH   7  33
ATOM     33  C11 non d ame     -31.406   9.903  23.085  0.00  0.00    -0.033 C 
ATOM     34  H12 non d ame     -31.596  10.789  22.479  0.00  0.00     0.042 H 
BRANCH  33  35
ATOM     35  C12 non d ame     -29.861   9.694  23.140  0.00  0.00    -0.071 C 
ATOM     36  H13 non d ame     -29.526   9.214  22.220  0.00  0.00     0.028 H 
ATOM     37  H14 non d ame     -29.366  10.659  23.246  0.00  0.00     0.028 H 
ATOM     38  H15 non d ame     -29.609   9.060  23.990  0.00  0.00     0.028 H 
ENDBRANCH  33  35
BRANCH  33  39
ATOM     39  C13 non d ame     -32.118   8.691  22.405  0.00  0.00    -0.071 C 
ATOM     40  H16 non d ame     -31.810   8.627  21.361  0.00  0.00     0.028 H 
ATOM     41  H17 non d ame     -31.845   7.770  22.922  0.00  0.00     0.028 H 
ATOM     42  H18 non d ame     -33.198   8.827  22.457  0.00  0.00     0.028 H 
ENDBRANCH  33  39
ENDBRANCH   7  33
ENDBRANCH   4   7
ENDBRANCH   1   3
BRANCH   1  43
ATOM     43  C15 non d ame     -31.901  14.541  25.725  0.00  0.00     0.240 C 
ATOM     44  O5  non d ame     -32.937  14.982  25.343  0.00  0.00    -0.271 OA
ATOM     45  N6  non d ame     -31.583  14.554  27.181  0.00  0.00    -0.355 N 
ATOM     46  H46 non d ame     -30.708  14.178  27.518  0.00  0.00     0.162 HD
BRANCH  45  47
ATOM     47  C20 non d ame     -32.555  15.124  28.139  0.00  0.00     0.013 C 
ATOM     48  H30 non d ame     -33.547  15.048  27.693  0.00  0.00     0.072 H 
BRANCH  47  49
ATOM     49  C21 non d ame     -32.213  16.574  28.395  0.00  0.00    -0.038 C 
ATOM     50  H31 non d ame     -32.408  16.739  29.455  0.00  0.00     0.036 H 
ATOM     51  H32 non d ame     -31.208  16.714  27.997  0.00  0.00     0.036 H 
BRANCH  49  52
ATOM     52  C22 non d ame     -33.129  17.551  27.625  0.00  0.00     0.018 C 
ATOM     53  H33 non d ame     -32.904  17.397  26.571  0.00  0.00     0.048 H 
ATOM     54  H34 non d ame     -34.136  17.369  28.001  0.00  0.00     0.048 H 
BRANCH  52  55
ATOM     55  C23 non d ame     -32.828  19.048  27.913  0.00  0.00     0.259 C 
ATOM     56  O7  non d ame     -32.190  19.363  28.865  0.00  0.00    -0.265 OA
BRANCH  55  57
ATOM     57  O8  non d ame     -33.337  20.043  27.032  0.00  0.00    -0.317 OA
BRANCH  57  58
ATOM     58  C29 non d ame     -33.964  19.517  25.859  0.00  0.00     0.052 C 
ATOM     59  H47 non d ame     -33.480  20.013  25.018  0.00  0.00     0.082 H 
ATOM     60  H48 non d ame     -33.912  18.433  25.956  0.00  0.00     0.082 H 
BRANCH  58  61
ATOM     61  C35 non d ame     -35.458  19.939  25.885  0.00  0.00    -0.034 A 
ATOM     62  C30 non d ame     -35.927  20.778  26.892  0.00  0.00    -0.075 A 
ATOM     63  C31 non d ame     -37.269  21.156  26.916  0.00  0.00    -0.082 A 
ATOM     64  H49 non d ame     -35.244  21.137  27.661  0.00  0.00     0.084 H 
ATOM     65  C32 non d ame     -38.143  20.692  25.929  0.00  0.00    -0.083 A 
ATOM     66  H50 non d ame     -37.633  21.815  27.705  0.00  0.00     0.083 H 
ATOM     67  C33 non d ame     -37.671  19.852  24.930  0.00  0.00    -0.082 A 
ATOM     68  H51 non d ame     -39.193  20.984  25.940  0.00  0.00     0.083 H 
ATOM     69  C34 non d ame     -36.331  19.472  24.901  0.00  0.00    -0.075 A 
ATOM     70  H52 non d ame     -38.356  19.489  24.162  0.00  0.00     0.083 H 
ATOM     71  H53 non d ame     -35.967  18.814  24.111  0.00  0.00     0.084 H 
ENDBRANCH  58  61
ENDBRANCH  57  58
ENDBRANCH  55  57
ENDBRANCH  52  55
ENDBRANCH  49  52
ENDBRANCH  47  49
BRANCH  47  72
ATOM     72  C24 non d ame     -32.502  14.347  29.452  0.00  0.00    -0.039 C 
ATOM     73  H35 non d ame     -31.844  14.923  30.103  0.00  0.00     0.036 H 
ATOM     74  H36 non d ame     -33.542  14.183  29.735  0.00  0.00     0.036 H 
BRANCH  72  75
ATOM     75  C25 non d ame     -31.832  12.904  29.261  0.00  0.00    -0.001 C 
ATOM     76  C26 non d ame     -32.980  11.734  29.380  0.00  0.00    -0.035 C 
ATOM     77  C27 non d ame     -32.566  10.805  30.275  0.00  0.00     0.085 C 
ATOM     78  H38 non d ame     -33.884  12.140  29.834  0.00  0.00     0.036 H 
ATOM     79  H39 non d ame     -33.044  11.176  28.445  0.00  0.00     0.036 H 
ATOM     80  N5  non d ame     -31.395  11.401  31.018  0.00  0.00    -0.049 N 
ATOM     81  H40 non d ame     -33.399  10.676  30.966  0.00  0.00     0.075 H 
ATOM     82  H41 non d ame     -32.217   9.962  29.679  0.00  0.00     0.075 H 
ATOM     83  C28 non d ame     -30.930  12.686  30.159  0.00  0.00     0.193 C 
ATOM     84  H42 non d ame     -31.753  11.721  31.906  0.00  0.00     0.280 HD
ATOM     85  H43 non d ame     -30.658  10.710  30.990  0.00  0.00     0.280 HD
ATOM     86  H44 non d ame     -30.037  12.640  29.535  0.00  0.00     0.129 H 
ATOM     87  H37 non d ame     -31.174  12.867  28.393  0.00  0.00     0.046 H 
BRANCH  83  88
ATOM     88  O6  non d ame     -30.740  13.811  31.017  0.00  0.00    -0.369 OA
ATOM     89  H45 non d ame     -30.072  13.602  31.676  0.00  0.00     0.212 HD
ENDBRANCH  83  88
ENDBRANCH  72  75
ENDBRANCH  47  72
ENDBRANCH  45  47
ENDBRANCH   1  43
BRANCH   1  90
ATOM     90  C16 non d ame     -30.699  14.914  23.548  0.00  0.00    -0.035 C 
ATOM     91  H21 non d ame     -31.546  14.743  22.885  0.00  0.00     0.037 H 
ATOM     92  H22 non d ame     -30.556  15.890  24.012  0.00  0.00     0.037 H 
BRANCH  90  93
ATOM     93  C17 non d ame     -29.416  14.635  22.703  0.00  0.00    -0.059 C 
ATOM     94  H23 non d ame     -28.564  14.640  23.383  0.00  0.00     0.038 H 
BRANCH  93  95
ATOM     95  C18 non d ame     -29.460  13.237  22.008  0.00  0.00    -0.073 C 
ATOM     96  H24 non d ame     -30.486  12.868  21.995  0.00  0.00     0.028 H 
ATOM     97  H25 non d ame     -29.096  13.328  20.984  0.00  0.00     0.028 H 
ATOM     98  H26 non d ame     -28.830  12.537  22.557  0.00  0.00     0.028 H 
ENDBRANCH  93  95
BRANCH  93  99
ATOM     99  C19 non d ame     -29.185  15.746  21.675  0.00  0.00    -0.073 C 
ATOM    100  H27 non d ame     -29.520  15.409  20.694  0.00  0.00     0.028 H 
ATOM    101  H28 non d ame     -29.748  16.633  21.965  0.00  0.00     0.028 H 
ATOM    102  H29 non d ame     -28.123  15.987  21.633  0.00  0.00     0.028 H 
ENDBRANCH  93  99
ENDBRANCH  90  93
ENDBRANCH   1  90
TORSDOF 26
ENDMDL
MODEL 10
REMARK VINA RESULT:      -7.1      3.283      7.989
REMARK  26 active torsions:
REMARK  status: ('A' for Active; 'I' for Inactive)
REMARK    1  A    between atoms: C2_2  and  C3_3 
REMARK    2  A    between atoms: C4_6  and  C5_7 
REMARK       I    between atoms: C5_7  and  N2_9 
REMARK    3  A    between atoms: N2_9  and  C6_10 
REMARK    4  A    between atoms: C6_10  and  C7_11 
REMARK    5  A    between atoms: C6_10  and  C8_13 
REMARK       I    between atoms: C7_11  and  N3_14 
REMARK    6  A    between atoms: N3_14  and  C9_15 
REMARK    7  A    between atoms: C9_15  and  C10_16 
REMARK    8  A    between atoms: C9_15  and  C11_18 
REMARK       I    between atoms: C10_16  and  N4_21 
REMARK    9  A    between atoms: C11_18  and  C12_19 
REMARK   10  A    between atoms: C11_18  and  C13_20 
REMARK   11  A    between atoms: N4_21  and  C14_22 
REMARK   12  A    between atoms: C14_22  and  C15_23 
REMARK   13  A    between atoms: C14_22  and  C16_25 
REMARK       I    between atoms: C15_23  and  N6_40 
REMARK   14  A    between atoms: C16_25  and  C17_26 
REMARK   15  A    between atoms: C17_26  and  C18_27 
REMARK   16  A    between atoms: C17_26  and  C19_28 
REMARK   17  A    between atoms: C20_29  and  C21_30 
REMARK   18  A    between atoms: C20_29  and  C24_33 
REMARK   19  A    between atoms: C20_29  and  N6_40 
REMARK   20  A    between atoms: C21_30  and  C22_31 
REMARK   21  A    between atoms: C22_31  and  C23_32 
REMARK   22  A    between atoms: C23_32  and  O8_43 
REMARK   23  A    between atoms: C24_33  and  C25_34 
REMARK   24  A    between atoms: C28_38  and  O6_39 
REMARK   25  A    between atoms: C29_42  and  O8_43 
REMARK   26  A    between atoms: C29_42  and  C35_49 
ROOT
ATOM      1  C14 non d ame     -30.945  13.919  24.734  0.00  0.00     0.089 C 
ATOM      2  H20 non d ame     -29.973  13.736  25.192  0.00  0.00     0.087 H 
ENDROOT
BRANCH   1   3
ATOM      3  N4  non d ame     -31.442  12.645  24.235  0.00  0.00    -0.346 N 
ATOM      4  C10 non d ame     -31.404  11.418  25.109  0.00  0.00     0.241 C 
ATOM      5  O4  non d ame     -30.968  11.479  26.211  0.00  0.00    -0.271 OA
ATOM      6  H19 non d ame     -31.807  12.614  23.294  0.00  0.00     0.163 HD
BRANCH   4   7
ATOM      7  C9  non d ame     -31.927  10.109  24.579  0.00  0.00     0.092 C 
ATOM      8  H11 non d ame     -31.607   9.302  25.237  0.00  0.00     0.088 H 
BRANCH   7   9
ATOM      9  N3  non d ame     -33.393  10.125  24.595  0.00  0.00    -0.346 N 
ATOM     10  C7  non d ame     -34.116   9.143  25.364  0.00  0.00     0.240 C 
ATOM     11  O3  non d ame     -33.534   8.333  25.977  0.00  0.00    -0.271 OA
ATOM     12  H10 non d ame     -33.908  10.818  24.070  0.00  0.00     0.163 HD
BRANCH  10  13
ATOM     13  C6  non d ame     -35.676   9.163  25.375  0.00  0.00     0.086 C 
ATOM     14  H6  non d ame     -36.111   8.164  25.349  0.00  0.00     0.086 H 
BRANCH  13  15
ATOM     15  N2  non d ame     -36.132   9.782  26.608  0.00  0.00    -0.343 N 
ATOM     16  C5  non d ame     -36.513   8.938  27.742  0.00  0.00     0.273 C 
ATOM     17  O2  non d ame     -36.452   7.761  27.651  0.00  0.00    -0.266 OA
ATOM     18  H5  non d ame     -36.183  10.789  26.676  0.00  0.00     0.163 HD
BRANCH  16  19
ATOM     19  C4  non d ame     -36.995   9.580  29.053  0.00  0.00     0.154 A 
ATOM     20  C1  non d ame     -38.238  10.251  29.280  0.00  0.00    -0.017 A 
ATOM     21  C2  non d ame     -38.192  10.651  30.634  0.00  0.00     0.077 A 
ATOM     22  H1  non d ame     -39.049  10.421  28.571  0.00  0.00     0.091 H 
ATOM     23  O1  non d ame     -37.054  10.251  31.118  0.00  0.00    -0.218 OA
ATOM     24  N1  non d ame     -36.338   9.623  30.214  0.00  0.00    -0.123 NA
BRANCH  21  25
ATOM     25  C3  non d ame     -39.276  11.410  31.387  0.00  0.00    -0.029 C 
ATOM     26  H2  non d ame     -39.604  10.821  32.243  0.00  0.00     0.036 H 
ATOM     27  H3  non d ame     -38.879  12.363  31.735  0.00  0.00     0.036 H 
ATOM     28  H4  non d ame     -40.123  11.590  30.725  0.00  0.00     0.036 H 
ENDBRANCH  21  25
ENDBRANCH  16  19
ENDBRANCH  13  15
BRANCH  13  29
ATOM     29  C8  non d ame     -36.179   9.944  24.188  0.00  0.00    -0.049 C 
ATOM     30  H7  non d ame     -35.931  10.997  24.313  0.00  0.00     0.030 H 
ATOM     31  H8  non d ame     -35.711   9.566  23.279  0.00  0.00     0.030 H 
ATOM     32  H9  non d ame     -37.262   9.833  24.113  0.00  0.00     0.030 H 
ENDBRANCH  13  29
ENDBRANCH  10  13
ENDBRANCH   7   9
BRANCH   7  33
ATOM     33  C11 non d ame     -31.429   9.907  23.117  0.00  0.00    -0.033 C 
ATOM     34  H12 non d ame     -31.611  10.835  22.577  0.00  0.00     0.042 H 
BRANCH  33  35
ATOM     35  C12 non d ame     -29.894   9.631  23.073  0.00  0.00    -0.071 C 
ATOM     36  H13 non d ame     -29.353  10.566  23.219  0.00  0.00     0.028 H 
ATOM     37  H14 non d ame     -29.628   8.930  23.864  0.00  0.00     0.028 H 
ATOM     38  H15 non d ame     -29.629   9.206  22.105  0.00  0.00     0.028 H 
ENDBRANCH  33  35
BRANCH  33  39
ATOM     39  C13 non d ame     -32.230   8.769  22.406  0.00  0.00    -0.071 C 
ATOM     40  H16 non d ame     -31.615   7.871  22.352  0.00  0.00     0.028 H 
ATOM     41  H17 non d ame     -33.138   8.555  22.971  0.00  0.00     0.028 H 
ATOM     42  H18 non d ame     -32.498   9.088  21.399  0.00  0.00     0.028 H 
ENDBRANCH  33  39
ENDBRANCH   7  33
ENDBRANCH   4   7
ENDBRANCH   1   3
BRANCH   1  43
ATOM     43  C15 non d ame     -31.975  14.488  25.752  0.00  0.00     0.240 C 
ATOM     44  O5  non d ame     -33.044  14.843  25.375  0.00  0.00    -0.271 OA
ATOM     45  N6  non d ame     -31.631  14.581  27.199  0.00  0.00    -0.355 N 
ATOM     46  H46 non d ame     -30.727  14.278  27.533  0.00  0.00     0.162 HD
BRANCH  45  47
ATOM     47  C20 non d ame     -32.622  15.123  28.154  0.00  0.00     0.013 C 
ATOM     48  H30 non d ame     -33.609  15.029  27.702  0.00  0.00     0.072 H 
BRANCH  47  49
ATOM     49  C21 non d ame     -32.312  16.578  28.424  0.00  0.00    -0.038 C 
ATOM     50  H31 non d ame     -32.570  16.745  29.470  0.00  0.00     0.036 H 
ATOM     51  H32 non d ame     -31.287  16.729  28.084  0.00  0.00     0.036 H 
BRANCH  49  52
ATOM     52  C22 non d ame     -33.192  17.541  27.597  0.00  0.00     0.018 C 
ATOM     53  H33 non d ame     -32.939  17.351  26.555  0.00  0.00     0.048 H 
ATOM     54  H34 non d ame     -34.212  17.383  27.949  0.00  0.00     0.048 H 
BRANCH  52  55
ATOM     55  C23 non d ame     -32.881  19.043  27.847  0.00  0.00     0.259 C 
ATOM     56  O7  non d ame     -32.194  19.373  28.759  0.00  0.00    -0.265 OA
BRANCH  55  57
ATOM     57  O8  non d ame     -33.440  20.024  26.980  0.00  0.00    -0.317 OA
BRANCH  57  58
ATOM     58  C29 non d ame     -34.103  19.480  25.835  0.00  0.00     0.052 C 
ATOM     59  H47 non d ame     -33.638  19.955  24.972  0.00  0.00     0.082 H 
ATOM     60  H48 non d ame     -34.057  18.398  25.954  0.00  0.00     0.082 H 
BRANCH  58  61
ATOM     61  C35 non d ame     -35.592  19.916  25.894  0.00  0.00    -0.034 A 
ATOM     62  C30 non d ame     -36.026  20.779  26.896  0.00  0.00    -0.075 A 
ATOM     63  C31 non d ame     -37.363  21.170  26.949  0.00  0.00    -0.082 A 
ATOM     64  H49 non d ame     -35.320  21.147  27.640  0.00  0.00     0.084 H 
ATOM     65  C32 non d ame     -38.268  20.694  25.996  0.00  0.00    -0.083 A 
ATOM     66  H50 non d ame     -37.700  21.848  27.734  0.00  0.00     0.083 H 
ATOM     67  C33 non d ame     -37.830  19.831  25.000  0.00  0.00    -0.082 A 
ATOM     68  H51 non d ame     -39.315  20.996  26.029  0.00  0.00     0.083 H 
ATOM     69  C34 non d ame     -36.495  19.439  24.943  0.00  0.00    -0.075 A 
ATOM     70  H52 non d ame     -38.540  19.459  24.259  0.00  0.00     0.083 H 
ATOM     71  H53 non d ame     -36.159  18.762  24.157  0.00  0.00     0.084 H 
ENDBRANCH  58  61
ENDBRANCH  57  58
ENDBRANCH  55  57
ENDBRANCH  52  55
ENDBRANCH  49  52
ENDBRANCH  47  49
BRANCH  47  72
ATOM     72  C24 non d ame     -32.561  14.337  29.463  0.00  0.00    -0.039 C 
ATOM     73  H35 non d ame     -31.914  14.919  30.120  0.00  0.00     0.036 H 
ATOM     74  H36 non d ame     -33.600  14.157  29.741  0.00  0.00     0.036 H 
BRANCH  72  75
ATOM     75  C25 non d ame     -31.870  12.907  29.263  0.00  0.00    -0.001 C 
ATOM     76  C26 non d ame     -32.999  11.718  29.383  0.00  0.00    -0.035 C 
ATOM     77  C27 non d ame     -32.567  10.792  30.273  0.00  0.00     0.085 C 
ATOM     78  H38 non d ame     -33.907  12.108  29.842  0.00  0.00     0.036 H 
ATOM     79  H39 non d ame     -33.058  11.162  28.446  0.00  0.00     0.036 H 
ATOM     80  N5  non d ame     -31.402  11.404  31.014  0.00  0.00    -0.049 N 
ATOM     81  H40 non d ame     -33.394  10.648  30.968  0.00  0.00     0.075 H 
ATOM     82  H41 non d ame     -32.207   9.957  29.673  0.00  0.00     0.075 H 
ATOM     83  C28 non d ame     -30.961  12.699  30.157  0.00  0.00     0.193 C 
ATOM     84  H42 non d ame     -31.761  11.715  31.904  0.00  0.00     0.280 HD
ATOM     85  H43 non d ame     -30.655  10.725  30.980  0.00  0.00     0.280 HD
ATOM     86  H44 non d ame     -30.070  12.669  29.529  0.00  0.00     0.129 H 
ATOM     87  H37 non d ame     -31.214  12.883  28.393  0.00  0.00     0.046 H 
BRANCH  83  88
ATOM     88  O6  non d ame     -30.784  13.824  31.019  0.00  0.00    -0.369 OA
ATOM     89  H45 non d ame     -30.111  13.624  31.674  0.00  0.00     0.212 HD
ENDBRANCH  83  88
ENDBRANCH  72  75
ENDBRANCH  47  72
ENDBRANCH  45  47
ENDBRANCH   1  43
BRANCH   1  90
ATOM     90  C16 non d ame     -30.792  14.884  23.569  0.00  0.00    -0.035 C 
ATOM     91  H21 non d ame     -31.622  14.663  22.900  0.00  0.00     0.037 H 
ATOM     92  H22 non d ame     -30.704  15.871  24.022  0.00  0.00     0.037 H 
BRANCH  90  93
ATOM     93  C17 non d ame     -29.487  14.661  22.739  0.00  0.00    -0.059 C 
ATOM     94  H23 non d ame     -28.647  14.681  23.433  0.00  0.00     0.038 H 
BRANCH  93  95
ATOM     95  C18 non d ame     -29.477  13.275  22.019  0.00  0.00    -0.073 C 
ATOM     96  H24 non d ame     -30.490  12.874  21.984  0.00  0.00     0.028 H 
ATOM     97  H25 non d ame     -29.100  13.396  21.003  0.00  0.00     0.028 H 
ATOM     98  H26 non d ame     -28.833  12.586  22.565  0.00  0.00     0.028 H 
ENDBRANCH  93  95
BRANCH  93  99
ATOM     99  C19 non d ame     -29.277  15.797  21.735  0.00  0.00    -0.073 C 
ATOM    100  H27 non d ame     -28.213  15.891  21.510  0.00  0.00     0.028 H 
ATOM    101  H28 non d ame     -29.823  15.579  20.817  0.00  0.00     0.028 H 
ATOM    102  H29 non d ame     -29.642  16.731  22.161  0.00  0.00     0.028 H 
ENDBRANCH  93  99
ENDBRANCH  90  93
ENDBRANCH   1  90
TORSDOF 26
ENDMDL
MODEL 11
REMARK VINA RESULT:      -7.1      3.426      9.217
REMARK  26 active torsions:
REMARK  status: ('A' for Active; 'I' for Inactive)
REMARK    1  A    between atoms: C2_2  and  C3_3 
REMARK    2  A    between atoms: C4_6  and  C5_7 
REMARK       I    between atoms: C5_7  and  N2_9 
REMARK    3  A    between atoms: N2_9  and  C6_10 
REMARK    4  A    between atoms: C6_10  and  C7_11 
REMARK    5  A    between atoms: C6_10  and  C8_13 
REMARK       I    between atoms: C7_11  and  N3_14 
REMARK    6  A    between atoms: N3_14  and  C9_15 
REMARK    7  A    between atoms: C9_15  and  C10_16 
REMARK    8  A    between atoms: C9_15  and  C11_18 
REMARK       I    between atoms: C10_16  and  N4_21 
REMARK    9  A    between atoms: C11_18  and  C12_19 
REMARK   10  A    between atoms: C11_18  and  C13_20 
REMARK   11  A    between atoms: N4_21  and  C14_22 
REMARK   12  A    between atoms: C14_22  and  C15_23 
REMARK   13  A    between atoms: C14_22  and  C16_25 
REMARK       I    between atoms: C15_23  and  N6_40 
REMARK   14  A    between atoms: C16_25  and  C17_26 
REMARK   15  A    between atoms: C17_26  and  C18_27 
REMARK   16  A    between atoms: C17_26  and  C19_28 
REMARK   17  A    between atoms: C20_29  and  C21_30 
REMARK   18  A    between atoms: C20_29  and  C24_33 
REMARK   19  A    between atoms: C20_29  and  N6_40 
REMARK   20  A    between atoms: C21_30  and  C22_31 
REMARK   21  A    between atoms: C22_31  and  C23_32 
REMARK   22  A    between atoms: C23_32  and  O8_43 
REMARK   23  A    between atoms: C24_33  and  C25_34 
REMARK   24  A    between atoms: C28_38  and  O6_39 
REMARK   25  A    between atoms: C29_42  and  O8_43 
REMARK   26  A    between atoms: C29_42  and  C35_49 
ROOT
ATOM      1  C14 non d ame     -36.426  13.841  26.163  0.00  0.00     0.089 C 
ATOM      2  H20 non d ame     -37.105  13.786  27.013  0.00  0.00     0.087 H 
ENDROOT
BRANCH   1   3
ATOM      3  N4  non d ame     -36.095  15.243  25.955  0.00  0.00    -0.346 N 
ATOM      4  C10 non d ame     -36.968  16.326  26.536  0.00  0.00     0.241 C 
ATOM      5  O4  non d ame     -37.934  16.045  27.167  0.00  0.00    -0.271 OA
ATOM      6  H19 non d ame     -35.271  15.461  25.413  0.00  0.00     0.163 HD
BRANCH   4   7
ATOM      7  C9  non d ame     -36.609  17.772  26.316  0.00  0.00     0.092 C 
ATOM      8  H11 non d ame     -36.889  18.349  27.196  0.00  0.00     0.088 H 
BRANCH   7   9
ATOM      9  N3  non d ame     -35.157  17.897  26.159  0.00  0.00    -0.346 N 
ATOM     10  C7  non d ame     -34.313  18.002  27.324  0.00  0.00     0.240 C 
ATOM     11  O3  non d ame     -34.786  17.989  28.395  0.00  0.00    -0.271 OA
ATOM     12  H10 non d ame     -34.735  17.911  25.242  0.00  0.00     0.163 HD
BRANCH  10  13
ATOM     13  C6  non d ame     -32.768  18.138  27.151  0.00  0.00     0.086 C 
ATOM     14  H6  non d ame     -32.210  17.595  27.913  0.00  0.00     0.086 H 
BRANCH  13  15
ATOM     15  N2  non d ame     -32.385  17.568  25.870  0.00  0.00    -0.343 N 
ATOM     16  C5  non d ame     -31.882  16.194  25.813  0.00  0.00     0.273 C 
ATOM     17  O2  non d ame     -31.787  15.556  26.804  0.00  0.00    -0.266 OA
ATOM     18  H5  non d ame     -32.467  18.122  25.029  0.00  0.00     0.163 HD
BRANCH  16  19
ATOM     19  C4  non d ame     -31.474  15.579  24.465  0.00  0.00     0.154 A 
ATOM     20  C1  non d ame     -31.427  16.235  23.195  0.00  0.00    -0.017 A 
ATOM     21  C2  non d ame     -30.994  15.241  22.289  0.00  0.00     0.077 A 
ATOM     22  H1  non d ame     -31.669  17.272  22.965  0.00  0.00     0.091 H 
ATOM     23  O1  non d ame     -30.815  14.147  22.970  0.00  0.00    -0.218 OA
ATOM     24  N1  non d ame     -31.089  14.320  24.243  0.00  0.00    -0.123 NA
BRANCH  21  25
ATOM     25  C3  non d ame     -30.775  15.418  20.793  0.00  0.00    -0.029 C 
ATOM     26  H2  non d ame     -30.508  16.453  20.584  0.00  0.00     0.036 H 
ATOM     27  H3  non d ame     -29.969  14.763  20.463  0.00  0.00     0.036 H 
ATOM     28  H4  non d ame     -31.691  15.165  20.258  0.00  0.00     0.036 H 
ENDBRANCH  21  25
ENDBRANCH  16  19
ENDBRANCH  13  15
BRANCH  13  29
ATOM     29  C8  non d ame     -32.380  19.593  27.207  0.00  0.00    -0.049 C 
ATOM     30  H7  non d ame     -31.297  19.684  27.126  0.00  0.00     0.030 H 
ATOM     31  H8  non d ame     -32.850  20.127  26.381  0.00  0.00     0.030 H 
ATOM     32  H9  non d ame     -32.711  20.022  28.154  0.00  0.00     0.030 H 
ENDBRANCH  13  29
ENDBRANCH  10  13
ENDBRANCH   7   9
BRANCH   7  33
ATOM     33  C11 non d ame     -37.313  18.290  25.027  0.00  0.00    -0.033 C 
ATOM     34  H12 non d ame     -36.670  19.050  24.584  0.00  0.00     0.042 H 
BRANCH  33  35
ATOM     35  C12 non d ame     -37.483  17.149  23.976  0.00  0.00    -0.071 C 
ATOM     36  H13 non d ame     -38.520  16.814  23.967  0.00  0.00     0.028 H 
ATOM     37  H14 non d ame     -37.213  17.521  22.988  0.00  0.00     0.028 H 
ATOM     38  H15 non d ame     -36.835  16.312  24.239  0.00  0.00     0.028 H 
ENDBRANCH  33  35
BRANCH  33  39
ATOM     39  C13 non d ame     -38.684  18.955  25.367  0.00  0.00    -0.071 C 
ATOM     40  H16 non d ame     -39.111  19.391  24.464  0.00  0.00     0.028 H 
ATOM     41  H17 non d ame     -39.366  18.202  25.766  0.00  0.00     0.028 H 
ATOM     42  H18 non d ame     -38.534  19.737  26.112  0.00  0.00     0.028 H 
ENDBRANCH  33  39
ENDBRANCH   7  33
ENDBRANCH   4   7
ENDBRANCH   1   3
BRANCH   1  43
ATOM     43  C15 non d ame     -35.107  13.054  26.413  0.00  0.00     0.240 C 
ATOM     44  O5  non d ame     -34.135  13.313  25.781  0.00  0.00    -0.271 OA
ATOM     45  N6  non d ame     -35.054  11.983  27.449  0.00  0.00    -0.355 N 
ATOM     46  H46 non d ame     -35.873  11.757  27.996  0.00  0.00     0.162 HD
BRANCH  45  47
ATOM     47  C20 non d ame     -33.793  11.245  27.676  0.00  0.00     0.013 C 
ATOM     48  H30 non d ame     -32.977  11.847  27.277  0.00  0.00     0.072 H 
BRANCH  47  49
ATOM     49  C21 non d ame     -33.856   9.916  26.958  0.00  0.00    -0.038 C 
ATOM     50  H31 non d ame     -34.222   9.200  27.694  0.00  0.00     0.036 H 
ATOM     51  H32 non d ame     -34.425  10.100  26.047  0.00  0.00     0.036 H 
BRANCH  49  52
ATOM     52  C22 non d ame     -32.467   9.411  26.509  0.00  0.00     0.018 C 
ATOM     53  H33 non d ame     -31.854   9.397  27.409  0.00  0.00     0.048 H 
ATOM     54  H34 non d ame     -32.652   8.488  25.960  0.00  0.00     0.048 H 
BRANCH  52  55
ATOM     55  C23 non d ame     -31.746  10.363  25.515  0.00  0.00     0.259 C 
ATOM     56  O7  non d ame     -30.870  11.074  25.889  0.00  0.00    -0.265 OA
BRANCH  55  57
ATOM     57  O8  non d ame     -32.154  10.386  24.152  0.00  0.00    -0.317 OA
BRANCH  57  58
ATOM     58  C29 non d ame     -31.092  10.646  23.230  0.00  0.00     0.052 C 
ATOM     59  H47 non d ame     -31.573  10.991  22.315  0.00  0.00     0.082 H 
ATOM     60  H48 non d ame     -30.394  11.296  23.758  0.00  0.00     0.082 H 
BRANCH  58  61
ATOM     61  C35 non d ame     -30.377   9.301  22.932  0.00  0.00    -0.034 A 
ATOM     62  C30 non d ame     -31.099   8.112  22.944  0.00  0.00    -0.075 A 
ATOM     63  C31 non d ame     -30.457   6.903  22.677  0.00  0.00    -0.082 A 
ATOM     64  H49 non d ame     -32.167   8.126  23.163  0.00  0.00     0.084 H 
ATOM     65  C32 non d ame     -29.088   6.886  22.398  0.00  0.00    -0.083 A 
ATOM     66  H50 non d ame     -31.027   5.972  22.685  0.00  0.00     0.083 H 
ATOM     67  C33 non d ame     -28.371   8.075  22.392  0.00  0.00    -0.082 A 
ATOM     68  H51 non d ame     -28.579   5.945  22.187  0.00  0.00     0.083 H 
ATOM     69  C34 non d ame     -29.009   9.285  22.656  0.00  0.00    -0.075 A 
ATOM     70  H52 non d ame     -27.302   8.058  22.177  0.00  0.00     0.083 H 
ATOM     71  H53 non d ame     -28.439  10.215  22.647  0.00  0.00     0.084 H 
ENDBRANCH  58  61
ENDBRANCH  57  58
ENDBRANCH  55  57
ENDBRANCH  52  55
ENDBRANCH  49  52
ENDBRANCH  47  49
BRANCH  47  72
ATOM     72  C24 non d ame     -33.595  11.008  29.172  0.00  0.00    -0.039 C 
ATOM     73  H35 non d ame     -34.596  11.044  29.605  0.00  0.00     0.036 H 
ATOM     74  H36 non d ame     -33.003  10.096  29.245  0.00  0.00     0.036 H 
BRANCH  72  75
ATOM     75  C25 non d ame     -32.743  12.182  29.850  0.00  0.00    -0.001 C 
ATOM     76  C26 non d ame     -31.446  12.548  28.909  0.00  0.00    -0.035 C 
ATOM     77  C27 non d ame     -30.329  12.526  29.675  0.00  0.00     0.085 C 
ATOM     78  H38 non d ame     -31.273  11.753  28.184  0.00  0.00     0.036 H 
ATOM     79  H39 non d ame     -31.506  13.585  28.576  0.00  0.00     0.036 H 
ATOM     80  N5  non d ame     -30.702  11.859  30.978  0.00  0.00    -0.049 N 
ATOM     81  H40 non d ame     -29.622  11.892  29.140  0.00  0.00     0.075 H 
ATOM     82  H41 non d ame     -30.087  13.570  29.868  0.00  0.00     0.075 H 
ATOM     83  C28 non d ame     -32.316  11.834  31.018  0.00  0.00     0.193 C 
ATOM     84  H42 non d ame     -30.368  10.908  30.918  0.00  0.00     0.280 HD
ATOM     85  H43 non d ame     -30.371  12.466  31.714  0.00  0.00     0.280 HD
ATOM     86  H44 non d ame     -32.864  12.537  31.647  0.00  0.00     0.129 H 
ATOM     87  H37 non d ame     -33.370  13.012  30.176  0.00  0.00     0.046 H 
BRANCH  83  88
ATOM     88  O6  non d ame     -32.780  10.537  31.398  0.00  0.00    -0.369 OA
ATOM     89  H45 non d ame     -32.739  10.450  32.354  0.00  0.00     0.212 HD
ENDBRANCH  83  88
ENDBRANCH  72  75
ENDBRANCH  47  72
ENDBRANCH  45  47
ENDBRANCH   1  43
BRANCH   1  90
ATOM     90  C16 non d ame     -37.113  13.303  24.918  0.00  0.00    -0.035 C 
ATOM     91  H21 non d ame     -37.511  14.178  24.407  0.00  0.00     0.037 H 
ATOM     92  H22 non d ame     -36.370  12.674  24.428  0.00  0.00     0.037 H 
BRANCH  90  93
ATOM     93  C17 non d ame     -38.336  12.382  25.228  0.00  0.00    -0.059 C 
ATOM     94  H23 non d ame     -38.953  12.338  24.330  0.00  0.00     0.038 H 
BRANCH  93  95
ATOM     95  C18 non d ame     -37.902  10.923  25.579  0.00  0.00    -0.073 C 
ATOM     96  H24 non d ame     -38.112  10.723  26.630  0.00  0.00     0.028 H 
ATOM     97  H25 non d ame     -38.457  10.219  24.959  0.00  0.00     0.028 H 
ATOM     98  H26 non d ame     -36.834  10.807  25.394  0.00  0.00     0.028 H 
ENDBRANCH  93  95
BRANCH  93  99
ATOM     99  C19 non d ame     -39.200  12.976  26.345  0.00  0.00    -0.073 C 
ATOM    100  H27 non d ame     -40.254  12.820  26.111  0.00  0.00     0.028 H 
ATOM    101  H28 non d ame     -38.962  12.486  27.289  0.00  0.00     0.028 H 
ATOM    102  H29 non d ame     -39.000  14.044  26.429  0.00  0.00     0.028 H 
ENDBRANCH  93  99
ENDBRANCH  90  93
ENDBRANCH   1  90
TORSDOF 26
ENDMDL
MODEL 12
REMARK VINA RESULT:      -7.0      3.138      7.184
REMARK  26 active torsions:
REMARK  status: ('A' for Active; 'I' for Inactive)
REMARK    1  A    between atoms: C2_2  and  C3_3 
REMARK    2  A    between atoms: C4_6  and  C5_7 
REMARK       I    between atoms: C5_7  and  N2_9 
REMARK    3  A    between atoms: N2_9  and  C6_10 
REMARK    4  A    between atoms: C6_10  and  C7_11 
REMARK    5  A    between atoms: C6_10  and  C8_13 
REMARK       I    between atoms: C7_11  and  N3_14 
REMARK    6  A    between atoms: N3_14  and  C9_15 
REMARK    7  A    between atoms: C9_15  and  C10_16 
REMARK    8  A    between atoms: C9_15  and  C11_18 
REMARK       I    between atoms: C10_16  and  N4_21 
REMARK    9  A    between atoms: C11_18  and  C12_19 
REMARK   10  A    between atoms: C11_18  and  C13_20 
REMARK   11  A    between atoms: N4_21  and  C14_22 
REMARK   12  A    between atoms: C14_22  and  C15_23 
REMARK   13  A    between atoms: C14_22  and  C16_25 
REMARK       I    between atoms: C15_23  and  N6_40 
REMARK   14  A    between atoms: C16_25  and  C17_26 
REMARK   15  A    between atoms: C17_26  and  C18_27 
REMARK   16  A    between atoms: C17_26  and  C19_28 
REMARK   17  A    between atoms: C20_29  and  C21_30 
REMARK   18  A    between atoms: C20_29  and  C24_33 
REMARK   19  A    between atoms: C20_29  and  N6_40 
REMARK   20  A    between atoms: C21_30  and  C22_31 
REMARK   21  A    between atoms: C22_31  and  C23_32 
REMARK   22  A    between atoms: C23_32  and  O8_43 
REMARK   23  A    between atoms: C24_33  and  C25_34 
REMARK   24  A    between atoms: C28_38  and  O6_39 
REMARK   25  A    between atoms: C29_42  and  O8_43 
REMARK   26  A    between atoms: C29_42  and  C35_49 
ROOT
ATOM      1  C14 non d ame     -33.084  12.802  27.933  0.00  0.00     0.089 C 
ATOM      2  H20 non d ame     -33.665  13.405  28.632  0.00  0.00     0.087 H 
ENDROOT
BRANCH   1   3
ATOM      3  N4  non d ame     -34.020  11.981  27.180  0.00  0.00    -0.346 N 
ATOM      4  C10 non d ame     -35.360  12.535  26.769  0.00  0.00     0.241 C 
ATOM      5  O4  non d ame     -35.666  13.645  27.058  0.00  0.00    -0.271 OA
ATOM      6  H19 non d ame     -33.743  11.038  26.947  0.00  0.00     0.163 HD
BRANCH   4   7
ATOM      7  C9  non d ame     -36.315  11.672  25.986  0.00  0.00     0.092 C 
ATOM      8  H11 non d ame     -36.429  12.082  24.983  0.00  0.00     0.088 H 
BRANCH   7   9
ATOM      9  N3  non d ame     -35.753  10.326  25.842  0.00  0.00    -0.346 N 
ATOM     10  C7  non d ame     -35.613   9.739  24.533  0.00  0.00     0.240 C 
ATOM     11  O3  non d ame     -35.948  10.336  23.583  0.00  0.00    -0.271 OA
ATOM     12  H10 non d ame     -35.460   9.799  26.653  0.00  0.00     0.163 HD
BRANCH  10  13
ATOM     13  C6  non d ame     -35.017   8.305  24.386  0.00  0.00     0.086 C 
ATOM     14  H6  non d ame     -35.401   7.775  23.515  0.00  0.00     0.086 H 
BRANCH  13  15
ATOM     15  N2  non d ame     -33.578   8.408  24.209  0.00  0.00    -0.343 N 
ATOM     16  C5  non d ame     -33.035   8.709  22.883  0.00  0.00     0.273 C 
ATOM     17  O2  non d ame     -33.762   8.865  21.965  0.00  0.00    -0.266 OA
ATOM     18  H5  non d ame     -32.963   8.271  24.998  0.00  0.00     0.163 HD
BRANCH  16  19
ATOM     19  C4  non d ame     -31.515   8.822  22.681  0.00  0.00     0.154 A 
ATOM     20  C1  non d ame     -30.556   7.761  22.727  0.00  0.00    -0.017 A 
ATOM     21  C2  non d ame     -29.313   8.385  22.481  0.00  0.00     0.077 A 
ATOM     22  H1  non d ame     -30.735   6.702  22.911  0.00  0.00     0.091 H 
ATOM     23  O1  non d ame     -29.542   9.654  22.313  0.00  0.00    -0.218 OA
ATOM     24  N1  non d ame     -30.820   9.933  22.425  0.00  0.00    -0.123 NA
BRANCH  21  25
ATOM     25  C3  non d ame     -27.955   7.698  22.421  0.00  0.00    -0.029 C 
ATOM     26  H2  non d ame     -28.073   6.640  22.653  0.00  0.00     0.036 H 
ATOM     27  H3  non d ame     -27.537   7.804  21.420  0.00  0.00     0.036 H 
ATOM     28  H4  non d ame     -27.283   8.156  23.145  0.00  0.00     0.036 H 
ENDBRANCH  21  25
ENDBRANCH  16  19
ENDBRANCH  13  15
BRANCH  13  29
ATOM     29  C8  non d ame     -35.329   7.500  25.622  0.00  0.00    -0.049 C 
ATOM     30  H7  non d ame     -35.340   8.156  26.491  0.00  0.00     0.030 H 
ATOM     31  H8  non d ame     -36.305   7.028  25.512  0.00  0.00     0.030 H 
ATOM     32  H9  non d ame     -34.566   6.731  25.757  0.00  0.00     0.030 H 
ENDBRANCH  13  29
ENDBRANCH  10  13
ENDBRANCH   7   9
BRANCH   7  33
ATOM     33  C11 non d ame     -37.674  11.586  26.741  0.00  0.00    -0.033 C 
ATOM     34  H12 non d ame     -38.050  12.602  26.860  0.00  0.00     0.042 H 
BRANCH  33  35
ATOM     35  C12 non d ame     -38.732  10.787  25.917  0.00  0.00    -0.071 C 
ATOM     36  H13 non d ame     -39.655  11.364  25.855  0.00  0.00     0.028 H 
ATOM     37  H14 non d ame     -38.349  10.605  24.913  0.00  0.00     0.028 H 
ATOM     38  H15 non d ame     -38.933   9.836  26.409  0.00  0.00     0.028 H 
ENDBRANCH  33  35
BRANCH  33  39
ATOM     39  C13 non d ame     -37.484  10.972  28.165  0.00  0.00    -0.071 C 
ATOM     40  H16 non d ame     -38.459  10.744  28.596  0.00  0.00     0.028 H 
ATOM     41  H17 non d ame     -36.896  10.056  28.091  0.00  0.00     0.028 H 
ATOM     42  H18 non d ame     -36.963  11.686  28.803  0.00  0.00     0.028 H 
ENDBRANCH  33  39
ENDBRANCH   7  33
ENDBRANCH   4   7
ENDBRANCH   1   3
BRANCH   1  43
ATOM     43  C15 non d ame     -32.278  13.679  26.932  0.00  0.00     0.240 C 
ATOM     44  O5  non d ame     -31.185  13.348  26.604  0.00  0.00    -0.271 OA
ATOM     45  N6  non d ame     -32.873  14.926  26.373  0.00  0.00    -0.355 N 
ATOM     46  H46 non d ame     -33.804  15.215  26.640  0.00  0.00     0.162 HD
BRANCH  45  47
ATOM     47  C20 non d ame     -32.094  15.748  25.422  0.00  0.00     0.013 C 
ATOM     48  H30 non d ame     -31.059  15.763  25.762  0.00  0.00     0.072 H 
BRANCH  47  49
ATOM     49  C21 non d ame     -32.652  17.153  25.400  0.00  0.00    -0.038 C 
ATOM     50  H31 non d ame     -32.217  17.629  24.521  0.00  0.00     0.036 H 
ATOM     51  H32 non d ame     -33.734  17.041  25.480  0.00  0.00     0.036 H 
BRANCH  49  52
ATOM     52  C22 non d ame     -32.209  17.992  26.618  0.00  0.00     0.018 C 
ATOM     53  H33 non d ame     -31.185  17.688  26.829  0.00  0.00     0.048 H 
ATOM     54  H34 non d ame     -32.429  19.028  26.358  0.00  0.00     0.048 H 
BRANCH  52  55
ATOM     55  C23 non d ame     -33.019  17.696  27.911  0.00  0.00     0.259 C 
ATOM     56  O7  non d ame     -32.558  17.012  28.767  0.00  0.00    -0.265 OA
BRANCH  55  57
ATOM     57  O8  non d ame     -34.326  18.239  28.055  0.00  0.00    -0.317 OA
BRANCH  57  58
ATOM     58  C29 non d ame     -34.383  19.662  27.921  0.00  0.00     0.052 C 
ATOM     59  H47 non d ame     -34.657  20.041  28.905  0.00  0.00     0.082 H 
ATOM     60  H48 non d ame     -33.436  19.955  27.468  0.00  0.00     0.082 H 
BRANCH  58  61
ATOM     61  C35 non d ame     -35.526  20.003  26.928  0.00  0.00    -0.034 A 
ATOM     62  C30 non d ame     -36.572  20.830  27.328  0.00  0.00    -0.075 A 
ATOM     63  C31 non d ame     -37.600  21.136  26.436  0.00  0.00    -0.082 A 
ATOM     64  H49 non d ame     -36.588  21.237  28.339  0.00  0.00     0.084 H 
ATOM     65  C32 non d ame     -37.580  20.611  25.141  0.00  0.00    -0.083 A 
ATOM     66  H50 non d ame     -38.417  21.786  26.752  0.00  0.00     0.083 H 
ATOM     67  C33 non d ame     -36.536  19.784  24.749  0.00  0.00    -0.082 A 
ATOM     68  H51 non d ame     -38.379  20.847  24.438  0.00  0.00     0.083 H 
ATOM     69  C34 non d ame     -35.507  19.477  25.635  0.00  0.00    -0.075 A 
ATOM     70  H52 non d ame     -36.525  19.374  23.738  0.00  0.00     0.083 H 
ATOM     71  H53 non d ame     -34.689  18.828  25.319  0.00  0.00     0.084 H 
ENDBRANCH  58  61
ENDBRANCH  57  58
ENDBRANCH  55  57
ENDBRANCH  52  55
ENDBRANCH  49  52
ENDBRANCH  47  49
BRANCH  47  72
ATOM     72  C24 non d ame     -32.183  15.141  24.023  0.00  0.00    -0.039 C 
ATOM     73  H35 non d ame     -32.339  14.073  24.180  0.00  0.00     0.036 H 
ATOM     74  H36 non d ame     -32.936  15.730  23.499  0.00  0.00     0.036 H 
BRANCH  72  75
ATOM     75  C25 non d ame     -30.809  15.305  23.217  0.00  0.00    -0.001 C 
ATOM     76  C26 non d ame     -31.081  16.095  21.801  0.00  0.00    -0.035 C 
ATOM     77  C27 non d ame     -30.537  15.378  20.789  0.00  0.00     0.085 C 
ATOM     78  H38 non d ame     -32.146  16.094  21.571  0.00  0.00     0.036 H 
ATOM     79  H39 non d ame     -30.520  17.030  21.780  0.00  0.00     0.036 H 
ATOM     80  N5  non d ame     -30.207  14.012  21.344  0.00  0.00    -0.049 N 
ATOM     81  H40 non d ame     -31.328  15.278  20.045  0.00  0.00     0.075 H 
ATOM     82  H41 non d ame     -29.611  15.891  20.533  0.00  0.00     0.075 H 
ATOM     83  C28 non d ame     -30.284  14.156  22.950  0.00  0.00     0.193 C 
ATOM     84  H42 non d ame     -30.945  13.395  21.040  0.00  0.00     0.280 HD
ATOM     85  H43 non d ame     -29.250  13.823  21.083  0.00  0.00     0.280 HD
ATOM     86  H44 non d ame     -29.372  14.212  23.545  0.00  0.00     0.129 H 
ATOM     87  H37 non d ame     -30.003  15.680  23.847  0.00  0.00     0.046 H 
BRANCH  83  88
ATOM     88  O6  non d ame     -31.038  13.077  23.505  0.00  0.00    -0.369 OA
ATOM     89  H45 non d ame     -30.452  12.337  23.686  0.00  0.00     0.212 HD
ENDBRANCH  83  88
ENDBRANCH  72  75
ENDBRANCH  47  72
ENDBRANCH  45  47
ENDBRANCH   1  43
BRANCH   1  90
ATOM     90  C16 non d ame     -32.134  11.898  28.700  0.00  0.00    -0.035 C 
ATOM     91  H21 non d ame     -32.551  10.896  28.607  0.00  0.00     0.037 H 
ATOM     92  H22 non d ame     -31.143  12.115  28.301  0.00  0.00     0.037 H 
BRANCH  90  93
ATOM     93  C17 non d ame     -32.072  12.208  30.230  0.00  0.00    -0.059 C 
ATOM     94  H23 non d ame     -32.312  13.263  30.362  0.00  0.00     0.038 H 
BRANCH  93  95
ATOM     95  C18 non d ame     -33.113  11.377  31.043  0.00  0.00    -0.073 C 
ATOM     96  H24 non d ame     -32.850  10.320  31.000  0.00  0.00     0.028 H 
ATOM     97  H25 non d ame     -33.111  11.707  32.082  0.00  0.00     0.028 H 
ATOM     98  H26 non d ame     -34.106  11.522  30.618  0.00  0.00     0.028 H 
ENDBRANCH  93  95
BRANCH  93  99
ATOM     99  C19 non d ame     -30.657  11.992  30.775  0.00  0.00    -0.073 C 
ATOM    100  H27 non d ame     -30.613  11.037  31.300  0.00  0.00     0.028 H 
ATOM    101  H28 non d ame     -29.946  11.985  29.949  0.00  0.00     0.028 H 
ATOM    102  H29 non d ame     -30.406  12.798  31.465  0.00  0.00     0.028 H 
ENDBRANCH  93  99
ENDBRANCH  90  93
ENDBRANCH   1  90
TORSDOF 26
ENDMDL
MODEL 13
REMARK VINA RESULT:      -7.0      4.247      8.766
REMARK  26 active torsions:
REMARK  status: ('A' for Active; 'I' for Inactive)
REMARK    1  A    between atoms: C2_2  and  C3_3 
REMARK    2  A    between atoms: C4_6  and  C5_7 
REMARK       I    between atoms: C5_7  and  N2_9 
REMARK    3  A    between atoms: N2_9  and  C6_10 
REMARK    4  A    between atoms: C6_10  and  C7_11 
REMARK    5  A    between atoms: C6_10  and  C8_13 
REMARK       I    between atoms: C7_11  and  N3_14 
REMARK    6  A    between atoms: N3_14  and  C9_15 
REMARK    7  A    between atoms: C9_15  and  C10_16 
REMARK    8  A    between atoms: C9_15  and  C11_18 
REMARK       I    between atoms: C10_16  and  N4_21 
REMARK    9  A    between atoms: C11_18  and  C12_19 
REMARK   10  A    between atoms: C11_18  and  C13_20 
REMARK   11  A    between atoms: N4_21  and  C14_22 
REMARK   12  A    between atoms: C14_22  and  C15_23 
REMARK   13  A    between atoms: C14_22  and  C16_25 
REMARK       I    between atoms: C15_23  and  N6_40 
REMARK   14  A    between atoms: C16_25  and  C17_26 
REMARK   15  A    between atoms: C17_26  and  C18_27 
REMARK   16  A    between atoms: C17_26  and  C19_28 
REMARK   17  A    between atoms: C20_29  and  C21_30 
REMARK   18  A    between atoms: C20_29  and  C24_33 
REMARK   19  A    between atoms: C20_29  and  N6_40 
REMARK   20  A    between atoms: C21_30  and  C22_31 
REMARK   21  A    between atoms: C22_31  and  C23_32 
REMARK   22  A    between atoms: C23_32  and  O8_43 
REMARK   23  A    between atoms: C24_33  and  C25_34 
REMARK   24  A    between atoms: C28_38  and  O6_39 
REMARK   25  A    between atoms: C29_42  and  O8_43 
REMARK   26  A    between atoms: C29_42  and  C35_49 
ROOT
ATOM      1  C14 non d ame     -36.552  15.686  26.478  0.00  0.00     0.089 C 
ATOM      2  H20 non d ame     -37.122  16.126  27.296  0.00  0.00     0.087 H 
ENDROOT
BRANCH   1   3
ATOM      3  N4  non d ame     -35.141  15.902  26.760  0.00  0.00    -0.346 N 
ATOM      4  C10 non d ame     -34.714  16.959  27.745  0.00  0.00     0.241 C 
ATOM      5  O4  non d ame     -35.524  17.627  28.299  0.00  0.00    -0.271 OA
ATOM      6  H19 non d ame     -34.467  15.326  26.276  0.00  0.00     0.163 HD
BRANCH   4   7
ATOM      7  C9  non d ame     -33.249  17.166  28.029  0.00  0.00     0.092 C 
ATOM      8  H11 non d ame     -33.140  17.798  28.910  0.00  0.00     0.088 H 
BRANCH   7   9
ATOM      9  N3  non d ame     -32.624  15.877  28.339  0.00  0.00    -0.346 N 
ATOM     10  C7  non d ame     -31.805  15.739  29.517  0.00  0.00     0.240 C 
ATOM     11  O3  non d ame     -31.637  16.655  30.227  0.00  0.00    -0.271 OA
ATOM     12  H10 non d ame     -32.758  15.078  27.735  0.00  0.00     0.163 HD
BRANCH  10  13
ATOM     13  C6  non d ame     -31.139  14.365  29.841  0.00  0.00     0.086 C 
ATOM     14  H6  non d ame     -30.600  14.371  30.788  0.00  0.00     0.086 H 
BRANCH  13  15
ATOM     15  N2  non d ame     -32.177  13.354  29.960  0.00  0.00    -0.343 N 
ATOM     16  C5  non d ame     -31.882  12.094  30.644  0.00  0.00     0.273 C 
ATOM     17  O2  non d ame     -30.806  11.901  31.093  0.00  0.00    -0.266 OA
ATOM     18  H5  non d ame     -33.093  13.527  29.571  0.00  0.00     0.163 HD
BRANCH  16  19
ATOM     19  C4  non d ame     -32.971  11.017  30.778  0.00  0.00     0.154 A 
ATOM     20  C1  non d ame     -34.047  10.988  31.720  0.00  0.00    -0.017 A 
ATOM     21  C2  non d ame     -34.754   9.801  31.426  0.00  0.00     0.077 A 
ATOM     22  H1  non d ame     -34.279  11.717  32.497  0.00  0.00     0.091 H 
ATOM     23  O1  non d ame     -34.149   9.225  30.430  0.00  0.00    -0.218 OA
ATOM     24  N1  non d ame     -33.104   9.916  30.034  0.00  0.00    -0.123 NA
BRANCH  21  25
ATOM     25  C3  non d ame     -35.998   9.292  32.142  0.00  0.00    -0.029 C 
ATOM     26  H2  non d ame     -35.957   9.582  33.192  0.00  0.00     0.036 H 
ATOM     27  H3  non d ame     -36.886   9.726  31.682  0.00  0.00     0.036 H 
ATOM     28  H4  non d ame     -36.044   8.206  32.066  0.00  0.00     0.036 H 
ENDBRANCH  21  25
ENDBRANCH  16  19
ENDBRANCH  13  15
BRANCH  13  29
ATOM     29  C8  non d ame     -30.182  13.995  28.738  0.00  0.00    -0.049 C 
ATOM     30  H7  non d ame     -30.648  14.185  27.772  0.00  0.00     0.030 H 
ATOM     31  H8  non d ame     -29.275  14.593  28.827  0.00  0.00     0.030 H 
ATOM     32  H9  non d ame     -29.928  12.937  28.816  0.00  0.00     0.030 H 
ENDBRANCH  13  29
ENDBRANCH  10  13
ENDBRANCH   7   9
BRANCH   7  33
ATOM     33  C11 non d ame     -32.561  17.784  26.775  0.00  0.00    -0.033 C 
ATOM     34  H12 non d ame     -31.667  18.306  27.115  0.00  0.00     0.042 H 
BRANCH  33  35
ATOM     35  C12 non d ame     -32.106  16.677  25.774  0.00  0.00    -0.071 C 
ATOM     36  H13 non d ame     -32.954  16.037  25.529  0.00  0.00     0.028 H 
ATOM     37  H14 non d ame     -31.727  17.142  24.865  0.00  0.00     0.028 H 
ATOM     38  H15 non d ame     -31.319  16.076  26.230  0.00  0.00     0.028 H 
ENDBRANCH  33  35
BRANCH  33  39
ATOM     39  C13 non d ame     -33.495  18.826  26.082  0.00  0.00    -0.071 C 
ATOM     40  H16 non d ame     -34.514  18.701  26.448  0.00  0.00     0.028 H 
ATOM     41  H17 non d ame     -33.148  19.835  26.309  0.00  0.00     0.028 H 
ATOM     42  H18 non d ame     -33.475  18.671  25.003  0.00  0.00     0.028 H 
ENDBRANCH  33  39
ENDBRANCH   7  33
ENDBRANCH   4   7
ENDBRANCH   1   3
BRANCH   1  43
ATOM     43  C15 non d ame     -36.802  14.156  26.345  0.00  0.00     0.240 C 
ATOM     44  O5  non d ame     -37.703  13.760  25.680  0.00  0.00    -0.271 OA
ATOM     45  N6  non d ame     -35.911  13.184  27.041  0.00  0.00    -0.355 N 
ATOM     46  H46 non d ame     -35.139  13.508  27.605  0.00  0.00     0.162 HD
BRANCH  45  47
ATOM     47  C20 non d ame     -36.162  11.733  26.904  0.00  0.00     0.013 C 
ATOM     48  H30 non d ame     -36.624  11.563  25.931  0.00  0.00     0.072 H 
BRANCH  47  49
ATOM     49  C21 non d ame     -37.094  11.280  28.005  0.00  0.00    -0.038 C 
ATOM     50  H31 non d ame     -36.454  11.066  28.862  0.00  0.00     0.036 H 
ATOM     51  H32 non d ame     -37.861  12.051  28.077  0.00  0.00     0.036 H 
BRANCH  49  52
ATOM     52  C22 non d ame     -37.828   9.964  27.666  0.00  0.00     0.018 C 
ATOM     53  H33 non d ame     -38.887  10.216  27.640  0.00  0.00     0.048 H 
ATOM     54  H34 non d ame     -37.337   9.574  26.775  0.00  0.00     0.048 H 
BRANCH  52  55
ATOM     55  C23 non d ame     -37.675   8.865  28.754  0.00  0.00     0.259 C 
ATOM     56  O7  non d ame     -38.462   8.781  29.641  0.00  0.00    -0.265 OA
BRANCH  55  57
ATOM     57  O8  non d ame     -36.575   7.965  28.687  0.00  0.00    -0.317 OA
BRANCH  57  58
ATOM     58  C29 non d ame     -36.934   6.591  28.860  0.00  0.00     0.052 C 
ATOM     59  H47 non d ame     -37.836   6.597  29.471  0.00  0.00     0.082 H 
ATOM     60  H48 non d ame     -36.956   6.164  27.858  0.00  0.00     0.082 H 
BRANCH  58  61
ATOM     61  C35 non d ame     -35.800   5.898  29.663  0.00  0.00    -0.034 A 
ATOM     62  C30 non d ame     -35.837   5.892  31.054  0.00  0.00    -0.075 A 
ATOM     63  C31 non d ame     -34.818   5.271  31.775  0.00  0.00    -0.082 A 
ATOM     64  H49 non d ame     -36.661   6.375  31.579  0.00  0.00     0.084 H 
ATOM     65  C32 non d ame     -33.760   4.655  31.101  0.00  0.00    -0.083 A 
ATOM     66  H50 non d ame     -34.850   5.265  32.866  0.00  0.00     0.083 H 
ATOM     67  C33 non d ame     -33.727   4.667  29.713  0.00  0.00    -0.082 A 
ATOM     68  H51 non d ame     -32.961   4.165  31.658  0.00  0.00     0.083 H 
ATOM     69  C34 non d ame     -34.743   5.286  28.988  0.00  0.00    -0.075 A 
ATOM     70  H52 non d ame     -32.899   4.188  29.190  0.00  0.00     0.083 H 
ATOM     71  H53 non d ame     -34.711   5.290  27.898  0.00  0.00     0.084 H 
ENDBRANCH  58  61
ENDBRANCH  57  58
ENDBRANCH  55  57
ENDBRANCH  52  55
ENDBRANCH  49  52
ENDBRANCH  47  49
BRANCH  47  72
ATOM     72  C24 non d ame     -34.843  10.969  27.004  0.00  0.00    -0.039 C 
ATOM     73  H35 non d ame     -34.297  11.442  27.821  0.00  0.00     0.036 H 
ATOM     74  H36 non d ame     -35.121   9.917  27.072  0.00  0.00     0.036 H 
BRANCH  72  75
ATOM     75  C25 non d ame     -33.957  11.139  25.681  0.00  0.00    -0.001 C 
ATOM     76  C26 non d ame     -34.022   9.764  24.783  0.00  0.00    -0.035 C 
ATOM     77  C27 non d ame     -32.759   9.375  24.487  0.00  0.00     0.085 C 
ATOM     78  H38 non d ame     -34.407   8.941  25.385  0.00  0.00     0.036 H 
ATOM     79  H39 non d ame     -34.459   9.975  23.806  0.00  0.00     0.036 H 
ATOM     80  N5  non d ame     -31.833  10.174  25.374  0.00  0.00    -0.049 N 
ATOM     81  H40 non d ame     -32.704   8.324  24.769  0.00  0.00     0.075 H 
ATOM     82  H41 non d ame     -32.599   9.670  23.450  0.00  0.00     0.075 H 
ATOM     83  C28 non d ame     -32.723  11.379  25.974  0.00  0.00     0.193 C 
ATOM     84  H42 non d ame     -31.566   9.563  26.132  0.00  0.00     0.280 HD
ATOM     85  H43 non d ame     -31.126  10.565  24.768  0.00  0.00     0.280 HD
ATOM     86  H44 non d ame     -32.619  12.391  25.581  0.00  0.00     0.129 H 
ATOM     87  H37 non d ame     -34.161  12.078  25.166  0.00  0.00     0.046 H 
BRANCH  83  88
ATOM     88  O6  non d ame     -32.514  11.492  27.382  0.00  0.00    -0.369 OA
ATOM     89  H45 non d ame     -33.291  11.883  27.791  0.00  0.00     0.212 HD
ENDBRANCH  83  88
ENDBRANCH  72  75
ENDBRANCH  47  72
ENDBRANCH  45  47
ENDBRANCH   1  43
BRANCH   1  90
ATOM     90  C16 non d ame     -36.910  16.377  25.172  0.00  0.00    -0.035 C 
ATOM     91  H21 non d ame     -35.981  16.820  24.816  0.00  0.00     0.037 H 
ATOM     92  H22 non d ame     -37.417  15.619  24.574  0.00  0.00     0.037 H 
BRANCH  90  93
ATOM     93  C17 non d ame     -37.922  17.554  25.343  0.00  0.00    -0.059 C 
ATOM     94  H23 non d ame     -38.559  17.320  26.196  0.00  0.00     0.038 H 
BRANCH  93  95
ATOM     95  C18 non d ame     -37.205  18.909  25.643  0.00  0.00    -0.073 C 
ATOM     96  H24 non d ame     -36.230  18.921  25.157  0.00  0.00     0.028 H 
ATOM     97  H25 non d ame     -37.809  19.732  25.261  0.00  0.00     0.028 H 
ATOM     98  H26 non d ame     -37.076  19.022  26.719  0.00  0.00     0.028 H 
ENDBRANCH  93  95
BRANCH  93  99
ATOM     99  C19 non d ame     -38.830  17.678  24.117  0.00  0.00    -0.073 C 
ATOM    100  H27 non d ame     -39.541  18.491  24.272  0.00  0.00     0.028 H 
ATOM    101  H28 non d ame     -38.224  17.891  23.235  0.00  0.00     0.028 H 
ATOM    102  H29 non d ame     -39.371  16.744  23.969  0.00  0.00     0.028 H 
ENDBRANCH  93  99
ENDBRANCH  90  93
ENDBRANCH   1  90
TORSDOF 26
ENDMDL
MODEL 14
REMARK VINA RESULT:      -7.0      4.443      8.307
REMARK  26 active torsions:
REMARK  status: ('A' for Active; 'I' for Inactive)
REMARK    1  A    between atoms: C2_2  and  C3_3 
REMARK    2  A    between atoms: C4_6  and  C5_7 
REMARK       I    between atoms: C5_7  and  N2_9 
REMARK    3  A    between atoms: N2_9  and  C6_10 
REMARK    4  A    between atoms: C6_10  and  C7_11 
REMARK    5  A    between atoms: C6_10  and  C8_13 
REMARK       I    between atoms: C7_11  and  N3_14 
REMARK    6  A    between atoms: N3_14  and  C9_15 
REMARK    7  A    between atoms: C9_15  and  C10_16 
REMARK    8  A    between atoms: C9_15  and  C11_18 
REMARK       I    between atoms: C10_16  and  N4_21 
REMARK    9  A    between atoms: C11_18  and  C12_19 
REMARK   10  A    between atoms: C11_18  and  C13_20 
REMARK   11  A    between atoms: N4_21  and  C14_22 
REMARK   12  A    between atoms: C14_22  and  C15_23 
REMARK   13  A    between atoms: C14_22  and  C16_25 
REMARK       I    between atoms: C15_23  and  N6_40 
REMARK   14  A    between atoms: C16_25  and  C17_26 
REMARK   15  A    between atoms: C17_26  and  C18_27 
REMARK   16  A    between atoms: C17_26  and  C19_28 
REMARK   17  A    between atoms: C20_29  and  C21_30 
REMARK   18  A    between atoms: C20_29  and  C24_33 
REMARK   19  A    between atoms: C20_29  and  N6_40 
REMARK   20  A    between atoms: C21_30  and  C22_31 
REMARK   21  A    between atoms: C22_31  and  C23_32 
REMARK   22  A    between atoms: C23_32  and  O8_43 
REMARK   23  A    between atoms: C24_33  and  C25_34 
REMARK   24  A    between atoms: C28_38  and  O6_39 
REMARK   25  A    between atoms: C29_42  and  O8_43 
REMARK   26  A    between atoms: C29_42  and  C35_49 
ROOT
ATOM      1  C14 non d ame     -36.860  13.142  26.259  0.00  0.00     0.089 C 
ATOM      2  H20 non d ame     -37.911  13.245  26.527  0.00  0.00     0.087 H 
ENDROOT
BRANCH   1   3
ATOM      3  N4  non d ame     -36.156  14.300  26.791  0.00  0.00    -0.346 N 
ATOM      4  C10 non d ame     -36.891  15.593  27.032  0.00  0.00     0.241 C 
ATOM      5  O4  non d ame     -38.050  15.680  26.790  0.00  0.00    -0.271 OA
ATOM      6  H19 non d ame     -35.170  14.206  26.988  0.00  0.00     0.163 HD
BRANCH   4   7
ATOM      7  C9  non d ame     -36.148  16.780  27.588  0.00  0.00     0.092 C 
ATOM      8  H11 non d ame     -35.683  16.502  28.533  0.00  0.00     0.088 H 
BRANCH   7   9
ATOM      9  N3  non d ame     -35.069  17.155  26.668  0.00  0.00    -0.346 N 
ATOM     10  C7  non d ame     -33.784  17.551  27.189  0.00  0.00     0.240 C 
ATOM     11  O3  non d ame     -33.600  17.573  28.345  0.00  0.00    -0.271 OA
ATOM     12  H10 non d ame     -35.214  17.142  25.669  0.00  0.00     0.163 HD
BRANCH  10  13
ATOM     13  C6  non d ame     -32.641  17.952  26.206  0.00  0.00     0.086 C 
ATOM     14  H6  non d ame     -31.703  18.171  26.717  0.00  0.00     0.086 H 
BRANCH  13  15
ATOM     15  N2  non d ame     -32.376  16.839  25.310  0.00  0.00    -0.343 N 
ATOM     16  C5  non d ame     -31.555  15.719  25.774  0.00  0.00     0.273 C 
ATOM     17  O2  non d ame     -31.108  15.724  26.868  0.00  0.00    -0.266 OA
ATOM     18  H5  non d ame     -32.759  16.844  24.375  0.00  0.00     0.163 HD
BRANCH  16  19
ATOM     19  C4  non d ame     -31.268  14.535  24.837  0.00  0.00     0.154 A 
ATOM     20  C1  non d ame     -31.428  13.143  25.128  0.00  0.00    -0.017 A 
ATOM     21  C2  non d ame     -31.033  12.477  23.946  0.00  0.00     0.077 A 
ATOM     22  H1  non d ame     -31.779  12.687  26.053  0.00  0.00     0.091 H 
ATOM     23  O1  non d ame     -30.689  13.388  23.084  0.00  0.00    -0.218 OA
ATOM     24  N1  non d ame     -30.817  14.597  23.581  0.00  0.00    -0.123 NA
BRANCH  21  25
ATOM     25  C3  non d ame     -31.015  10.971  23.723  0.00  0.00    -0.029 C 
ATOM     26  H2  non d ame     -31.005  10.461  24.686  0.00  0.00     0.036 H 
ATOM     27  H3  non d ame     -31.904  10.675  23.166  0.00  0.00     0.036 H 
ATOM     28  H4  non d ame     -30.125  10.697  23.158  0.00  0.00     0.036 H 
ENDBRANCH  21  25
ENDBRANCH  16  19
ENDBRANCH  13  15
BRANCH  13  29
ATOM     29  C8  non d ame     -33.058  19.165  25.414  0.00  0.00    -0.049 C 
ATOM     30  H7  non d ame     -32.347  19.334  24.606  0.00  0.00     0.030 H 
ATOM     31  H8  non d ame     -34.051  19.002  24.996  0.00  0.00     0.030 H 
ATOM     32  H9  non d ame     -33.077  20.037  26.069  0.00  0.00     0.030 H 
ENDBRANCH  13  29
ENDBRANCH  10  13
ENDBRANCH   7   9
BRANCH   7  33
ATOM     33  C11 non d ame     -37.130  17.978  27.746  0.00  0.00    -0.033 C 
ATOM     34  H12 non d ame     -38.144  17.581  27.693  0.00  0.00     0.042 H 
BRANCH  33  35
ATOM     35  C12 non d ame     -36.967  18.665  29.138  0.00  0.00    -0.071 C 
ATOM     36  H13 non d ame     -37.254  19.714  29.062  0.00  0.00     0.028 H 
ATOM     37  H14 non d ame     -37.605  18.166  29.867  0.00  0.00     0.028 H 
ATOM     38  H15 non d ame     -35.927  18.597  29.458  0.00  0.00     0.028 H 
ENDBRANCH  33  35
BRANCH  33  39
ATOM     39  C13 non d ame     -36.952  19.005  26.583  0.00  0.00    -0.071 C 
ATOM     40  H16 non d ame     -36.808  18.470  25.644  0.00  0.00     0.028 H 
ATOM     41  H17 non d ame     -37.841  19.633  26.512  0.00  0.00     0.028 H 
ATOM     42  H18 non d ame     -36.082  19.631  26.781  0.00  0.00     0.028 H 
ENDBRANCH  33  39
ENDBRANCH   7  33
ENDBRANCH   4   7
ENDBRANCH   1   3
BRANCH   1  43
ATOM     43  C15 non d ame     -36.224  11.856  26.862  0.00  0.00     0.240 C 
ATOM     44  O5  non d ame     -36.650  10.789  26.560  0.00  0.00    -0.271 OA
ATOM     45  N6  non d ame     -35.076  11.955  27.808  0.00  0.00    -0.355 N 
ATOM     46  H46 non d ame     -34.702  12.857  28.069  0.00  0.00     0.162 HD
BRANCH  45  47
ATOM     47  C20 non d ame     -34.483  10.723  28.372  0.00  0.00     0.013 C 
ATOM     48  H30 non d ame     -34.496   9.960  27.594  0.00  0.00     0.072 H 
BRANCH  47  49
ATOM     49  C21 non d ame     -35.305  10.269  29.557  0.00  0.00    -0.038 C 
ATOM     50  H31 non d ame     -34.804  10.676  30.436  0.00  0.00     0.036 H 
ATOM     51  H32 non d ame     -36.331  10.559  29.332  0.00  0.00     0.036 H 
BRANCH  49  52
ATOM     52  C22 non d ame     -35.311   8.734  29.729  0.00  0.00     0.018 C 
ATOM     53  H33 non d ame     -36.344   8.425  29.573  0.00  0.00     0.048 H 
ATOM     54  H34 non d ame     -34.524   8.361  29.073  0.00  0.00     0.048 H 
BRANCH  52  55
ATOM     55  C23 non d ame     -34.935   8.263  31.161  0.00  0.00     0.259 C 
ATOM     56  O7  non d ame     -34.065   8.805  31.765  0.00  0.00    -0.265 OA
BRANCH  55  57
ATOM     57  O8  non d ame     -35.632   7.166  31.740  0.00  0.00    -0.317 OA
BRANCH  57  58
ATOM     58  C29 non d ame     -35.940   6.119  30.816  0.00  0.00     0.052 C 
ATOM     59  H47 non d ame     -36.713   5.520  31.297  0.00  0.00     0.082 H 
ATOM     60  H48 non d ame     -36.145   6.613  29.867  0.00  0.00     0.082 H 
BRANCH  58  61
ATOM     61  C35 non d ame     -34.671   5.241  30.647  0.00  0.00    -0.034 A 
ATOM     62  C30 non d ame     -34.137   5.027  29.380  0.00  0.00    -0.075 A 
ATOM     63  C31 non d ame     -32.997   4.238  29.228  0.00  0.00    -0.082 A 
ATOM     64  H49 non d ame     -34.610   5.476  28.507  0.00  0.00     0.084 H 
ATOM     65  C32 non d ame     -32.393   3.661  30.348  0.00  0.00    -0.083 A 
ATOM     66  H50 non d ame     -32.579   4.073  28.234  0.00  0.00     0.083 H 
ATOM     67  C33 non d ame     -32.933   3.874  31.609  0.00  0.00    -0.082 A 
ATOM     68  H51 non d ame     -31.501   3.043  30.238  0.00  0.00     0.083 H 
ATOM     69  C34 non d ame     -34.070   4.663  31.766  0.00  0.00    -0.075 A 
ATOM     70  H52 non d ame     -32.461   3.420  32.481  0.00  0.00     0.083 H 
ATOM     71  H53 non d ame     -34.487   4.828  32.760  0.00  0.00     0.084 H 
ENDBRANCH  58  61
ENDBRANCH  57  58
ENDBRANCH  55  57
ENDBRANCH  52  55
ENDBRANCH  49  52
ENDBRANCH  47  49
BRANCH  47  72
ATOM     72  C24 non d ame     -33.049  10.999  28.820  0.00  0.00    -0.039 C 
ATOM     73  H35 non d ame     -32.775  10.153  29.451  0.00  0.00     0.036 H 
ATOM     74  H36 non d ame     -32.492  11.198  27.904  0.00  0.00     0.036 H 
BRANCH  72  75
ATOM     75  C25 non d ame     -32.954  12.316  29.727  0.00  0.00    -0.001 C 
ATOM     76  C26 non d ame     -32.013  13.441  28.984  0.00  0.00    -0.035 C 
ATOM     77  C27 non d ame     -31.071  13.869  29.858  0.00  0.00     0.085 C 
ATOM     78  H38 non d ame     -31.431  12.976  28.189  0.00  0.00     0.036 H 
ATOM     79  H39 non d ame     -32.596  14.339  28.778  0.00  0.00     0.036 H 
ATOM     80  N5  non d ame     -31.078  12.904  31.020  0.00  0.00    -0.049 N 
ATOM     81  H40 non d ame     -30.122  13.782  29.329  0.00  0.00     0.075 H 
ATOM     82  H41 non d ame     -31.415  14.842  30.203  0.00  0.00     0.075 H 
ATOM     83  C28 non d ame     -32.441  12.051  30.882  0.00  0.00     0.193 C 
ATOM     84  H42 non d ame     -30.294  12.282  30.880  0.00  0.00     0.280 HD
ATOM     85  H43 non d ame     -31.133  13.467  31.857  0.00  0.00     0.280 HD
ATOM     86  H44 non d ame     -33.293  12.262  31.529  0.00  0.00     0.129 H 
ATOM     87  H37 non d ame     -33.931  12.643  30.083  0.00  0.00     0.046 H 
BRANCH  83  88
ATOM     88  O6  non d ame     -32.171  10.658  31.046  0.00  0.00    -0.369 OA
ATOM     89  H45 non d ame     -31.975  10.476  31.968  0.00  0.00     0.212 HD
ENDBRANCH  83  88
ENDBRANCH  72  75
ENDBRANCH  47  72
ENDBRANCH  45  47
ENDBRANCH   1  43
BRANCH   1  90
ATOM     90  C16 non d ame     -36.714  13.123  24.746  0.00  0.00    -0.035 C 
ATOM     91  H21 non d ame     -36.224  14.062  24.492  0.00  0.00     0.037 H 
ATOM     92  H22 non d ame     -36.229  12.174  24.515  0.00  0.00     0.037 H 
BRANCH  90  93
ATOM     93  C17 non d ame     -38.078  13.118  23.986  0.00  0.00    -0.059 C 
ATOM     94  H23 non d ame     -38.870  13.027  24.729  0.00  0.00     0.038 H 
BRANCH  93  95
ATOM     95  C18 non d ame     -38.318  14.444  23.196  0.00  0.00    -0.073 C 
ATOM     96  H24 non d ame     -39.388  14.592  23.050  0.00  0.00     0.028 H 
ATOM     97  H25 non d ame     -37.910  15.282  23.760  0.00  0.00     0.028 H 
ATOM     98  H26 non d ame     -37.824  14.383  22.226  0.00  0.00     0.028 H 
ENDBRANCH  93  95
BRANCH  93  99
ATOM     99  C19 non d ame     -38.183  11.905  23.057  0.00  0.00    -0.073 C 
ATOM    100  H27 non d ame     -37.769  11.028  23.558  0.00  0.00     0.028 H 
ATOM    101  H28 non d ame     -39.230  11.722  22.813  0.00  0.00     0.028 H 
ATOM    102  H29 non d ame     -37.625  12.098  22.142  0.00  0.00     0.028 H 
ENDBRANCH  93  99
ENDBRANCH  90  93
ENDBRANCH   1  90
TORSDOF 26
ENDMDL
MODEL 15
REMARK VINA RESULT:      -6.9      2.603     10.239
REMARK  26 active torsions:
REMARK  status: ('A' for Active; 'I' for Inactive)
REMARK    1  A    between atoms: C2_2  and  C3_3 
REMARK    2  A    between atoms: C4_6  and  C5_7 
REMARK       I    between atoms: C5_7  and  N2_9 
REMARK    3  A    between atoms: N2_9  and  C6_10 
REMARK    4  A    between atoms: C6_10  and  C7_11 
REMARK    5  A    between atoms: C6_10  and  C8_13 
REMARK       I    between atoms: C7_11  and  N3_14 
REMARK    6  A    between atoms: N3_14  and  C9_15 
REMARK    7  A    between atoms: C9_15  and  C10_16 
REMARK    8  A    between atoms: C9_15  and  C11_18 
REMARK       I    between atoms: C10_16  and  N4_21 
REMARK    9  A    between atoms: C11_18  and  C12_19 
REMARK   10  A    between atoms: C11_18  and  C13_20 
REMARK   11  A    between atoms: N4_21  and  C14_22 
REMARK   12  A    between atoms: C14_22  and  C15_23 
REMARK   13  A    between atoms: C14_22  and  C16_25 
REMARK       I    between atoms: C15_23  and  N6_40 
REMARK   14  A    between atoms: C16_25  and  C17_26 
REMARK   15  A    between atoms: C17_26  and  C18_27 
REMARK   16  A    between atoms: C17_26  and  C19_28 
REMARK   17  A    between atoms: C20_29  and  C21_30 
REMARK   18  A    between atoms: C20_29  and  C24_33 
REMARK   19  A    between atoms: C20_29  and  N6_40 
REMARK   20  A    between atoms: C21_30  and  C22_31 
REMARK   21  A    between atoms: C22_31  and  C23_32 
REMARK   22  A    between atoms: C23_32  and  O8_43 
REMARK   23  A    between atoms: C24_33  and  C25_34 
REMARK   24  A    between atoms: C28_38  and  O6_39 
REMARK   25  A    between atoms: C29_42  and  O8_43 
REMARK   26  A    between atoms: C29_42  and  C35_49 
ROOT
ATOM      1  C14 non d ame     -36.093  10.281  26.031  0.00  0.00     0.089 C 
ATOM      2  H20 non d ame     -36.809   9.460  25.995  0.00  0.00     0.087 H 
ENDROOT
BRANCH   1   3
ATOM      3  N4  non d ame     -35.755  10.506  27.428  0.00  0.00    -0.346 N 
ATOM      4  C10 non d ame     -35.938   9.407  28.443  0.00  0.00     0.241 C 
ATOM      5  O4  non d ame     -36.361   8.348  28.113  0.00  0.00    -0.271 OA
ATOM      6  H19 non d ame     -35.399  11.414  27.690  0.00  0.00     0.163 HD
BRANCH   4   7
ATOM      7  C9  non d ame     -35.578   9.656  29.885  0.00  0.00     0.092 C 
ATOM      8  H11 non d ame     -35.070   8.778  30.284  0.00  0.00     0.088 H 
BRANCH   7   9
ATOM      9  N3  non d ame     -34.637  10.777  29.967  0.00  0.00    -0.346 N 
ATOM     10  C7  non d ame     -33.285  10.619  29.493  0.00  0.00     0.240 C 
ATOM     11  O3  non d ame     -32.936   9.596  29.042  0.00  0.00    -0.271 OA
ATOM     12  H10 non d ame     -34.923  11.664  30.355  0.00  0.00     0.163 HD
BRANCH  10  13
ATOM     13  C6  non d ame     -32.286  11.814  29.586  0.00  0.00     0.086 C 
ATOM     14  H6  non d ame     -31.445  11.715  28.901  0.00  0.00     0.086 H 
BRANCH  13  15
ATOM     15  N2  non d ame     -32.980  13.038  29.219  0.00  0.00    -0.343 N 
ATOM     16  C5  non d ame     -32.208  14.255  28.961  0.00  0.00     0.273 C 
ATOM     17  O2  non d ame     -31.030  14.241  29.054  0.00  0.00    -0.266 OA
ATOM     18  H5  non d ame     -33.987  13.041  29.145  0.00  0.00     0.163 HD
BRANCH  16  19
ATOM     19  C4  non d ame     -32.929  15.555  28.571  0.00  0.00     0.154 A 
ATOM     20  C1  non d ame     -34.123  15.682  27.795  0.00  0.00    -0.017 A 
ATOM     21  C2  non d ame     -34.365  17.072  27.725  0.00  0.00     0.077 A 
ATOM     22  H1  non d ame     -34.723  14.888  27.350  0.00  0.00     0.091 H 
ATOM     23  O1  non d ame     -33.416  17.665  28.388  0.00  0.00    -0.218 OA
ATOM     24  N1  non d ame     -32.565  16.800  28.891  0.00  0.00    -0.123 NA
BRANCH  21  25
ATOM     25  C3  non d ame     -35.524  17.751  27.008  0.00  0.00    -0.029 C 
ATOM     26  H2  non d ame     -35.561  18.803  27.290  0.00  0.00     0.036 H 
ATOM     27  H3  non d ame     -35.382  17.671  25.930  0.00  0.00     0.036 H 
ATOM     28  H4  non d ame     -36.459  17.267  27.287  0.00  0.00     0.036 H 
ENDBRANCH  21  25
ENDBRANCH  16  19
ENDBRANCH  13  15
BRANCH  13  29
ATOM     29  C8  non d ame     -31.758  11.922  30.994  0.00  0.00    -0.049 C 
ATOM     30  H7  non d ame     -31.396  10.948  31.323  0.00  0.00     0.030 H 
ATOM     31  H8  non d ame     -30.939  12.640  31.021  0.00  0.00     0.030 H 
ATOM     32  H9  non d ame     -32.556  12.256  31.658  0.00  0.00     0.030 H 
ENDBRANCH  13  29
ENDBRANCH  10  13
ENDBRANCH   7   9
BRANCH   7  33
ATOM     33  C11 non d ame     -36.867  10.004  30.687  0.00  0.00    -0.033 C 
ATOM     34  H12 non d ame     -36.594  10.740  31.443  0.00  0.00     0.042 H 
BRANCH  33  35
ATOM     35  C12 non d ame     -37.949  10.652  29.769  0.00  0.00    -0.071 C 
ATOM     36  H13 non d ame     -37.602  10.644  28.736  0.00  0.00     0.028 H 
ATOM     37  H14 non d ame     -38.877  10.087  29.845  0.00  0.00     0.028 H 
ATOM     38  H15 non d ame     -38.123  11.682  30.083  0.00  0.00     0.028 H 
ENDBRANCH  33  35
BRANCH  33  39
ATOM     39  C13 non d ame     -37.426   8.743  31.420  0.00  0.00    -0.071 C 
ATOM     40  H16 non d ame     -36.762   8.475  32.242  0.00  0.00     0.028 H 
ATOM     41  H17 non d ame     -38.421   8.961  31.812  0.00  0.00     0.028 H 
ATOM     42  H18 non d ame     -37.489   7.912  30.718  0.00  0.00     0.028 H 
ENDBRANCH  33  39
ENDBRANCH   7  33
ENDBRANCH   4   7
ENDBRANCH   1   3
BRANCH   1  43
ATOM     43  C15 non d ame     -34.786   9.954  25.252  0.00  0.00     0.240 C 
ATOM     44  O5  non d ame     -34.817   9.839  24.069  0.00  0.00    -0.271 OA
ATOM     45  N6  non d ame     -33.495   9.794  25.979  0.00  0.00    -0.355 N 
ATOM     46  H46 non d ame     -33.456   9.894  26.983  0.00  0.00     0.162 HD
BRANCH  45  47
ATOM     47  C20 non d ame     -32.262   9.484  25.223  0.00  0.00     0.013 C 
ATOM     48  H30 non d ame     -31.465   9.302  25.944  0.00  0.00     0.072 H 
BRANCH  47  49
ATOM     49  C21 non d ame     -31.906  10.660  24.343  0.00  0.00    -0.038 C 
ATOM     50  H31 non d ame     -31.317  10.247  23.524  0.00  0.00     0.036 H 
ATOM     51  H32 non d ame     -32.849  11.167  24.135  0.00  0.00     0.036 H 
BRANCH  49  52
ATOM     52  C22 non d ame     -31.003  11.691  25.055  0.00  0.00     0.018 C 
ATOM     53  H33 non d ame     -30.598  11.176  25.925  0.00  0.00     0.048 H 
ATOM     54  H34 non d ame     -30.333  12.076  24.287  0.00  0.00     0.048 H 
BRANCH  52  55
ATOM     55  C23 non d ame     -31.774  12.922  25.606  0.00  0.00     0.259 C 
ATOM     56  O7  non d ame     -32.902  12.816  25.966  0.00  0.00    -0.265 OA
BRANCH  55  57
ATOM     57  O8  non d ame     -31.121  14.185  25.664  0.00  0.00    -0.317 OA
BRANCH  57  58
ATOM     58  C29 non d ame     -31.726  15.192  24.848  0.00  0.00     0.052 C 
ATOM     59  H47 non d ame     -32.704  14.800  24.572  0.00  0.00     0.082 H 
ATOM     60  H48 non d ame     -31.650  16.118  25.416  0.00  0.00     0.082 H 
BRANCH  58  61
ATOM     61  C35 non d ame     -30.874  15.338  23.558  0.00  0.00    -0.034 A 
ATOM     62  C30 non d ame     -29.545  14.924  23.551  0.00  0.00    -0.075 A 
ATOM     63  C31 non d ame     -28.779  15.055  22.394  0.00  0.00    -0.082 A 
ATOM     64  H49 non d ame     -29.103  14.497  24.452  0.00  0.00     0.084 H 
ATOM     65  C32 non d ame     -29.346  15.605  21.240  0.00  0.00    -0.083 A 
ATOM     66  H50 non d ame     -27.739  14.728  22.390  0.00  0.00     0.083 H 
ATOM     67  C33 non d ame     -30.671  16.020  21.254  0.00  0.00    -0.082 A 
ATOM     68  H51 non d ame     -28.754  15.710  20.331  0.00  0.00     0.083 H 
ATOM     69  C34 non d ame     -31.440  15.889  22.408  0.00  0.00    -0.075 A 
ATOM     70  H52 non d ame     -31.109  16.451  20.353  0.00  0.00     0.083 H 
ATOM     71  H53 non d ame     -32.480  16.216  22.410  0.00  0.00     0.084 H 
ENDBRANCH  58  61
ENDBRANCH  57  58
ENDBRANCH  55  57
ENDBRANCH  52  55
ENDBRANCH  49  52
ENDBRANCH  47  49
BRANCH  47  72
ATOM     72  C24 non d ame     -32.485   8.246  24.357  0.00  0.00    -0.039 C 
ATOM     73  H35 non d ame     -32.065   7.415  24.925  0.00  0.00     0.036 H 
ATOM     74  H36 non d ame     -33.546   8.254  24.108  0.00  0.00     0.036 H 
BRANCH  72  75
ATOM     75  C25 non d ame     -31.675   8.334  22.978  0.00  0.00    -0.001 C 
ATOM     76  C26 non d ame     -32.704   8.133  21.711  0.00  0.00    -0.035 C 
ATOM     77  C27 non d ame     -32.207   7.174  20.893  0.00  0.00     0.085 C 
ATOM     78  H38 non d ame     -33.646   7.709  22.057  0.00  0.00     0.036 H 
ATOM     79  H39 non d ame     -32.706   9.025  21.084  0.00  0.00     0.036 H 
ATOM     80  N5  non d ame     -31.106   6.473  21.653  0.00  0.00    -0.049 N 
ATOM     81  H40 non d ame     -33.029   6.475  20.732  0.00  0.00     0.075 H 
ATOM     82  H41 non d ame     -31.773   7.707  20.049  0.00  0.00     0.075 H 
ATOM     83  C28 non d ame     -30.763   7.422  22.913  0.00  0.00     0.193 C 
ATOM     84  H42 non d ame     -31.500   5.611  21.998  0.00  0.00     0.280 HD
ATOM     85  H43 non d ame     -30.305   6.453  21.038  0.00  0.00     0.280 HD
ATOM     86  H44 non d ame     -29.865   8.041  22.911  0.00  0.00     0.129 H 
ATOM     87  H37 non d ame     -31.010   9.196  22.944  0.00  0.00     0.046 H 
BRANCH  83  88
ATOM     88  O6  non d ame     -30.691   6.646  24.110  0.00  0.00    -0.369 OA
ATOM     89  H45 non d ame     -30.728   5.712  23.888  0.00  0.00     0.212 HD
ENDBRANCH  83  88
ENDBRANCH  72  75
ENDBRANCH  47  72
ENDBRANCH  45  47
ENDBRANCH   1  43
BRANCH   1  90
ATOM     90  C16 non d ame     -36.725  11.541  25.462  0.00  0.00    -0.035 C 
ATOM     91  H21 non d ame     -35.905  12.094  25.006  0.00  0.00     0.037 H 
ATOM     92  H22 non d ame     -37.558  11.195  24.851  0.00  0.00     0.037 H 
BRANCH  90  93
ATOM     93  C17 non d ame     -37.336  12.480  26.551  0.00  0.00    -0.059 C 
ATOM     94  H23 non d ame     -36.895  12.206  27.509  0.00  0.00     0.038 H 
BRANCH  93  95
ATOM     95  C18 non d ame     -37.004  13.983  26.287  0.00  0.00    -0.073 C 
ATOM     96  H24 non d ame     -36.077  14.247  26.796  0.00  0.00     0.028 H 
ATOM     97  H25 non d ame     -36.887  14.147  25.215  0.00  0.00     0.028 H 
ATOM     98  H26 non d ame     -37.815  14.607  26.663  0.00  0.00     0.028 H 
ENDBRANCH  93  95
BRANCH  93  99
ATOM     99  C19 non d ame     -38.848  12.269  26.669  0.00  0.00    -0.073 C 
ATOM    100  H27 non d ame     -39.140  12.316  27.719  0.00  0.00     0.028 H 
ATOM    101  H28 non d ame     -39.369  13.049  26.113  0.00  0.00     0.028 H 
ATOM    102  H29 non d ame     -39.112  11.294  26.261  0.00  0.00     0.028 H 
ENDBRANCH  93  99
ENDBRANCH  90  93
ENDBRANCH   1  90
TORSDOF 26
ENDMDL
MODEL 16
REMARK VINA RESULT:      -6.9      3.676     10.423
REMARK  26 active torsions:
REMARK  status: ('A' for Active; 'I' for Inactive)
REMARK    1  A    between atoms: C2_2  and  C3_3 
REMARK    2  A    between atoms: C4_6  and  C5_7 
REMARK       I    between atoms: C5_7  and  N2_9 
REMARK    3  A    between atoms: N2_9  and  C6_10 
REMARK    4  A    between atoms: C6_10  and  C7_11 
REMARK    5  A    between atoms: C6_10  and  C8_13 
REMARK       I    between atoms: C7_11  and  N3_14 
REMARK    6  A    between atoms: N3_14  and  C9_15 
REMARK    7  A    between atoms: C9_15  and  C10_16 
REMARK    8  A    between atoms: C9_15  and  C11_18 
REMARK       I    between atoms: C10_16  and  N4_21 
REMARK    9  A    between atoms: C11_18  and  C12_19 
REMARK   10  A    between atoms: C11_18  and  C13_20 
REMARK   11  A    between atoms: N4_21  and  C14_22 
REMARK   12  A    between atoms: C14_22  and  C15_23 
REMARK   13  A    between atoms: C14_22  and  C16_25 
REMARK       I    between atoms: C15_23  and  N6_40 
REMARK   14  A    between atoms: C16_25  and  C17_26 
REMARK   15  A    between atoms: C17_26  and  C18_27 
REMARK   16  A    between atoms: C17_26  and  C19_28 
REMARK   17  A    between atoms: C20_29  and  C21_30 
REMARK   18  A    between atoms: C20_29  and  C24_33 
REMARK   19  A    between atoms: C20_29  and  N6_40 
REMARK   20  A    between atoms: C21_30  and  C22_31 
REMARK   21  A    between atoms: C22_31  and  C23_32 
REMARK   22  A    between atoms: C23_32  and  O8_43 
REMARK   23  A    between atoms: C24_33  and  C25_34 
REMARK   24  A    between atoms: C28_38  and  O6_39 
REMARK   25  A    between atoms: C29_42  and  O8_43 
REMARK   26  A    between atoms: C29_42  and  C35_49 
ROOT
ATOM      1  C14 non d ame     -34.882   8.588  31.189  0.00  0.00     0.089 C 
ATOM      2  H20 non d ame     -34.068   8.930  31.829  0.00  0.00     0.087 H 
ENDROOT
BRANCH   1   3
ATOM      3  N4  non d ame     -34.828   9.364  29.959  0.00  0.00    -0.346 N 
ATOM      4  C10 non d ame     -33.627  10.222  29.652  0.00  0.00     0.241 C 
ATOM      5  O4  non d ame     -32.716  10.274  30.411  0.00  0.00    -0.271 OA
ATOM      6  H19 non d ame     -35.614   9.308  29.328  0.00  0.00     0.163 HD
BRANCH   4   7
ATOM      7  C9  non d ame     -33.585  11.015  28.372  0.00  0.00     0.092 C 
ATOM      8  H11 non d ame     -34.420  11.715  28.357  0.00  0.00     0.088 H 
BRANCH   7   9
ATOM      9  N3  non d ame     -32.353  11.809  28.329  0.00  0.00    -0.346 N 
ATOM     10  C7  non d ame     -32.425  13.249  28.289  0.00  0.00     0.240 C 
ATOM     11  O3  non d ame     -33.466  13.785  28.291  0.00  0.00    -0.271 OA
ATOM     12  H10 non d ame     -31.449  11.360  28.325  0.00  0.00     0.163 HD
BRANCH  10  13
ATOM     13  C6  non d ame     -31.111  14.088  28.240  0.00  0.00     0.086 C 
ATOM     14  H6  non d ame     -30.214  13.470  28.274  0.00  0.00     0.086 H 
BRANCH  13  15
ATOM     15  N2  non d ame     -31.064  14.819  26.984  0.00  0.00    -0.343 N 
ATOM     16  C5  non d ame     -31.055  14.080  25.720  0.00  0.00     0.273 C 
ATOM     17  O2  non d ame     -31.082  12.898  25.723  0.00  0.00    -0.266 OA
ATOM     18  H5  non d ame     -31.038  15.828  26.990  0.00  0.00     0.163 HD
BRANCH  16  19
ATOM     19  C4  non d ame     -31.007  14.840  24.385  0.00  0.00     0.154 A 
ATOM     20  C1  non d ame     -30.202  14.531  23.243  0.00  0.00    -0.017 A 
ATOM     21  C2  non d ame     -30.526  15.523  22.291  0.00  0.00     0.077 A 
ATOM     22  H1  non d ame     -29.492  13.712  23.123  0.00  0.00     0.091 H 
ATOM     23  O1  non d ame     -31.414  16.304  22.832  0.00  0.00    -0.218 OA
ATOM     24  N1  non d ame     -31.711  15.925  24.054  0.00  0.00    -0.123 NA
BRANCH  21  25
ATOM     25  C3  non d ame     -29.944  15.653  20.890  0.00  0.00    -0.029 C 
ATOM     26  H2  non d ame     -30.741  15.889  20.186  0.00  0.00     0.036 H 
ATOM     27  H3  non d ame     -29.202  16.451  20.877  0.00  0.00     0.036 H 
ATOM     28  H4  non d ame     -29.472  14.714  20.603  0.00  0.00     0.036 H 
ENDBRANCH  21  25
ENDBRANCH  16  19
ENDBRANCH  13  15
BRANCH  13  29
ATOM     29  C8  non d ame     -31.083  15.052  29.399  0.00  0.00    -0.049 C 
ATOM     30  H7  non d ame     -32.038  15.571  29.464  0.00  0.00     0.030 H 
ATOM     31  H8  non d ame     -30.906  14.503  30.324  0.00  0.00     0.030 H 
ATOM     32  H9  non d ame     -30.284  15.778  29.248  0.00  0.00     0.030 H 
ENDBRANCH  13  29
ENDBRANCH  10  13
ENDBRANCH   7   9
BRANCH   7  33
ATOM     33  C11 non d ame     -33.614  10.041  27.158  0.00  0.00    -0.033 C 
ATOM     34  H12 non d ame     -33.339  10.612  26.272  0.00  0.00     0.042 H 
BRANCH  33  35
ATOM     35  C12 non d ame     -32.565   8.897  27.323  0.00  0.00    -0.071 C 
ATOM     36  H13 non d ame     -32.895   8.211  28.103  0.00  0.00     0.028 H 
ATOM     37  H14 non d ame     -32.464   8.357  26.383  0.00  0.00     0.028 H 
ATOM     38  H15 non d ame     -31.602   9.325  27.602  0.00  0.00     0.028 H 
ENDBRANCH  33  35
BRANCH  33  39
ATOM     39  C13 non d ame     -35.049   9.466  26.936  0.00  0.00    -0.071 C 
ATOM     40  H16 non d ame     -35.107   8.462  27.357  0.00  0.00     0.028 H 
ATOM     41  H17 non d ame     -35.779  10.110  27.427  0.00  0.00     0.028 H 
ATOM     42  H18 non d ame     -35.263   9.424  25.868  0.00  0.00     0.028 H 
ENDBRANCH  33  39
ENDBRANCH   7  33
ENDBRANCH   4   7
ENDBRANCH   1   3
BRANCH   1  43
ATOM     43  C15 non d ame     -34.752   7.080  30.829  0.00  0.00     0.240 C 
ATOM     44  O5  non d ame     -34.908   6.256  31.671  0.00  0.00    -0.271 OA
ATOM     45  N6  non d ame     -34.441   6.662  29.432  0.00  0.00    -0.355 N 
ATOM     46  H46 non d ame     -34.311   7.354  28.707  0.00  0.00     0.162 HD
BRANCH  45  47
ATOM     47  C20 non d ame     -34.322   5.225  29.107  0.00  0.00     0.013 C 
ATOM     48  H30 non d ame     -34.266   4.673  30.045  0.00  0.00     0.072 H 
BRANCH  47  49
ATOM     49  C21 non d ame     -33.065   4.998  28.297  0.00  0.00    -0.038 C 
ATOM     50  H31 non d ame     -32.564   5.966  28.254  0.00  0.00     0.036 H 
ATOM     51  H32 non d ame     -32.566   4.147  28.761  0.00  0.00     0.036 H 
BRANCH  49  52
ATOM     52  C22 non d ame     -33.358   4.591  26.837  0.00  0.00     0.018 C 
ATOM     53  H33 non d ame     -32.599   3.854  26.579  0.00  0.00     0.048 H 
ATOM     54  H34 non d ame     -34.413   4.319  26.813  0.00  0.00     0.048 H 
BRANCH  52  55
ATOM     55  C23 non d ame     -33.191   5.752  25.818  0.00  0.00     0.259 C 
ATOM     56  O7  non d ame     -34.135   6.381  25.461  0.00  0.00    -0.265 OA
BRANCH  55  57
ATOM     57  O8  non d ame     -31.898   6.048  25.303  0.00  0.00    -0.317 OA
BRANCH  57  58
ATOM     58  C29 non d ame     -31.838   6.101  23.875  0.00  0.00     0.052 C 
ATOM     59  H47 non d ame     -31.111   5.344  23.582  0.00  0.00     0.082 H 
ATOM     60  H48 non d ame     -32.870   6.028  23.532  0.00  0.00     0.082 H 
BRANCH  58  61
ATOM     61  C35 non d ame     -31.286   7.495  23.471  0.00  0.00    -0.034 A 
ATOM     62  C30 non d ame     -31.992   8.646  23.806  0.00  0.00    -0.075 A 
ATOM     63  C31 non d ame     -31.497   9.898  23.443  0.00  0.00    -0.082 A 
ATOM     64  H49 non d ame     -32.933   8.568  24.351  0.00  0.00     0.084 H 
ATOM     65  C32 non d ame     -30.293   9.996  22.741  0.00  0.00    -0.083 A 
ATOM     66  H50 non d ame     -32.052  10.799  23.709  0.00  0.00     0.083 H 
ATOM     67  C33 non d ame     -29.595   8.844  22.406  0.00  0.00    -0.082 A 
ATOM     68  H51 non d ame     -29.898  10.971  22.454  0.00  0.00     0.083 H 
ATOM     69  C34 non d ame     -30.085   7.591  22.768  0.00  0.00    -0.075 A 
ATOM     70  H52 non d ame     -28.656   8.923  21.856  0.00  0.00     0.083 H 
ATOM     71  H53 non d ame     -29.530   6.691  22.503  0.00  0.00     0.084 H 
ENDBRANCH  58  61
ENDBRANCH  57  58
ENDBRANCH  55  57
ENDBRANCH  52  55
ENDBRANCH  49  52
ENDBRANCH  47  49
BRANCH  47  72
ATOM     72  C24 non d ame     -35.537   4.776  28.298  0.00  0.00    -0.039 C 
ATOM     73  H35 non d ame     -35.238   4.861  27.253  0.00  0.00     0.036 H 
ATOM     74  H36 non d ame     -35.815   3.804  28.708  0.00  0.00     0.036 H 
BRANCH  72  75
ATOM     75  C25 non d ame     -36.787   5.754  28.514  0.00  0.00    -0.001 C 
ATOM     76  C26 non d ame     -37.874   5.059  29.532  0.00  0.00    -0.035 C 
ATOM     77  C27 non d ame     -39.099   5.098  28.956  0.00  0.00     0.085 C 
ATOM     78  H38 non d ame     -37.670   3.992  29.626  0.00  0.00     0.036 H 
ATOM     79  H39 non d ame     -37.993   5.671  30.427  0.00  0.00     0.036 H 
ATOM     80  N5  non d ame     -38.893   5.459  27.504  0.00  0.00    -0.049 N 
ATOM     81  H40 non d ame     -39.483   4.079  29.019  0.00  0.00     0.075 H 
ATOM     82  H41 non d ame     -39.628   5.910  29.452  0.00  0.00     0.075 H 
ATOM     83  C28 non d ame     -37.379   6.009  27.395  0.00  0.00     0.193 C 
ATOM     84  H42 non d ame     -38.960   4.597  26.983  0.00  0.00     0.280 HD
ATOM     85  H43 non d ame     -39.527   6.220  27.307  0.00  0.00     0.280 HD
ATOM     86  H44 non d ame     -37.184   7.078  27.306  0.00  0.00     0.129 H 
ATOM     87  H37 non d ame     -36.478   6.775  28.740  0.00  0.00     0.046 H 
BRANCH  83  88
ATOM     88  O6  non d ame     -36.715   5.405  26.283  0.00  0.00    -0.369 OA
ATOM     89  H45 non d ame     -37.153   4.580  26.058  0.00  0.00     0.212 HD
ENDBRANCH  83  88
ENDBRANCH  72  75
ENDBRANCH  47  72
ENDBRANCH  45  47
ENDBRANCH   1  43
BRANCH   1  90
ATOM     90  C16 non d ame     -36.216   8.836  31.875  0.00  0.00    -0.035 C 
ATOM     91  H21 non d ame     -36.472   7.893  32.356  0.00  0.00     0.037 H 
ATOM     92  H22 non d ame     -36.069   9.733  32.476  0.00  0.00     0.037 H 
BRANCH  90  93
ATOM     93  C17 non d ame     -37.380   9.155  30.883  0.00  0.00    -0.059 C 
ATOM     94  H23 non d ame     -36.996   9.028  29.871  0.00  0.00     0.038 H 
BRANCH  93  95
ATOM     95  C18 non d ame     -38.588   8.181  31.059  0.00  0.00    -0.073 C 
ATOM     96  H24 non d ame     -38.537   7.712  32.042  0.00  0.00     0.028 H 
ATOM     97  H25 non d ame     -39.520   8.740  30.973  0.00  0.00     0.028 H 
ATOM     98  H26 non d ame     -38.552   7.413  30.287  0.00  0.00     0.028 H 
ENDBRANCH  93  95
BRANCH  93  99
ATOM     99  C19 non d ame     -37.831  10.612  31.019  0.00  0.00    -0.073 C 
ATOM    100  H27 non d ame     -38.630  10.813  30.305  0.00  0.00     0.028 H 
ATOM    101  H28 non d ame     -38.196  10.787  32.031  0.00  0.00     0.028 H 
ATOM    102  H29 non d ame     -36.988  11.273  30.818  0.00  0.00     0.028 H 
ENDBRANCH  93  99
ENDBRANCH  90  93
ENDBRANCH   1  90
TORSDOF 26
ENDMDL
MODEL 17
REMARK VINA RESULT:      -6.8      3.499     10.255
REMARK  26 active torsions:
REMARK  status: ('A' for Active; 'I' for Inactive)
REMARK    1  A    between atoms: C2_2  and  C3_3 
REMARK    2  A    between atoms: C4_6  and  C5_7 
REMARK       I    between atoms: C5_7  and  N2_9 
REMARK    3  A    between atoms: N2_9  and  C6_10 
REMARK    4  A    between atoms: C6_10  and  C7_11 
REMARK    5  A    between atoms: C6_10  and  C8_13 
REMARK       I    between atoms: C7_11  and  N3_14 
REMARK    6  A    between atoms: N3_14  and  C9_15 
REMARK    7  A    between atoms: C9_15  and  C10_16 
REMARK    8  A    between atoms: C9_15  and  C11_18 
REMARK       I    between atoms: C10_16  and  N4_21 
REMARK    9  A    between atoms: C11_18  and  C12_19 
REMARK   10  A    between atoms: C11_18  and  C13_20 
REMARK   11  A    between atoms: N4_21  and  C14_22 
REMARK   12  A    between atoms: C14_22  and  C15_23 
REMARK   13  A    between atoms: C14_22  and  C16_25 
REMARK       I    between atoms: C15_23  and  N6_40 
REMARK   14  A    between atoms: C16_25  and  C17_26 
REMARK   15  A    between atoms: C17_26  and  C18_27 
REMARK   16  A    between atoms: C17_26  and  C19_28 
REMARK   17  A    between atoms: C20_29  and  C21_30 
REMARK   18  A    between atoms: C20_29  and  C24_33 
REMARK   19  A    between atoms: C20_29  and  N6_40 
REMARK   20  A    between atoms: C21_30  and  C22_31 
REMARK   21  A    between atoms: C22_31  and  C23_32 
REMARK   22  A    between atoms: C23_32  and  O8_43 
REMARK   23  A    between atoms: C24_33  and  C25_34 
REMARK   24  A    between atoms: C28_38  and  O6_39 
REMARK   25  A    between atoms: C29_42  and  O8_43 
REMARK   26  A    between atoms: C29_42  and  C35_49 
ROOT
ATOM      1  C14 non d ame     -34.477   6.126  26.093  0.00  0.00     0.089 C 
ATOM      2  H20 non d ame     -33.933   5.237  26.412  0.00  0.00     0.087 H 
ENDROOT
BRANCH   1   3
ATOM      3  N4  non d ame     -35.628   6.274  26.972  0.00  0.00    -0.346 N 
ATOM      4  C10 non d ame     -35.854   5.303  28.102  0.00  0.00     0.241 C 
ATOM      5  O4  non d ame     -35.096   4.408  28.285  0.00  0.00    -0.271 OA
ATOM      6  H19 non d ame     -36.262   7.040  26.797  0.00  0.00     0.163 HD
BRANCH   4   7
ATOM      7  C9  non d ame     -37.048   5.474  29.004  0.00  0.00     0.092 C 
ATOM      8  H11 non d ame     -36.957   4.796  29.852  0.00  0.00     0.088 H 
BRANCH   7   9
ATOM      9  N3  non d ame     -37.065   6.838  29.540  0.00  0.00    -0.346 N 
ATOM     10  C7  non d ame     -37.507   7.076  30.892  0.00  0.00     0.240 C 
ATOM     11  O3  non d ame     -37.853   6.181  31.562  0.00  0.00    -0.271 OA
ATOM     12  H10 non d ame     -36.770   7.620  28.973  0.00  0.00     0.163 HD
BRANCH  10  13
ATOM     13  C6  non d ame     -37.526   8.530  31.456  0.00  0.00     0.086 C 
ATOM     14  H6  non d ame     -37.358   8.567  32.533  0.00  0.00     0.086 H 
BRANCH  13  15
ATOM     15  N2  non d ame     -36.449   9.289  30.842  0.00  0.00    -0.343 N 
ATOM     16  C5  non d ame     -35.152   9.377  31.516  0.00  0.00     0.273 C 
ATOM     17  O2  non d ame     -34.985   8.836  32.554  0.00  0.00    -0.266 OA
ATOM     18  H5  non d ame     -36.601   9.750  29.956  0.00  0.00     0.163 HD
BRANCH  16  19
ATOM     19  C4  non d ame     -34.005  10.175  30.876  0.00  0.00     0.154 A 
ATOM     20  C1  non d ame     -33.386  11.359  31.388  0.00  0.00    -0.017 A 
ATOM     21  C2  non d ame     -32.398  11.692  30.434  0.00  0.00     0.077 A 
ATOM     22  H1  non d ame     -33.617  11.893  32.309  0.00  0.00     0.091 H 
ATOM     23  O1  non d ame     -32.451  10.798  29.492  0.00  0.00    -0.218 OA
ATOM     24  N1  non d ame     -33.381   9.902  29.727  0.00  0.00    -0.123 NA
BRANCH  21  25
ATOM     25  C3  non d ame     -31.446  12.879  30.500  0.00  0.00    -0.029 C 
ATOM     26  H2  non d ame     -31.539  13.367  31.470  0.00  0.00     0.036 H 
ATOM     27  H3  non d ame     -30.421  12.531  30.368  0.00  0.00     0.036 H 
ATOM     28  H4  non d ame     -31.693  13.589  29.711  0.00  0.00     0.036 H 
ENDBRANCH  21  25
ENDBRANCH  16  19
ENDBRANCH  13  15
BRANCH  13  29
ATOM     29  C8  non d ame     -38.853   9.174  31.149  0.00  0.00    -0.049 C 
ATOM     30  H7  non d ame     -39.509   9.090  32.015  0.00  0.00     0.030 H 
ATOM     31  H8  non d ame     -38.701  10.227  30.911  0.00  0.00     0.030 H 
ATOM     32  H9  non d ame     -39.312   8.672  30.296  0.00  0.00     0.030 H 
ENDBRANCH  13  29
ENDBRANCH  10  13
ENDBRANCH   7   9
BRANCH   7  33
ATOM     33  C11 non d ame     -38.352   5.224  28.190  0.00  0.00    -0.033 C 
ATOM     34  H12 non d ame     -38.059   4.902  27.191  0.00  0.00     0.042 H 
BRANCH  33  35
ATOM     35  C12 non d ame     -39.203   4.078  28.821  0.00  0.00    -0.071 C 
ATOM     36  H13 non d ame     -40.163   4.478  29.150  0.00  0.00     0.028 H 
ATOM     37  H14 non d ame     -39.370   3.298  28.080  0.00  0.00     0.028 H 
ATOM     38  H15 non d ame     -38.673   3.660  29.677  0.00  0.00     0.028 H 
ENDBRANCH  33  35
BRANCH  33  39
ATOM     39  C13 non d ame     -39.184   6.538  28.050  0.00  0.00    -0.071 C 
ATOM     40  H16 non d ame     -39.695   6.746  28.990  0.00  0.00     0.028 H 
ATOM     41  H17 non d ame     -38.519   7.366  27.806  0.00  0.00     0.028 H 
ATOM     42  H18 non d ame     -39.921   6.419  27.255  0.00  0.00     0.028 H 
ENDBRANCH  33  39
ENDBRANCH   7  33
ENDBRANCH   4   7
ENDBRANCH   1   3
BRANCH   1  43
ATOM     43  C15 non d ame     -33.608   7.413  26.195  0.00  0.00     0.240 C 
ATOM     44  O5  non d ame     -32.791   7.508  27.052  0.00  0.00    -0.271 OA
ATOM     45  N6  non d ame     -33.788   8.523  25.216  0.00  0.00    -0.355 N 
ATOM     46  H46 non d ame     -34.476   8.452  24.480  0.00  0.00     0.162 HD
BRANCH  45  47
ATOM     47  C20 non d ame     -32.954   9.739  25.326  0.00  0.00     0.013 C 
ATOM     48  H30 non d ame     -32.201   9.560  26.093  0.00  0.00     0.072 H 
BRANCH  47  49
ATOM     49  C21 non d ame     -33.825  10.910  25.719  0.00  0.00    -0.038 C 
ATOM     50  H31 non d ame     -34.164  11.353  24.782  0.00  0.00     0.036 H 
ATOM     51  H32 non d ame     -34.552  10.511  26.428  0.00  0.00     0.036 H 
BRANCH  49  52
ATOM     52  C22 non d ame     -33.045  12.013  26.467  0.00  0.00     0.018 C 
ATOM     53  H33 non d ame     -33.294  11.888  27.520  0.00  0.00     0.048 H 
ATOM     54  H34 non d ame     -32.011  11.919  26.136  0.00  0.00     0.048 H 
BRANCH  52  55
ATOM     55  C23 non d ame     -33.486  13.455  26.091  0.00  0.00     0.259 C 
ATOM     56  O7  non d ame     -34.569  13.849  26.380  0.00  0.00    -0.265 OA
BRANCH  55  57
ATOM     57  O8  non d ame     -32.583  14.298  25.385  0.00  0.00    -0.317 OA
BRANCH  57  58
ATOM     58  C29 non d ame     -31.338  13.673  25.057  0.00  0.00     0.052 C 
ATOM     59  H47 non d ame     -30.627  14.022  25.805  0.00  0.00     0.082 H 
ATOM     60  H48 non d ame     -31.556  12.610  24.965  0.00  0.00     0.082 H 
BRANCH  58  61
ATOM     61  C35 non d ame     -30.889  14.202  23.668  0.00  0.00    -0.034 A 
ATOM     62  C30 non d ame     -29.994  13.465  22.899  0.00  0.00    -0.075 A 
ATOM     63  C31 non d ame     -29.590  13.940  21.652  0.00  0.00    -0.082 A 
ATOM     64  H49 non d ame     -29.609  12.516  23.272  0.00  0.00     0.084 H 
ATOM     65  C32 non d ame     -30.083  15.158  21.176  0.00  0.00    -0.083 A 
ATOM     66  H50 non d ame     -28.890  13.358  21.050  0.00  0.00     0.083 H 
ATOM     67  C33 non d ame     -30.972  15.891  21.949  0.00  0.00    -0.082 A 
ATOM     68  H51 non d ame     -29.773  15.536  20.201  0.00  0.00     0.083 H 
ATOM     69  C34 non d ame     -31.380  15.420  23.195  0.00  0.00    -0.075 A 
ATOM     70  H52 non d ame     -31.353  16.843  21.575  0.00  0.00     0.083 H 
ATOM     71  H53 non d ame     -32.080  16.001  23.795  0.00  0.00     0.084 H 
ENDBRANCH  58  61
ENDBRANCH  57  58
ENDBRANCH  55  57
ENDBRANCH  52  55
ENDBRANCH  49  52
ENDBRANCH  47  49
BRANCH  47  72
ATOM     72  C24 non d ame     -32.285  10.028  23.984  0.00  0.00    -0.039 C 
ATOM     73  H35 non d ame     -33.063   9.879  23.234  0.00  0.00     0.036 H 
ATOM     74  H36 non d ame     -31.818  11.007  24.097  0.00  0.00     0.036 H 
BRANCH  72  75
ATOM     75  C25 non d ame     -31.115   8.981  23.667  0.00  0.00    -0.001 C 
ATOM     76  C26 non d ame     -29.768   9.781  23.168  0.00  0.00    -0.035 C 
ATOM     77  C27 non d ame     -29.338   9.232  22.007  0.00  0.00     0.085 C 
ATOM     78  H38 non d ame     -30.021  10.803  22.889  0.00  0.00     0.036 H 
ATOM     79  H39 non d ame     -28.944   9.594  23.858  0.00  0.00     0.036 H 
ATOM     80  N5  non d ame     -30.452   8.349  21.498  0.00  0.00    -0.049 N 
ATOM     81  H40 non d ame     -29.206  10.069  21.321  0.00  0.00     0.075 H 
ATOM     82  H41 non d ame     -28.486   8.610  22.276  0.00  0.00     0.075 H 
ATOM     83  C28 non d ame     -31.467   8.155  22.739  0.00  0.00     0.193 C 
ATOM     84  H42 non d ame     -30.925   8.872  20.776  0.00  0.00     0.280 HD
ATOM     85  H43 non d ame     -30.032   7.456  21.283  0.00  0.00     0.280 HD
ATOM     86  H44 non d ame     -31.480   7.221  23.301  0.00  0.00     0.129 H 
ATOM     87  H37 non d ame     -30.990   8.248  24.463  0.00  0.00     0.046 H 
BRANCH  83  88
ATOM     88  O6  non d ame     -32.814   8.365  22.312  0.00  0.00    -0.369 OA
ATOM     89  H45 non d ame     -33.083   7.644  21.737  0.00  0.00     0.212 HD
ENDBRANCH  83  88
ENDBRANCH  72  75
ENDBRANCH  47  72
ENDBRANCH  45  47
ENDBRANCH   1  43
BRANCH   1  90
ATOM     90  C16 non d ame     -34.962   5.948  24.664  0.00  0.00    -0.035 C 
ATOM     91  H21 non d ame     -35.884   5.376  24.741  0.00  0.00     0.037 H 
ATOM     92  H22 non d ame     -34.976   6.951  24.237  0.00  0.00     0.037 H 
BRANCH  90  93
ATOM     93  C17 non d ame     -33.993   5.104  23.775  0.00  0.00    -0.059 C 
ATOM     94  H23 non d ame     -33.056   5.654  23.694  0.00  0.00     0.038 H 
BRANCH  93  95
ATOM     95  C18 non d ame     -33.675   3.712  24.408  0.00  0.00    -0.073 C 
ATOM     96  H24 non d ame     -32.665   3.720  24.817  0.00  0.00     0.028 H 
ATOM     97  H25 non d ame     -34.387   3.505  25.207  0.00  0.00     0.028 H 
ATOM     98  H26 non d ame     -33.751   2.939  23.644  0.00  0.00     0.028 H 
ENDBRANCH  93  95
BRANCH  93  99
ATOM     99  C19 non d ame     -34.551   4.943  22.358  0.00  0.00    -0.073 C 
ATOM    100  H27 non d ame     -33.766   4.568  21.700  0.00  0.00     0.028 H 
ATOM    101  H28 non d ame     -35.381   4.236  22.372  0.00  0.00     0.028 H 
ATOM    102  H29 non d ame     -34.901   5.908  21.994  0.00  0.00     0.028 H 
ENDBRANCH  93  99
ENDBRANCH  90  93
ENDBRANCH   1  90
TORSDOF 26
ENDMDL
MODEL 18
REMARK VINA RESULT:      -6.8      3.722     10.355
REMARK  26 active torsions:
REMARK  status: ('A' for Active; 'I' for Inactive)
REMARK    1  A    between atoms: C2_2  and  C3_3 
REMARK    2  A    between atoms: C4_6  and  C5_7 
REMARK       I    between atoms: C5_7  and  N2_9 
REMARK    3  A    between atoms: N2_9  and  C6_10 
REMARK    4  A    between atoms: C6_10  and  C7_11 
REMARK    5  A    between atoms: C6_10  and  C8_13 
REMARK       I    between atoms: C7_11  and  N3_14 
REMARK    6  A    between atoms: N3_14  and  C9_15 
REMARK    7  A    between atoms: C9_15  and  C10_16 
REMARK    8  A    between atoms: C9_15  and  C11_18 
REMARK       I    between atoms: C10_16  and  N4_21 
REMARK    9  A    between atoms: C11_18  and  C12_19 
REMARK   10  A    between atoms: C11_18  and  C13_20 
REMARK   11  A    between atoms: N4_21  and  C14_22 
REMARK   12  A    between atoms: C14_22  and  C15_23 
REMARK   13  A    between atoms: C14_22  and  C16_25 
REMARK       I    between atoms: C15_23  and  N6_40 
REMARK   14  A    between atoms: C16_25  and  C17_26 
REMARK   15  A    between atoms: C17_26  and  C18_27 
REMARK   16  A    between atoms: C17_26  and  C19_28 
REMARK   17  A    between atoms: C20_29  and  C21_30 
REMARK   18  A    between atoms: C20_29  and  C24_33 
REMARK   19  A    between atoms: C20_29  and  N6_40 
REMARK   20  A    between atoms: C21_30  and  C22_31 
REMARK   21  A    between atoms: C22_31  and  C23_32 
REMARK   22  A    between atoms: C23_32  and  O8_43 
REMARK   23  A    between atoms: C24_33  and  C25_34 
REMARK   24  A    between atoms: C28_38  and  O6_39 
REMARK   25  A    between atoms: C29_42  and  O8_43 
REMARK   26  A    between atoms: C29_42  and  C35_49 
ROOT
ATOM      1  C14 non d ame     -34.822   8.156  31.510  0.00  0.00     0.089 C 
ATOM      2  H20 non d ame     -34.295   8.144  32.464  0.00  0.00     0.087 H 
ENDROOT
BRANCH   1   3
ATOM      3  N4  non d ame     -34.006   8.904  30.566  0.00  0.00    -0.346 N 
ATOM      4  C10 non d ame     -33.492  10.275  30.923  0.00  0.00     0.241 C 
ATOM      5  O4  non d ame     -33.750  10.758  31.976  0.00  0.00    -0.271 OA
ATOM      6  H19 non d ame     -33.800   8.476  29.674  0.00  0.00     0.163 HD
BRANCH   4   7
ATOM      7  C9  non d ame     -32.644  11.033  29.935  0.00  0.00     0.092 C 
ATOM      8  H11 non d ame     -31.953  10.343  29.451  0.00  0.00     0.088 H 
BRANCH   7   9
ATOM      9  N3  non d ame     -33.500  11.597  28.887  0.00  0.00    -0.346 N 
ATOM     10  C7  non d ame     -33.110  11.489  27.503  0.00  0.00     0.240 C 
ATOM     11  O3  non d ame     -32.110  10.953  27.215  0.00  0.00    -0.271 OA
ATOM     12  H10 non d ame     -34.364  12.064  29.121  0.00  0.00     0.163 HD
BRANCH  10  13
ATOM     13  C6  non d ame     -34.023  12.094  26.392  0.00  0.00     0.086 C 
ATOM     14  H6  non d ame     -34.702  12.856  26.773  0.00  0.00     0.086 H 
BRANCH  13  15
ATOM     15  N2  non d ame     -33.187  12.743  25.396  0.00  0.00    -0.343 N 
ATOM     16  C5  non d ame     -32.685  14.095  25.646  0.00  0.00     0.273 C 
ATOM     17  O2  non d ame     -32.961  14.654  26.650  0.00  0.00    -0.266 OA
ATOM     18  H5  non d ame     -32.959  12.259  24.539  0.00  0.00     0.163 HD
BRANCH  16  19
ATOM     19  C4  non d ame     -31.800  14.793  24.601  0.00  0.00     0.154 A 
ATOM     20  C1  non d ame     -30.598  14.289  24.011  0.00  0.00    -0.017 A 
ATOM     21  C2  non d ame     -30.176  15.304  23.123  0.00  0.00     0.077 A 
ATOM     22  H1  non d ame     -30.107  13.333  24.197  0.00  0.00     0.091 H 
ATOM     23  O1  non d ame     -31.041  16.271  23.201  0.00  0.00    -0.218 OA
ATOM     24  N1  non d ame     -31.998  15.996  24.057  0.00  0.00    -0.123 NA
BRANCH  21  25
ATOM     25  C3  non d ame     -28.937  15.269  22.238  0.00  0.00    -0.029 C 
ATOM     26  H2  non d ame     -28.171  15.919  22.659  0.00  0.00     0.036 H 
ATOM     27  H3  non d ame     -28.557  14.249  22.184  0.00  0.00     0.036 H 
ATOM     28  H4  non d ame     -29.195  15.614  21.237  0.00  0.00     0.036 H 
ENDBRANCH  21  25
ENDBRANCH  16  19
ENDBRANCH  13  15
BRANCH  13  29
ATOM     29  C8  non d ame     -34.833  10.996  25.751  0.00  0.00    -0.049 C 
ATOM     30  H7  non d ame     -35.818  11.378  25.486  0.00  0.00     0.030 H 
ATOM     31  H8  non d ame     -34.326  10.646  24.852  0.00  0.00     0.030 H 
ATOM     32  H9  non d ame     -34.941  10.167  26.453  0.00  0.00     0.030 H 
ENDBRANCH  13  29
ENDBRANCH  10  13
ENDBRANCH   7   9
BRANCH   7  33
ATOM     33  C11 non d ame     -31.900  12.188  30.670  0.00  0.00    -0.033 C 
ATOM     34  H12 non d ame     -32.378  12.322  31.640  0.00  0.00     0.042 H 
BRANCH  33  35
ATOM     35  C12 non d ame     -30.405  11.825  30.930  0.00  0.00    -0.071 C 
ATOM     36  H13 non d ame     -30.295  11.441  31.945  0.00  0.00     0.028 H 
ATOM     37  H14 non d ame     -30.086  11.065  30.218  0.00  0.00     0.028 H 
ATOM     38  H15 non d ame     -29.789  12.716  30.812  0.00  0.00     0.028 H 
ENDBRANCH  33  35
BRANCH  33  39
ATOM     39  C13 non d ame     -32.029  13.528  29.879  0.00  0.00    -0.071 C 
ATOM     40  H16 non d ame     -31.677  14.352  30.500  0.00  0.00     0.028 H 
ATOM     41  H17 non d ame     -31.428  13.474  28.971  0.00  0.00     0.028 H 
ATOM     42  H18 non d ame     -33.073  13.695  29.613  0.00  0.00     0.028 H 
ENDBRANCH  33  39
ENDBRANCH   7  33
ENDBRANCH   4   7
ENDBRANCH   1   3
BRANCH   1  43
ATOM     43  C15 non d ame     -35.044   6.722  30.945  0.00  0.00     0.240 C 
ATOM     44  O5  non d ame     -35.555   5.892  31.625  0.00  0.00    -0.271 OA
ATOM     45  N6  non d ame     -34.630   6.388  29.553  0.00  0.00    -0.355 N 
ATOM     46  H46 non d ame     -34.200   7.087  28.964  0.00  0.00     0.162 HD
BRANCH  45  47
ATOM     47  C20 non d ame     -34.849   5.022  29.032  0.00  0.00     0.013 C 
ATOM     48  H30 non d ame     -35.162   4.392  29.864  0.00  0.00     0.072 H 
BRANCH  47  49
ATOM     49  C21 non d ame     -33.558   4.498  28.444  0.00  0.00    -0.038 C 
ATOM     50  H31 non d ame     -32.760   5.016  28.977  0.00  0.00     0.036 H 
ATOM     51  H32 non d ame     -33.632   3.411  28.494  0.00  0.00     0.036 H 
BRANCH  49  52
ATOM     52  C22 non d ame     -33.391   4.856  26.951  0.00  0.00     0.018 C 
ATOM     53  H33 non d ame     -32.628   4.179  26.569  0.00  0.00     0.048 H 
ATOM     54  H34 non d ame     -34.396   4.838  26.529  0.00  0.00     0.048 H 
BRANCH  52  55
ATOM     55  C23 non d ame     -32.850   6.292  26.708  0.00  0.00     0.259 C 
ATOM     56  O7  non d ame     -31.920   6.699  27.327  0.00  0.00    -0.265 OA
BRANCH  55  57
ATOM     57  O8  non d ame     -33.487   7.123  25.746  0.00  0.00    -0.317 OA
BRANCH  57  58
ATOM     58  C29 non d ame     -33.308   6.693  24.394  0.00  0.00     0.052 C 
ATOM     59  H47 non d ame     -32.992   5.652  24.455  0.00  0.00     0.082 H 
ATOM     60  H48 non d ame     -34.230   6.954  23.876  0.00  0.00     0.082 H 
BRANCH  58  61
ATOM     61  C35 non d ame     -32.150   7.522  23.777  0.00  0.00    -0.034 A 
ATOM     62  C30 non d ame     -31.020   6.878  23.282  0.00  0.00    -0.075 A 
ATOM     63  C31 non d ame     -29.978   7.622  22.729  0.00  0.00    -0.082 A 
ATOM     64  H49 non d ame     -30.949   5.791  23.328  0.00  0.00     0.084 H 
ATOM     65  C32 non d ame     -30.070   9.016  22.673  0.00  0.00    -0.083 A 
ATOM     66  H50 non d ame     -29.095   7.115  22.340  0.00  0.00     0.083 H 
ATOM     67  C33 non d ame     -31.197   9.653  23.172  0.00  0.00    -0.082 A 
ATOM     68  H51 non d ame     -29.260   9.605  22.241  0.00  0.00     0.083 H 
ATOM     69  C34 non d ame     -32.241   8.914  23.724  0.00  0.00    -0.075 A 
ATOM     70  H52 non d ame     -31.264  10.741  23.129  0.00  0.00     0.083 H 
ATOM     71  H53 non d ame     -33.124   9.421  24.112  0.00  0.00     0.084 H 
ENDBRANCH  58  61
ENDBRANCH  57  58
ENDBRANCH  55  57
ENDBRANCH  52  55
ENDBRANCH  49  52
ENDBRANCH  47  49
BRANCH  47  72
ATOM     72  C24 non d ame     -35.928   5.048  27.951  0.00  0.00    -0.039 C 
ATOM     73  H35 non d ame     -35.615   5.821  27.248  0.00  0.00     0.036 H 
ATOM     74  H36 non d ame     -36.029   4.016  27.616  0.00  0.00     0.036 H 
BRANCH  72  75
ATOM     75  C25 non d ame     -37.348   5.494  28.543  0.00  0.00    -0.001 C 
ATOM     76  C26 non d ame     -38.307   4.175  28.751  0.00  0.00    -0.035 C 
ATOM     77  C27 non d ame     -39.502   4.404  28.155  0.00  0.00     0.085 C 
ATOM     78  H38 non d ame     -37.904   3.328  28.197  0.00  0.00     0.036 H 
ATOM     79  H39 non d ame     -38.566   4.063  29.804  0.00  0.00     0.036 H 
ATOM     80  N5  non d ame     -39.330   5.624  27.280  0.00  0.00    -0.049 N 
ATOM     81  H40 non d ame     -39.683   3.535  27.522  0.00  0.00     0.075 H 
ATOM     82  H41 non d ame     -40.190   4.642  28.964  0.00  0.00     0.075 H 
ATOM     83  C28 non d ame     -37.949   6.315  27.747  0.00  0.00     0.193 C 
ATOM     84  H42 non d ame     -39.217   5.284  26.336  0.00  0.00     0.280 HD
ATOM     85  H43 non d ame     -40.094   6.245  27.505  0.00  0.00     0.280 HD
ATOM     86  H44 non d ame     -37.962   7.215  28.364  0.00  0.00     0.129 H 
ATOM     87  H37 non d ame     -37.248   6.173  29.389  0.00  0.00     0.046 H 
BRANCH  83  88
ATOM     88  O6  non d ame     -37.151   6.643  26.608  0.00  0.00    -0.369 OA
ATOM     89  H45 non d ame     -37.192   5.925  25.971  0.00  0.00     0.212 HD
ENDBRANCH  83  88
ENDBRANCH  72  75
ENDBRANCH  47  72
ENDBRANCH  45  47
ENDBRANCH   1  43
BRANCH   1  90
ATOM     90  C16 non d ame     -36.163   8.854  31.671  0.00  0.00    -0.035 C 
ATOM     91  H21 non d ame     -36.627   8.390  32.539  0.00  0.00     0.037 H 
ATOM     92  H22 non d ame     -35.933   9.920  31.678  0.00  0.00     0.037 H 
BRANCH  90  93
ATOM     93  C17 non d ame     -37.138   8.621  30.473  0.00  0.00    -0.059 C 
ATOM     94  H23 non d ame     -36.779   7.753  29.919  0.00  0.00     0.038 H 
BRANCH  93  95
ATOM     95  C18 non d ame     -38.593   8.313  30.949  0.00  0.00    -0.073 C 
ATOM     96  H24 non d ame     -39.189   9.226  30.915  0.00  0.00     0.028 H 
ATOM     97  H25 non d ame     -39.040   7.565  30.294  0.00  0.00     0.028 H 
ATOM     98  H26 non d ame     -38.569   7.933  31.970  0.00  0.00     0.028 H 
ENDBRANCH  93  95
BRANCH  93  99
ATOM     99  C19 non d ame     -37.120   9.813  29.513  0.00  0.00    -0.073 C 
ATOM    100  H27 non d ame     -37.100  10.741  30.086  0.00  0.00     0.028 H 
ATOM    101  H28 non d ame     -36.234   9.759  28.880  0.00  0.00     0.028 H 
ATOM    102  H29 non d ame     -38.014   9.791  28.889  0.00  0.00     0.028 H 
ENDBRANCH  93  99
ENDBRANCH  90  93
ENDBRANCH   1  90
TORSDOF 26
ENDMDL
MODEL 19
REMARK VINA RESULT:      -6.8      3.449      7.639
REMARK  26 active torsions:
REMARK  status: ('A' for Active; 'I' for Inactive)
REMARK    1  A    between atoms: C2_2  and  C3_3 
REMARK    2  A    between atoms: C4_6  and  C5_7 
REMARK       I    between atoms: C5_7  and  N2_9 
REMARK    3  A    between atoms: N2_9  and  C6_10 
REMARK    4  A    between atoms: C6_10  and  C7_11 
REMARK    5  A    between atoms: C6_10  and  C8_13 
REMARK       I    between atoms: C7_11  and  N3_14 
REMARK    6  A    between atoms: N3_14  and  C9_15 
REMARK    7  A    between atoms: C9_15  and  C10_16 
REMARK    8  A    between atoms: C9_15  and  C11_18 
REMARK       I    between atoms: C10_16  and  N4_21 
REMARK    9  A    between atoms: C11_18  and  C12_19 
REMARK   10  A    between atoms: C11_18  and  C13_20 
REMARK   11  A    between atoms: N4_21  and  C14_22 
REMARK   12  A    between atoms: C14_22  and  C15_23 
REMARK   13  A    between atoms: C14_22  and  C16_25 
REMARK       I    between atoms: C15_23  and  N6_40 
REMARK   14  A    between atoms: C16_25  and  C17_26 
REMARK   15  A    between atoms: C17_26  and  C18_27 
REMARK   16  A    between atoms: C17_26  and  C19_28 
REMARK   17  A    between atoms: C20_29  and  C21_30 
REMARK   18  A    between atoms: C20_29  and  C24_33 
REMARK   19  A    between atoms: C20_29  and  N6_40 
REMARK   20  A    between atoms: C21_30  and  C22_31 
REMARK   21  A    between atoms: C22_31  and  C23_32 
REMARK   22  A    between atoms: C23_32  and  O8_43 
REMARK   23  A    between atoms: C24_33  and  C25_34 
REMARK   24  A    between atoms: C28_38  and  O6_39 
REMARK   25  A    between atoms: C29_42  and  O8_43 
REMARK   26  A    between atoms: C29_42  and  C35_49 
ROOT
ATOM      1  C14 non d ame     -31.019  13.885  24.630  0.00  0.00     0.089 C 
ATOM      2  H20 non d ame     -29.931  13.821  24.643  0.00  0.00     0.087 H 
ENDROOT
BRANCH   1   3
ATOM      3  N4  non d ame     -31.530  12.581  24.233  0.00  0.00    -0.346 N 
ATOM      4  C10 non d ame     -31.294  11.373  25.103  0.00  0.00     0.241 C 
ATOM      5  O4  non d ame     -30.688  11.473  26.119  0.00  0.00    -0.271 OA
ATOM      6  H19 non d ame     -32.040  12.516  23.363  0.00  0.00     0.163 HD
BRANCH   4   7
ATOM      7  C9  non d ame     -31.833  10.032  24.679  0.00  0.00     0.092 C 
ATOM      8  H11 non d ame     -31.297   9.246  25.209  0.00  0.00     0.088 H 
BRANCH   7   9
ATOM      9  N3  non d ame     -33.244   9.929  25.061  0.00  0.00    -0.346 N 
ATOM     10  C7  non d ame     -33.615   9.227  26.265  0.00  0.00     0.240 C 
ATOM     11  O3  non d ame     -32.790   8.738  26.937  0.00  0.00    -0.271 OA
ATOM     12  H10 non d ame     -33.966  10.344  24.491  0.00  0.00     0.163 HD
BRANCH  10  13
ATOM     13  C6  non d ame     -35.119   9.117  26.666  0.00  0.00     0.086 C 
ATOM     14  H6  non d ame     -35.265   9.068  27.745  0.00  0.00     0.086 H 
BRANCH  13  15
ATOM     15  N2  non d ame     -35.817  10.306  26.206  0.00  0.00    -0.343 N 
ATOM     16  C5  non d ame     -36.901  10.865  27.016  0.00  0.00     0.273 C 
ATOM     17  O2  non d ame     -37.207  10.349  28.035  0.00  0.00    -0.266 OA
ATOM     18  H5  non d ame     -35.552  10.738  25.332  0.00  0.00     0.163 HD
BRANCH  16  19
ATOM     19  C4  non d ame     -37.648  12.122  26.541  0.00  0.00     0.154 A 
ATOM     20  C1  non d ame     -37.622  12.700  25.233  0.00  0.00    -0.017 A 
ATOM     21  C2  non d ame     -38.466  13.830  25.319  0.00  0.00     0.077 A 
ATOM     22  H1  non d ame     -37.076  12.353  24.356  0.00  0.00     0.091 H 
ATOM     23  O1  non d ame     -38.919  13.884  26.537  0.00  0.00    -0.218 OA
ATOM     24  N1  non d ame     -38.456  12.897  27.269  0.00  0.00    -0.123 NA
BRANCH  21  25
ATOM     25  C3  non d ame     -38.787  14.803  24.193  0.00  0.00    -0.029 C 
ATOM     26  H2  non d ame     -38.174  14.569  23.324  0.00  0.00     0.036 H 
ATOM     27  H3  non d ame     -39.841  14.715  23.926  0.00  0.00     0.036 H 
ATOM     28  H4  non d ame     -38.580  15.821  24.521  0.00  0.00     0.036 H 
ENDBRANCH  21  25
ENDBRANCH  16  19
ENDBRANCH  13  15
BRANCH  13  29
ATOM     29  C8  non d ame     -35.721   7.887  26.037  0.00  0.00    -0.049 C 
ATOM     30  H7  non d ame     -36.673   8.144  25.574  0.00  0.00     0.030 H 
ATOM     31  H8  non d ame     -35.043   7.498  25.277  0.00  0.00     0.030 H 
ATOM     32  H9  non d ame     -35.883   7.129  26.804  0.00  0.00     0.030 H 
ENDBRANCH  13  29
ENDBRANCH  10  13
ENDBRANCH   7   9
BRANCH   7  33
ATOM     33  C11 non d ame     -31.706   9.888  23.133  0.00  0.00    -0.033 C 
ATOM     34  H12 non d ame     -32.087  10.805  22.685  0.00  0.00     0.042 H 
BRANCH  33  35
ATOM     35  C12 non d ame     -30.215   9.738  22.698  0.00  0.00    -0.071 C 
ATOM     36  H13 non d ame     -30.086   8.799  22.159  0.00  0.00     0.028 H 
ATOM     37  H14 non d ame     -29.939  10.569  22.050  0.00  0.00     0.028 H 
ATOM     38  H15 non d ame     -29.576   9.738  23.581  0.00  0.00     0.028 H 
ENDBRANCH  33  35
BRANCH  33  39
ATOM     39  C13 non d ame     -32.572   8.698  22.609  0.00  0.00    -0.071 C 
ATOM     40  H16 non d ame     -33.219   8.340  23.410  0.00  0.00     0.028 H 
ATOM     41  H17 non d ame     -33.182   9.034  21.770  0.00  0.00     0.028 H 
ATOM     42  H18 non d ame     -31.919   7.890  22.281  0.00  0.00     0.028 H 
ENDBRANCH  33  39
ENDBRANCH   7  33
ENDBRANCH   4   7
ENDBRANCH   1   3
BRANCH   1  43
ATOM     43  C15 non d ame     -31.602  14.239  26.028  0.00  0.00     0.240 C 
ATOM     44  O5  non d ame     -31.075  15.070  26.695  0.00  0.00    -0.271 OA
ATOM     45  N6  non d ame     -32.825  13.551  26.532  0.00  0.00    -0.355 N 
ATOM     46  H46 non d ame     -33.284  12.846  25.972  0.00  0.00     0.162 HD
BRANCH  45  47
ATOM     47  C20 non d ame     -33.367  13.900  27.863  0.00  0.00     0.013 C 
ATOM     48  H30 non d ame     -34.120  13.157  28.123  0.00  0.00     0.072 H 
BRANCH  47  49
ATOM     49  C21 non d ame     -33.995  15.274  27.802  0.00  0.00    -0.038 C 
ATOM     50  H31 non d ame     -34.136  15.579  28.839  0.00  0.00     0.036 H 
ATOM     51  H32 non d ame     -33.354  15.861  27.144  0.00  0.00     0.036 H 
BRANCH  49  52
ATOM     52  C22 non d ame     -35.396  15.264  27.154  0.00  0.00     0.018 C 
ATOM     53  H33 non d ame     -35.683  14.216  27.088  0.00  0.00     0.048 H 
ATOM     54  H34 non d ame     -35.997  15.959  27.740  0.00  0.00     0.048 H 
BRANCH  52  55
ATOM     55  C23 non d ame     -35.416  15.806  25.697  0.00  0.00     0.259 C 
ATOM     56  O7  non d ame     -34.770  15.278  24.849  0.00  0.00    -0.265 OA
BRANCH  55  57
ATOM     57  O8  non d ame     -36.203  16.950  25.389  0.00  0.00    -0.317 OA
BRANCH  57  58
ATOM     58  C29 non d ame     -36.339  17.873  26.474  0.00  0.00     0.052 C 
ATOM     59  H47 non d ame     -37.106  18.581  26.163  0.00  0.00     0.082 H 
ATOM     60  H48 non d ame     -36.487  17.263  27.364  0.00  0.00     0.082 H 
BRANCH  58  61
ATOM     61  C35 non d ame     -34.996  18.637  26.621  0.00  0.00    -0.034 A 
ATOM     62  C30 non d ame     -34.282  19.016  25.488  0.00  0.00    -0.075 A 
ATOM     63  C31 non d ame     -33.075  19.702  25.621  0.00  0.00    -0.082 A 
ATOM     64  H49 non d ame     -34.667  18.775  24.497  0.00  0.00     0.084 H 
ATOM     65  C32 non d ame     -32.582  20.008  26.892  0.00  0.00    -0.083 A 
ATOM     66  H50 non d ame     -32.519  19.999  24.731  0.00  0.00     0.083 H 
ATOM     67  C33 non d ame     -33.296  19.624  28.019  0.00  0.00    -0.082 A 
ATOM     68  H51 non d ame     -31.640  20.545  27.004  0.00  0.00     0.083 H 
ATOM     69  C34 non d ame     -34.503  18.940  27.891  0.00  0.00    -0.075 A 
ATOM     70  H52 non d ame     -32.907  19.862  29.010  0.00  0.00     0.083 H 
ATOM     71  H53 non d ame     -35.059  18.644  28.781  0.00  0.00     0.084 H 
ENDBRANCH  58  61
ENDBRANCH  57  58
ENDBRANCH  55  57
ENDBRANCH  52  55
ENDBRANCH  49  52
ENDBRANCH  47  49
BRANCH  47  72
ATOM     72  C24 non d ame     -32.241  13.898  28.895  0.00  0.00    -0.039 C 
ATOM     73  H35 non d ame     -31.413  14.428  28.422  0.00  0.00     0.036 H 
ATOM     74  H36 non d ame     -32.686  14.290  29.810  0.00  0.00     0.036 H 
BRANCH  72  75
ATOM     75  C25 non d ame     -31.731  12.414  29.214  0.00  0.00    -0.001 C 
ATOM     76  C26 non d ame     -33.009  11.381  29.258  0.00  0.00    -0.035 C 
ATOM     77  C27 non d ame     -32.959  10.672  30.412  0.00  0.00     0.085 C 
ATOM     78  H38 non d ame     -33.940  11.940  29.344  0.00  0.00     0.036 H 
ATOM     79  H39 non d ame     -32.901  10.618  28.486  0.00  0.00     0.036 H 
ATOM     80  N5  non d ame     -31.952  11.356  31.306  0.00  0.00    -0.049 N 
ATOM     81  H40 non d ame     -33.950  10.767  30.855  0.00  0.00     0.075 H 
ATOM     82  H41 non d ame     -32.578   9.690  30.134  0.00  0.00     0.075 H 
ATOM     83  C28 non d ame     -31.124  12.363  30.353  0.00  0.00     0.193 C 
ATOM     84  H42 non d ame     -32.482  11.903  31.968  0.00  0.00     0.280 HD
ATOM     85  H43 non d ame     -31.325  10.635  31.633  0.00  0.00     0.280 HD
ATOM     86  H44 non d ame     -30.114  12.112  30.028  0.00  0.00     0.129 H 
ATOM     87  H37 non d ame     -30.883  12.127  28.594  0.00  0.00     0.046 H 
BRANCH  83  88
ATOM     88  O6  non d ame     -31.021  13.649  30.967  0.00  0.00    -0.369 OA
ATOM     89  H45 non d ame     -30.181  13.717  31.428  0.00  0.00     0.212 HD
ENDBRANCH  83  88
ENDBRANCH  72  75
ENDBRANCH  47  72
ENDBRANCH  45  47
ENDBRANCH   1  43
BRANCH   1  90
ATOM     90  C16 non d ame     -31.463  14.924  23.613  0.00  0.00    -0.035 C 
ATOM     91  H21 non d ame     -32.052  14.376  22.880  0.00  0.00     0.037 H 
ATOM     92  H22 non d ame     -31.922  15.721  24.197  0.00  0.00     0.037 H 
BRANCH  90  93
ATOM     93  C17 non d ame     -30.280  15.576  22.828  0.00  0.00    -0.059 C 
ATOM     94  H23 non d ame     -30.035  16.516  23.322  0.00  0.00     0.038 H 
BRANCH  93  95
ATOM     95  C18 non d ame     -28.999  14.683  22.842  0.00  0.00    -0.073 C 
ATOM     96  H24 non d ame     -28.899  14.174  21.883  0.00  0.00     0.028 H 
ATOM     97  H25 non d ame     -28.122  15.307  23.013  0.00  0.00     0.028 H 
ATOM     98  H26 non d ame     -29.080  13.944  23.639  0.00  0.00     0.028 H 
ENDBRANCH  93  95
BRANCH  93  99
ATOM     99  C19 non d ame     -30.695  15.910  21.393  0.00  0.00    -0.073 C 
ATOM    100  H27 non d ame     -29.808  16.153  20.806  0.00  0.00     0.028 H 
ATOM    101  H28 non d ame     -31.198  15.051  20.949  0.00  0.00     0.028 H 
ATOM    102  H29 non d ame     -31.371  16.765  21.399  0.00  0.00     0.028 H 
ENDBRANCH  93  99
ENDBRANCH  90  93
ENDBRANCH   1  90
TORSDOF 26
ENDMDL
MODEL 20
REMARK VINA RESULT:      -6.8      2.290      5.883
REMARK  26 active torsions:
REMARK  status: ('A' for Active; 'I' for Inactive)
REMARK    1  A    between atoms: C2_2  and  C3_3 
REMARK    2  A    between atoms: C4_6  and  C5_7 
REMARK       I    between atoms: C5_7  and  N2_9 
REMARK    3  A    between atoms: N2_9  and  C6_10 
REMARK    4  A    between atoms: C6_10  and  C7_11 
REMARK    5  A    between atoms: C6_10  and  C8_13 
REMARK       I    between atoms: C7_11  and  N3_14 
REMARK    6  A    between atoms: N3_14  and  C9_15 
REMARK    7  A    between atoms: C9_15  and  C10_16 
REMARK    8  A    between atoms: C9_15  and  C11_18 
REMARK       I    between atoms: C10_16  and  N4_21 
REMARK    9  A    between atoms: C11_18  and  C12_19 
REMARK   10  A    between atoms: C11_18  and  C13_20 
REMARK   11  A    between atoms: N4_21  and  C14_22 
REMARK   12  A    between atoms: C14_22  and  C15_23 
REMARK   13  A    between atoms: C14_22  and  C16_25 
REMARK       I    between atoms: C15_23  and  N6_40 
REMARK   14  A    between atoms: C16_25  and  C17_26 
REMARK   15  A    between atoms: C17_26  and  C18_27 
REMARK   16  A    between atoms: C17_26  and  C19_28 
REMARK   17  A    between atoms: C20_29  and  C21_30 
REMARK   18  A    between atoms: C20_29  and  C24_33 
REMARK   19  A    between atoms: C20_29  and  N6_40 
REMARK   20  A    between atoms: C21_30  and  C22_31 
REMARK   21  A    between atoms: C22_31  and  C23_32 
REMARK   22  A    between atoms: C23_32  and  O8_43 
REMARK   23  A    between atoms: C24_33  and  C25_34 
REMARK   24  A    between atoms: C28_38  and  O6_39 
REMARK   25  A    between atoms: C29_42  and  O8_43 
REMARK   26  A    between atoms: C29_42  and  C35_49 
ROOT
ATOM      1  C14 non d ame     -32.635  12.819  28.116  0.00  0.00     0.089 C 
ATOM      2  H20 non d ame     -32.940  13.367  29.008  0.00  0.00     0.087 H 
ENDROOT
BRANCH   1   3
ATOM      3  N4  non d ame     -33.460  11.623  28.032  0.00  0.00    -0.346 N 
ATOM      4  C10 non d ame     -33.919  10.925  29.286  0.00  0.00     0.241 C 
ATOM      5  O4  non d ame     -33.612  11.344  30.354  0.00  0.00    -0.271 OA
ATOM      6  H19 non d ame     -33.708  11.282  27.114  0.00  0.00     0.163 HD
BRANCH   4   7
ATOM      7  C9  non d ame     -34.776   9.691  29.181  0.00  0.00     0.092 C 
ATOM      8  H11 non d ame     -35.614   9.892  28.513  0.00  0.00     0.088 H 
BRANCH   7   9
ATOM      9  N3  non d ame     -33.996   8.603  28.583  0.00  0.00    -0.346 N 
ATOM     10  C7  non d ame     -34.361   8.081  27.290  0.00  0.00     0.240 C 
ATOM     11  O3  non d ame     -35.280   8.523  26.716  0.00  0.00    -0.271 OA
ATOM     12  H10 non d ame     -33.201   8.211  29.068  0.00  0.00     0.163 HD
BRANCH  10  13
ATOM     13  C6  non d ame     -33.529   6.921  26.660  0.00  0.00     0.086 C 
ATOM     14  H6  non d ame     -33.991   5.945  26.804  0.00  0.00     0.086 H 
BRANCH  13  15
ATOM     15  N2  non d ame     -33.438   7.131  25.225  0.00  0.00    -0.343 N 
ATOM     16  C5  non d ame     -33.123   6.001  24.349  0.00  0.00     0.273 C 
ATOM     17  O2  non d ame     -32.941   4.927  24.809  0.00  0.00    -0.266 OA
ATOM     18  H5  non d ame     -33.591   8.052  24.841  0.00  0.00     0.163 HD
BRANCH  16  19
ATOM     19  C4  non d ame     -33.024   6.208  22.830  0.00  0.00     0.154 A 
ATOM     20  C1  non d ame     -34.095   6.492  21.924  0.00  0.00    -0.017 A 
ATOM     21  C2  non d ame     -33.481   6.590  20.656  0.00  0.00     0.077 A 
ATOM     22  H1  non d ame     -35.154   6.610  22.153  0.00  0.00     0.091 H 
ATOM     23  O1  non d ame     -32.208   6.387  20.824  0.00  0.00    -0.218 OA
ATOM     24  N1  non d ame     -31.917   6.161  22.084  0.00  0.00    -0.123 NA
BRANCH  21  25
ATOM     25  C3  non d ame     -34.182   6.882  19.336  0.00  0.00    -0.029 C 
ATOM     26  H2  non d ame     -35.118   7.406  19.529  0.00  0.00     0.036 H 
ATOM     27  H3  non d ame     -33.540   7.507  18.714  0.00  0.00     0.036 H 
ATOM     28  H4  non d ame     -34.389   5.946  18.818  0.00  0.00     0.036 H 
ENDBRANCH  21  25
ENDBRANCH  16  19
ENDBRANCH  13  15
BRANCH  13  29
ATOM     29  C8  non d ame     -32.150   6.901  27.269  0.00  0.00    -0.049 C 
ATOM     30  H7  non d ame     -31.489   6.293  26.652  0.00  0.00     0.030 H 
ATOM     31  H8  non d ame     -31.761   7.918  27.323  0.00  0.00     0.030 H 
ATOM     32  H9  non d ame     -32.202   6.477  28.273  0.00  0.00     0.030 H 
ENDBRANCH  13  29
ENDBRANCH  10  13
ENDBRANCH   7   9
BRANCH   7  33
ATOM     33  C11 non d ame     -35.249   9.266  30.603  0.00  0.00    -0.033 C 
ATOM     34  H12 non d ame     -34.769   9.930  31.321  0.00  0.00     0.042 H 
BRANCH  33  35
ATOM     35  C12 non d ame     -36.792   9.438  30.763  0.00  0.00    -0.071 C 
ATOM     36  H13 non d ame     -37.298   8.986  29.909  0.00  0.00     0.028 H 
ATOM     37  H14 non d ame     -37.119   8.950  31.680  0.00  0.00     0.028 H 
ATOM     38  H15 non d ame     -37.036  10.500  30.808  0.00  0.00     0.028 H 
ENDBRANCH  33  35
BRANCH  33  39
ATOM     39  C13 non d ame     -34.806   7.803  30.925  0.00  0.00    -0.071 C 
ATOM     40  H16 non d ame     -33.905   7.824  31.540  0.00  0.00     0.028 H 
ATOM     41  H17 non d ame     -35.603   7.292  31.465  0.00  0.00     0.028 H 
ATOM     42  H18 non d ame     -34.599   7.273  29.996  0.00  0.00     0.028 H 
ENDBRANCH  33  39
ENDBRANCH   7  33
ENDBRANCH   4   7
ENDBRANCH   1   3
BRANCH   1  43
ATOM     43  C15 non d ame     -32.839  13.653  26.818  0.00  0.00     0.240 C 
ATOM     44  O5  non d ame     -33.729  13.386  26.077  0.00  0.00    -0.271 OA
ATOM     45  N6  non d ame     -31.930  14.792  26.503  0.00  0.00    -0.355 N 
ATOM     46  H46 non d ame     -31.173  15.032  27.128  0.00  0.00     0.162 HD
BRANCH  45  47
ATOM     47  C20 non d ame     -32.137  15.576  25.266  0.00  0.00     0.013 C 
ATOM     48  H30 non d ame     -32.969  15.127  24.722  0.00  0.00     0.072 H 
BRANCH  47  49
ATOM     49  C21 non d ame     -30.882  15.526  24.426  0.00  0.00    -0.038 C 
ATOM     50  H31 non d ame     -30.217  16.282  24.845  0.00  0.00     0.036 H 
ATOM     51  H32 non d ame     -30.577  14.479  24.413  0.00  0.00     0.036 H 
BRANCH  49  52
ATOM     52  C22 non d ame     -31.128  15.927  22.955  0.00  0.00     0.018 C 
ATOM     53  H33 non d ame     -32.114  15.537  22.705  0.00  0.00     0.048 H 
ATOM     54  H34 non d ame     -30.937  16.999  22.906  0.00  0.00     0.048 H 
BRANCH  52  55
ATOM     55  C23 non d ame     -30.140  15.268  21.953  0.00  0.00     0.259 C 
ATOM     56  O7  non d ame     -29.254  15.902  21.475  0.00  0.00    -0.265 OA
BRANCH  55  57
ATOM     57  O8  non d ame     -30.313  13.901  21.600  0.00  0.00    -0.317 OA
BRANCH  57  58
ATOM     58  C29 non d ame     -29.357  13.020  22.198  0.00  0.00     0.052 C 
ATOM     59  H47 non d ame     -28.760  12.630  21.374  0.00  0.00     0.082 H 
ATOM     60  H48 non d ame     -28.882  13.594  22.992  0.00  0.00     0.082 H 
BRANCH  58  61
ATOM     61  C35 non d ame     -30.133  11.840  22.844  0.00  0.00    -0.034 A 
ATOM     62  C30 non d ame     -29.936  10.542  22.382  0.00  0.00    -0.075 A 
ATOM     63  C31 non d ame     -30.634   9.483  22.962  0.00  0.00    -0.082 A 
ATOM     64  H49 non d ame     -29.238  10.355  21.567  0.00  0.00     0.084 H 
ATOM     65  C32 non d ame     -31.531   9.726  24.005  0.00  0.00    -0.083 A 
ATOM     66  H50 non d ame     -30.476   8.466  22.600  0.00  0.00     0.083 H 
ATOM     67  C33 non d ame     -31.727  11.023  24.459  0.00  0.00    -0.082 A 
ATOM     68  H51 non d ame     -32.080   8.903  24.465  0.00  0.00     0.083 H 
ATOM     69  C34 non d ame     -31.031  12.084  23.884  0.00  0.00    -0.075 A 
ATOM     70  H52 non d ame     -32.430  11.210  25.272  0.00  0.00     0.083 H 
ATOM     71  H53 non d ame     -31.189  13.100  24.247  0.00  0.00     0.084 H 
ENDBRANCH  58  61
ENDBRANCH  57  58
ENDBRANCH  55  57
ENDBRANCH  52  55
ENDBRANCH  49  52
ENDBRANCH  47  49
BRANCH  47  72
ATOM     72  C24 non d ame     -32.457  17.026  25.621  0.00  0.00    -0.039 C 
ATOM     73  H35 non d ame     -31.508  17.559  25.546  0.00  0.00     0.036 H 
ATOM     74  H36 non d ame     -33.291  17.306  24.977  0.00  0.00     0.036 H 
BRANCH  72  75
ATOM     75  C25 non d ame     -32.961  17.169  27.135  0.00  0.00    -0.001 C 
ATOM     76  C26 non d ame     -34.597  17.021  27.197  0.00  0.00    -0.035 C 
ATOM     77  C27 non d ame     -35.105  18.072  27.884  0.00  0.00     0.085 C 
ATOM     78  H38 non d ame     -35.022  17.139  26.201  0.00  0.00     0.036 H 
ATOM     79  H39 non d ame     -34.872  16.161  27.808  0.00  0.00     0.036 H 
ATOM     80  N5  non d ame     -33.998  19.091  28.013  0.00  0.00    -0.049 N 
ATOM     81  H40 non d ame     -35.893  18.481  27.250  0.00  0.00     0.075 H 
ATOM     82  H41 non d ame     -35.347  17.684  28.873  0.00  0.00     0.075 H 
ATOM     83  C28 non d ame     -32.635  18.316  27.630  0.00  0.00     0.193 C 
ATOM     84  H42 non d ame     -34.175  19.796  27.312  0.00  0.00     0.280 HD
ATOM     85  H43 non d ame     -33.959  19.348  28.989  0.00  0.00     0.280 HD
ATOM     86  H44 non d ame     -31.938  18.005  28.409  0.00  0.00     0.129 H 
ATOM     87  H37 non d ame     -32.381  16.554  27.823  0.00  0.00     0.046 H 
BRANCH  83  88
ATOM     88  O6  non d ame     -31.863  19.098  26.716  0.00  0.00    -0.369 OA
ATOM     89  H45 non d ame     -31.052  18.631  26.500  0.00  0.00     0.212 HD
ENDBRANCH  83  88
ENDBRANCH  72  75
ENDBRANCH  47  72
ENDBRANCH  45  47
ENDBRANCH   1  43
BRANCH   1  90
ATOM     90  C16 non d ame     -31.176  12.410  28.236  0.00  0.00    -0.035 C 
ATOM     91  H21 non d ame     -31.191  11.334  28.400  0.00  0.00     0.037 H 
ATOM     92  H22 non d ame     -30.687  12.821  27.353  0.00  0.00     0.037 H 
BRANCH  90  93
ATOM     93  C17 non d ame     -30.451  13.033  29.472  0.00  0.00    -0.059 C 
ATOM     94  H23 non d ame     -29.411  13.204  29.194  0.00  0.00     0.038 H 
BRANCH  93  95
ATOM     95  C18 non d ame     -31.065  14.410  29.883  0.00  0.00    -0.073 C 
ATOM     96  H24 non d ame     -31.493  14.894  29.006  0.00  0.00     0.028 H 
ATOM     97  H25 non d ame     -31.846  14.252  30.627  0.00  0.00     0.028 H 
ATOM     98  H26 non d ame     -30.285  15.044  30.304  0.00  0.00     0.028 H 
ENDBRANCH  93  95
BRANCH  93  99
ATOM     99  C19 non d ame     -30.453  12.061  30.655  0.00  0.00    -0.073 C 
ATOM    100  H27 non d ame     -29.580  11.411  30.591  0.00  0.00     0.028 H 
ATOM    101  H28 non d ame     -30.419  12.623  31.588  0.00  0.00     0.028 H 
ATOM    102  H29 non d ame     -31.360  11.457  30.627  0.00  0.00     0.028 H 
ENDBRANCH  93  99
ENDBRANCH  90  93
ENDBRANCH   1  90
TORSDOF 26
ENDMDL
