REMARK  26 active torsions:
REMARK  status: ('A' for Active; 'I' for Inactive)
REMARK    1  A    between atoms: C2_2  and  C3_3 
REMARK    2  A    between atoms: C4_6  and  C5_7 
REMARK       I    between atoms: C5_7  and  N2_9 
REMARK    3  A    between atoms: N2_9  and  C6_10 
REMARK    4  A    between atoms: C6_10  and  C7_11 
REMARK    5  A    between atoms: C6_10  and  C8_13 
REMARK       I    between atoms: C7_11  and  N3_14 
REMARK    6  A    between atoms: N3_14  and  C9_15 
REMARK    7  A    between atoms: C9_15  and  C10_16 
REMARK    8  A    between atoms: C9_15  and  C11_18 
REMARK       I    between atoms: C10_16  and  N4_21 
REMARK    9  A    between atoms: C11_18  and  C12_19 
REMARK   10  A    between atoms: C11_18  and  C13_20 
REMARK   11  A    between atoms: N4_21  and  C14_22 
REMARK   12  A    between atoms: C14_22  and  C15_23 
REMARK   13  A    between atoms: C14_22  and  C16_25 
REMARK       I    between atoms: C15_23  and  N6_40 
REMARK   14  A    between atoms: C16_25  and  C17_26 
REMARK   15  A    between atoms: C17_26  and  C18_27 
REMARK   16  A    between atoms: C17_26  and  C19_28 
REMARK   17  A    between atoms: C20_29  and  C21_30 
REMARK   18  A    between atoms: C20_29  and  C24_33 
REMARK   19  A    between atoms: C20_29  and  N6_40 
REMARK   20  A    between atoms: C21_30  and  C22_31 
REMARK   21  A    between atoms: C22_31  and  C23_32 
REMARK   22  A    between atoms: C23_32  and  O8_43 
REMARK   23  A    between atoms: C24_33  and  C25_34 
REMARK   24  A    between atoms: C28_38  and  O6_39 
REMARK   25  A    between atoms: C29_42  and  O8_43 
REMARK   26  A    between atoms: C29_42  and  C35_49 
ROOT
ATOM      1  C14 non d ame     -37.618   8.513  29.408  0.00  0.00     0.089 C 
ATOM      2  H20 non d ame     -37.178   7.547  29.159  0.00  0.00     0.087 H 
ENDROOT
BRANCH   1   3
ATOM      3  N4  non d ame     -38.930   8.572  28.781  0.00  0.00    -0.346 N 
ATOM      4  C10 non d ame     -39.538   7.336  28.169  0.00  0.00     0.241 C 
ATOM      5  O4  non d ame     -38.952   6.304  28.191  0.00  0.00    -0.271 OA
ATOM      6  H19 non d ame     -39.411   9.460  28.770  0.00  0.00     0.163 HD
BRANCH   4   7
ATOM      7  C9  non d ame     -40.899   7.414  27.528  0.00  0.00     0.092 C 
ATOM      8  H11 non d ame     -40.941   6.719  26.690  0.00  0.00     0.088 H 
BRANCH   7   9
ATOM      9  N3  non d ame     -41.919   6.992  28.493  0.00  0.00    -0.346 N 
ATOM     10  C7  non d ame     -42.910   6.016  28.113  0.00  0.00     0.240 C 
ATOM     11  O3  non d ame     -42.902   5.560  27.035  0.00  0.00    -0.271 OA
ATOM     12  H10 non d ame     -41.939   7.378  29.426  0.00  0.00     0.163 HD
BRANCH  10  13
ATOM     13  C6  non d ame     -43.995   5.573  29.143  0.00  0.00     0.086 C 
ATOM     14  H6  non d ame     -43.566   5.179  30.064  0.00  0.00     0.086 H 
BRANCH  13  15
ATOM     15  N2  non d ame     -44.791   6.730  29.517  0.00  0.00    -0.343 N 
ATOM     16  C5  non d ame     -45.783   6.608  30.587  0.00  0.00     0.273 C 
ATOM     17  O2  non d ame     -45.936   5.574  31.139  0.00  0.00    -0.266 OA
ATOM     18  H5  non d ame     -44.656   7.609  29.038  0.00  0.00     0.163 HD
BRANCH  16  19
ATOM     19  C4  non d ame     -46.631   7.824  30.993  0.00  0.00     0.154 A 
ATOM     20  C1  non d ame     -47.280   8.755  30.122  0.00  0.00    -0.017 A 
ATOM     21  C2  non d ame     -47.920   9.673  30.984  0.00  0.00     0.077 A 
ATOM     22  H1  non d ame     -47.286   8.763  29.032  0.00  0.00     0.091 H 
ATOM     23  O1  non d ame     -47.664   9.303  32.204  0.00  0.00    -0.218 OA
ATOM     24  N1  non d ame     -46.913   8.226  32.235  0.00  0.00    -0.123 NA
BRANCH  21  25
ATOM     25  C3  non d ame     -48.757  10.873  30.562  0.00  0.00    -0.029 C 
ATOM     26  H2  non d ame     -48.099  11.688  30.262  0.00  0.00     0.036 H 
ATOM     27  H3  non d ame     -49.394  10.595  29.722  0.00  0.00     0.036 H 
ATOM     28  H4  non d ame     -49.378  11.196  31.397  0.00  0.00     0.036 H 
ENDBRANCH  21  25
ENDBRANCH  16  19
ENDBRANCH  13  15
BRANCH  13  29
ATOM     29  C8  non d ame     -44.876   4.517  28.526  0.00  0.00    -0.049 C 
ATOM     30  H7  non d ame     -44.680   4.459  27.456  0.00  0.00     0.030 H 
ATOM     31  H8  non d ame     -44.664   3.552  28.986  0.00  0.00     0.030 H 
ATOM     32  H9  non d ame     -45.923   4.776  28.690  0.00  0.00     0.030 H 
ENDBRANCH  13  29
ENDBRANCH  10  13
ENDBRANCH   7   9
BRANCH   7  33
ATOM     33  C11 non d ame     -41.181   8.881  27.088  0.00  0.00    -0.033 C 
ATOM     34  H12 non d ame     -40.344   9.492  27.425  0.00  0.00     0.042 H 
BRANCH  33  35
ATOM     35  C12 non d ame     -41.255   9.003  25.534  0.00  0.00    -0.071 C 
ATOM     36  H13 non d ame     -41.350  10.053  25.256  0.00  0.00     0.028 H 
ATOM     37  H14 non d ame     -40.348   8.591  25.093  0.00  0.00     0.028 H 
ATOM     38  H15 non d ame     -42.121   8.452  25.167  0.00  0.00     0.028 H 
ENDBRANCH  33  35
BRANCH  33  39
ATOM     39  C13 non d ame     -42.480   9.427  27.762  0.00  0.00    -0.071 C 
ATOM     40  H16 non d ame     -43.295   9.422  27.038  0.00  0.00     0.028 H 
ATOM     41  H17 non d ame     -42.743   8.795  28.611  0.00  0.00     0.028 H 
ATOM     42  H18 non d ame     -42.309  10.446  28.109  0.00  0.00     0.028 H 
ENDBRANCH  33  39
ENDBRANCH   7  33
ENDBRANCH   4   7
ENDBRANCH   1   3
BRANCH   1  43
ATOM     43  C15 non d ame     -37.794   8.699  30.943  0.00  0.00     0.240 C 
ATOM     44  O5  non d ame     -38.152   9.747  31.374  0.00  0.00    -0.271 OA
ATOM     45  N6  non d ame     -37.526   7.567  31.875  0.00  0.00    -0.355 N 
ATOM     46  H46 non d ame     -37.226   6.670  31.520  0.00  0.00     0.162 HD
BRANCH  45  47
ATOM     47  C20 non d ame     -37.699   7.760  33.331  0.00  0.00     0.013 C 
ATOM     48  H30 non d ame     -38.668   8.232  33.493  0.00  0.00     0.072 H 
BRANCH  47  49
ATOM     49  C21 non d ame     -36.595   8.652  33.852  0.00  0.00    -0.038 C 
ATOM     50  H31 non d ame     -35.927   7.997  34.412  0.00  0.00     0.036 H 
ATOM     51  H32 non d ame     -36.223   9.197  32.984  0.00  0.00     0.036 H 
BRANCH  49  52
ATOM     52  C22 non d ame     -37.104   9.715  34.850  0.00  0.00     0.018 C 
ATOM     53  H33 non d ame     -37.233  10.627  34.269  0.00  0.00     0.048 H 
ATOM     54  H34 non d ame     -37.959   9.262  35.352  0.00  0.00     0.048 H 
BRANCH  52  55
ATOM     55  C23 non d ame     -36.084  10.061  35.970  0.00  0.00     0.259 C 
ATOM     56  O7  non d ame     -36.382  10.805  36.848  0.00  0.00    -0.265 OA
BRANCH  55  57
ATOM     57  O8  non d ame     -34.782   9.489  35.928  0.00  0.00    -0.317 OA
BRANCH  57  58
ATOM     58  C29 non d ame     -33.824  10.273  35.211  0.00  0.00     0.052 C 
ATOM     59  H47 non d ame     -32.942   9.641  35.110  0.00  0.00     0.082 H 
ATOM     60  H48 non d ame     -34.342  10.633  34.323  0.00  0.00     0.082 H 
BRANCH  58  61
ATOM     61  C35 non d ame     -33.453  11.497  36.091  0.00  0.00    -0.034 A 
ATOM     62  C30 non d ame     -32.307  11.465  36.880  0.00  0.00    -0.075 A 
ATOM     63  C31 non d ame     -31.974  12.564  37.671  0.00  0.00    -0.082 A 
ATOM     64  H49 non d ame     -31.671  10.580  36.880  0.00  0.00     0.084 H 
ATOM     65  C32 non d ame     -32.792  13.697  37.672  0.00  0.00    -0.083 A 
ATOM     66  H50 non d ame     -31.074  12.537  38.287  0.00  0.00     0.083 H 
ATOM     67  C33 non d ame     -33.936  13.722  36.886  0.00  0.00    -0.082 A 
ATOM     68  H51 non d ame     -32.538  14.561  38.287  0.00  0.00     0.083 H 
ATOM     69  C34 non d ame     -34.272  12.627  36.093  0.00  0.00    -0.075 A 
ATOM     70  H52 non d ame     -34.574  14.607  36.891  0.00  0.00     0.083 H 
ATOM     71  H53 non d ame     -35.171  12.655  35.477  0.00  0.00     0.084 H 
ENDBRANCH  58  61
ENDBRANCH  57  58
ENDBRANCH  55  57
ENDBRANCH  52  55
ENDBRANCH  49  52
ENDBRANCH  47  49
BRANCH  47  72
ATOM     72  C24 non d ame     -37.642   6.409  34.041  0.00  0.00    -0.039 C 
ATOM     73  H35 non d ame     -36.643   6.352  34.475  0.00  0.00     0.036 H 
ATOM     74  H36 non d ame     -38.519   6.384  34.688  0.00  0.00     0.036 H 
BRANCH  72  75
ATOM     75  C25 non d ame     -37.780   5.191  33.010  0.00  0.00    -0.001 C 
ATOM     76  C26 non d ame     -39.323   5.104  32.450  0.00  0.00    -0.035 C 
ATOM     77  C27 non d ame     -39.774   3.836  32.606  0.00  0.00     0.085 C 
ATOM     78  H38 non d ame     -39.986   5.690  33.086  0.00  0.00     0.036 H 
ATOM     79  H39 non d ame     -39.338   5.248  31.369  0.00  0.00     0.036 H 
ATOM     80  N5  non d ame     -38.799   3.131  33.519  0.00  0.00    -0.049 N 
ATOM     81  H40 non d ame     -40.734   3.929  33.114  0.00  0.00     0.075 H 
ATOM     82  H41 non d ame     -39.723   3.385  31.616  0.00  0.00     0.075 H 
ATOM     83  C28 non d ame     -37.485   4.067  33.573  0.00  0.00     0.193 C 
ATOM     84  H42 non d ame     -39.223   3.119  34.435  0.00  0.00     0.280 HD
ATOM     85  H43 non d ame     -38.558   2.263  33.062  0.00  0.00     0.280 HD
ATOM     86  H44 non d ame     -36.589   3.795  33.014  0.00  0.00     0.129 H 
ATOM     87  H37 non d ame     -36.982   5.186  32.268  0.00  0.00     0.046 H 
BRANCH  83  88
ATOM     88  O6  non d ame     -37.056   4.237  34.925  0.00  0.00    -0.369 OA
ATOM     89  H45 non d ame     -36.738   3.398  35.268  0.00  0.00     0.212 HD
ENDBRANCH  83  88
ENDBRANCH  72  75
ENDBRANCH  47  72
ENDBRANCH  45  47
ENDBRANCH   1  43
BRANCH   1  90
ATOM     90  C16 non d ame     -36.751   9.632  28.854  0.00  0.00    -0.035 C 
ATOM     91  H21 non d ame     -37.330  10.543  28.997  0.00  0.00     0.037 H 
ATOM     92  H22 non d ame     -35.784   9.517  29.344  0.00  0.00     0.037 H 
BRANCH  90  93
ATOM     93  C17 non d ame     -36.485   9.516  27.319  0.00  0.00    -0.059 C 
ATOM     94  H23 non d ame     -35.577  10.077  27.098  0.00  0.00     0.038 H 
BRANCH  93  95
ATOM     95  C18 non d ame     -36.252   8.038  26.871  0.00  0.00    -0.073 C 
ATOM     96  H24 non d ame     -35.654   7.520  27.621  0.00  0.00     0.028 H 
ATOM     97  H25 non d ame     -37.213   7.535  26.764  0.00  0.00     0.028 H 
ATOM     98  H26 non d ame     -35.727   8.026  25.916  0.00  0.00     0.028 H 
ENDBRANCH  93  95
BRANCH  93  99
ATOM     99  C19 non d ame     -37.622  10.155  26.517  0.00  0.00    -0.073 C 
ATOM    100  H27 non d ame     -38.106  10.923  27.122  0.00  0.00     0.028 H 
ATOM    101  H28 non d ame     -37.219  10.608  25.611  0.00  0.00     0.028 H 
ATOM    102  H29 non d ame     -38.351   9.391  26.248  0.00  0.00     0.028 H 
ENDBRANCH  93  99
ENDBRANCH  90  93
ENDBRANCH   1  90
TORSDOF 26
