MODEL 1
REMARK VINA RESULT:      -7.1      0.000      0.000
REMARK  26 active torsions:
REMARK  status: ('A' for Active; 'I' for Inactive)
REMARK    1  A    between atoms: C2_2  and  C3_3 
REMARK    2  A    between atoms: C4_6  and  C5_7 
REMARK       I    between atoms: C5_7  and  N2_9 
REMARK    3  A    between atoms: N2_9  and  C6_10 
REMARK    4  A    between atoms: C6_10  and  C7_11 
REMARK    5  A    between atoms: C6_10  and  C8_13 
REMARK       I    between atoms: C7_11  and  N3_14 
REMARK    6  A    between atoms: N3_14  and  C9_15 
REMARK    7  A    between atoms: C9_15  and  C10_16 
REMARK    8  A    between atoms: C9_15  and  C11_18 
REMARK       I    between atoms: C10_16  and  N4_21 
REMARK    9  A    between atoms: C11_18  and  C12_19 
REMARK   10  A    between atoms: C11_18  and  C13_20 
REMARK   11  A    between atoms: N4_21  and  C14_22 
REMARK   12  A    between atoms: C14_22  and  C15_23 
REMARK   13  A    between atoms: C14_22  and  C16_25 
REMARK       I    between atoms: C15_23  and  N6_40 
REMARK   14  A    between atoms: C16_25  and  C17_26 
REMARK   15  A    between atoms: C17_26  and  C18_27 
REMARK   16  A    between atoms: C17_26  and  C19_28 
REMARK   17  A    between atoms: C20_29  and  C21_30 
REMARK   18  A    between atoms: C20_29  and  C24_33 
REMARK   19  A    between atoms: C20_29  and  N6_40 
REMARK   20  A    between atoms: C21_30  and  C22_31 
REMARK   21  A    between atoms: C22_31  and  C23_32 
REMARK   22  A    between atoms: C23_32  and  O8_43 
REMARK   23  A    between atoms: C24_33  and  C25_34 
REMARK   24  A    between atoms: C28_38  and  O6_39 
REMARK   25  A    between atoms: C29_42  and  O8_43 
REMARK   26  A    between atoms: C29_42  and  C35_49 
ROOT
ATOM      1  C14 non d ame     -31.163  14.188  24.432  0.00  0.00     0.089 C 
ATOM      2  H20 non d ame     -30.164  13.766  24.546  0.00  0.00     0.087 H 
ENDROOT
BRANCH   1   3
ATOM      3  N4  non d ame     -32.119  13.103  24.597  0.00  0.00    -0.346 N 
ATOM      4  C10 non d ame     -31.791  11.928  25.482  0.00  0.00     0.241 C 
ATOM      5  O4  non d ame     -30.751  11.875  26.050  0.00  0.00    -0.271 OA
ATOM      6  H19 non d ame     -32.997  13.166  24.103  0.00  0.00     0.163 HD
BRANCH   4   7
ATOM      7  C9  non d ame     -32.794  10.815  25.645  0.00  0.00     0.092 C 
ATOM      8  H11 non d ame     -32.885  10.566  26.702  0.00  0.00     0.088 H 
BRANCH   7   9
ATOM      9  N3  non d ame     -34.111  11.274  25.192  0.00  0.00    -0.346 N 
ATOM     10  C7  non d ame     -35.139  11.577  26.157  0.00  0.00     0.240 C 
ATOM     11  O3  non d ame     -34.924  11.457  27.302  0.00  0.00    -0.271 OA
ATOM     12  H10 non d ame     -34.312  11.381  24.208  0.00  0.00     0.163 HD
BRANCH  10  13
ATOM     13  C6  non d ame     -36.540  12.062  25.670  0.00  0.00     0.086 C 
ATOM     14  H6  non d ame     -37.349  11.733  26.321  0.00  0.00     0.086 H 
BRANCH  13  15
ATOM     15  N2  non d ame     -36.565  13.515  25.677  0.00  0.00    -0.343 N 
ATOM     16  C5  non d ame     -37.686  14.214  26.309  0.00  0.00     0.273 C 
ATOM     17  O2  non d ame     -38.564  13.599  26.806  0.00  0.00    -0.266 OA
ATOM     18  H5  non d ame     -35.812  14.033  25.248  0.00  0.00     0.163 HD
BRANCH  16  19
ATOM     19  C4  non d ame     -37.724  15.750  26.325  0.00  0.00     0.154 A 
ATOM     20  C1  non d ame     -37.540  16.631  25.212  0.00  0.00    -0.017 A 
ATOM     21  C2  non d ame     -37.669  17.930  25.752  0.00  0.00     0.077 A 
ATOM     22  H1  non d ame     -37.343  16.368  24.173  0.00  0.00     0.091 H 
ATOM     23  O1  non d ame     -37.902  17.800  27.025  0.00  0.00    -0.218 OA
ATOM     24  N1  non d ame     -37.939  16.536  27.383  0.00  0.00    -0.123 NA
BRANCH  21  25
ATOM     25  C3  non d ame     -37.559  19.241  24.985  0.00  0.00    -0.029 C 
ATOM     26  H2  non d ame     -38.553  19.663  24.841  0.00  0.00     0.036 H 
ATOM     27  H3  non d ame     -36.946  19.943  25.551  0.00  0.00     0.036 H 
ATOM     28  H4  non d ame     -37.098  19.057  24.015  0.00  0.00     0.036 H 
ENDBRANCH  21  25
ENDBRANCH  16  19
ENDBRANCH  13  15
BRANCH  13  29
ATOM     29  C8  non d ame     -36.796  11.547  24.277  0.00  0.00    -0.049 C 
ATOM     30  H7  non d ame     -37.795  11.116  24.226  0.00  0.00     0.030 H 
ATOM     31  H8  non d ame     -36.720  12.369  23.566  0.00  0.00     0.030 H 
ATOM     32  H9  non d ame     -36.057  10.783  24.030  0.00  0.00     0.030 H 
ENDBRANCH  13  29
ENDBRANCH  10  13
ENDBRANCH   7   9
BRANCH   7  33
ATOM     33  C11 non d ame     -32.353   9.591  24.790  0.00  0.00    -0.033 C 
ATOM     34  H12 non d ame     -31.788   8.923  25.439  0.00  0.00     0.042 H 
BRANCH  33  35
ATOM     35  C12 non d ame     -33.586   8.796  24.258  0.00  0.00    -0.071 C 
ATOM     36  H13 non d ame     -34.113   9.396  23.515  0.00  0.00     0.028 H 
ATOM     37  H14 non d ame     -33.251   7.865  23.802  0.00  0.00     0.028 H 
ATOM     38  H15 non d ame     -34.260   8.574  25.086  0.00  0.00     0.028 H 
ENDBRANCH  33  35
BRANCH  33  39
ATOM     39  C13 non d ame     -31.417  10.034  23.620  0.00  0.00    -0.071 C 
ATOM     40  H16 non d ame     -30.881   9.166  23.235  0.00  0.00     0.028 H 
ATOM     41  H17 non d ame     -32.015  10.476  22.822  0.00  0.00     0.028 H 
ATOM     42  H18 non d ame     -30.701  10.770  23.986  0.00  0.00     0.028 H 
ENDBRANCH  33  39
ENDBRANCH   7  33
ENDBRANCH   4   7
ENDBRANCH   1   3
BRANCH   1  43
ATOM     43  C15 non d ame     -31.463  15.279  25.501  0.00  0.00     0.240 C 
ATOM     44  O5  non d ame     -31.023  16.375  25.367  0.00  0.00    -0.271 OA
ATOM     45  N6  non d ame     -32.309  14.961  26.686  0.00  0.00    -0.355 N 
ATOM     46  H46 non d ame     -32.693  14.034  26.809  0.00  0.00     0.162 HD
BRANCH  45  47
ATOM     47  C20 non d ame     -32.585  16.009  27.692  0.00  0.00     0.013 C 
ATOM     48  H30 non d ame     -31.857  16.808  27.551  0.00  0.00     0.072 H 
BRANCH  47  49
ATOM     49  C21 non d ame     -32.447  15.421  29.078  0.00  0.00    -0.038 C 
ATOM     50  H31 non d ame     -31.385  15.479  29.318  0.00  0.00     0.036 H 
ATOM     51  H32 non d ame     -33.175  15.949  29.695  0.00  0.00     0.036 H 
BRANCH  49  52
ATOM     52  C22 non d ame     -32.828  13.926  29.136  0.00  0.00     0.018 C 
ATOM     53  H33 non d ame     -33.589  13.845  29.912  0.00  0.00     0.048 H 
ATOM     54  H34 non d ame     -33.063  13.642  28.110  0.00  0.00     0.048 H 
BRANCH  52  55
ATOM     55  C23 non d ame     -31.663  13.000  29.581  0.00  0.00     0.259 C 
ATOM     56  O7  non d ame     -30.559  13.184  29.178  0.00  0.00    -0.265 OA
BRANCH  55  57
ATOM     57  O8  non d ame     -31.930  11.918  30.465  0.00  0.00    -0.317 OA
BRANCH  57  58
ATOM     58  C29 non d ame     -32.620  10.823  29.854  0.00  0.00     0.052 C 
ATOM     59  H47 non d ame     -33.107  11.237  28.972  0.00  0.00     0.082 H 
ATOM     60  H48 non d ame     -31.880  10.030  29.749  0.00  0.00     0.082 H 
BRANCH  58  61
ATOM     61  C35 non d ame     -33.718  10.340  30.840  0.00  0.00    -0.034 A 
ATOM     62  C30 non d ame     -34.183  11.194  31.836  0.00  0.00    -0.075 A 
ATOM     63  C31 non d ame     -35.169  10.760  32.722  0.00  0.00    -0.082 A 
ATOM     64  H49 non d ame     -33.776  12.201  31.924  0.00  0.00     0.084 H 
ATOM     65  C32 non d ame     -35.688   9.467  32.610  0.00  0.00    -0.083 A 
ATOM     66  H50 non d ame     -35.533  11.431  33.500  0.00  0.00     0.083 H 
ATOM     67  C33 non d ame     -35.218   8.619  31.617  0.00  0.00    -0.082 A 
ATOM     68  H51 non d ame     -36.460   9.121  33.298  0.00  0.00     0.083 H 
ATOM     69  C34 non d ame     -34.234   9.048  30.728  0.00  0.00    -0.075 A 
ATOM     70  H52 non d ame     -35.624   7.610  31.533  0.00  0.00     0.083 H 
ATOM     71  H53 non d ame     -33.871   8.377  29.950  0.00  0.00     0.084 H 
ENDBRANCH  58  61
ENDBRANCH  57  58
ENDBRANCH  55  57
ENDBRANCH  52  55
ENDBRANCH  49  52
ENDBRANCH  47  49
BRANCH  47  72
ATOM     72  C24 non d ame     -34.003  16.544  27.503  0.00  0.00    -0.039 C 
ATOM     73  H35 non d ame     -34.437  15.939  26.707  0.00  0.00     0.036 H 
ATOM     74  H36 non d ame     -34.451  16.538  28.497  0.00  0.00     0.036 H 
BRANCH  72  75
ATOM     75  C25 non d ame     -34.001  18.063  26.995  0.00  0.00    -0.001 C 
ATOM     76  C26 non d ame     -32.487  18.692  27.118  0.00  0.00    -0.035 C 
ATOM     77  C27 non d ame     -32.556  19.868  27.787  0.00  0.00     0.085 C 
ATOM     78  H38 non d ame     -31.873  18.066  27.765  0.00  0.00     0.036 H 
ATOM     79  H39 non d ame     -32.120  18.981  26.133  0.00  0.00     0.036 H 
ATOM     80  N5  non d ame     -33.927  19.938  28.417  0.00  0.00    -0.049 N 
ATOM     81  H40 non d ame     -31.806  19.799  28.575  0.00  0.00     0.075 H 
ATOM     82  H41 non d ame     -32.475  20.642  27.025  0.00  0.00     0.075 H 
ATOM     83  C28 non d ame     -34.805  18.791  27.695  0.00  0.00     0.193 C 
ATOM     84  H42 non d ame     -33.809  19.689  29.388  0.00  0.00     0.280 HD
ATOM     85  H43 non d ame     -34.308  20.840  28.168  0.00  0.00     0.280 HD
ATOM     86  H44 non d ame     -35.544  19.055  26.938  0.00  0.00     0.129 H 
ATOM     87  H37 non d ame     -34.510  18.179  26.038  0.00  0.00     0.046 H 
BRANCH  83  88
ATOM     88  O6  non d ame     -35.514  18.026  28.672  0.00  0.00    -0.369 OA
ATOM     89  H45 non d ame     -35.708  17.155  28.316  0.00  0.00     0.212 HD
ENDBRANCH  83  88
ENDBRANCH  72  75
ENDBRANCH  47  72
ENDBRANCH  45  47
ENDBRANCH   1  43
BRANCH   1  90
ATOM     90  C16 non d ame     -31.318  14.780  23.041  0.00  0.00    -0.035 C 
ATOM     91  H21 non d ame     -32.191  14.289  22.614  0.00  0.00     0.037 H 
ATOM     92  H22 non d ame     -31.315  15.861  23.185  0.00  0.00     0.037 H 
BRANCH  90  93
ATOM     93  C17 non d ame     -30.122  14.458  22.088  0.00  0.00    -0.059 C 
ATOM     94  H23 non d ame     -30.045  13.374  22.010  0.00  0.00     0.038 H 
BRANCH  93  95
ATOM     95  C18 non d ame     -30.346  15.024  20.650  0.00  0.00    -0.073 C 
ATOM     96  H24 non d ame     -31.057  15.850  20.689  0.00  0.00     0.028 H 
ATOM     97  H25 non d ame     -29.398  15.382  20.248  0.00  0.00     0.028 H 
ATOM     98  H26 non d ame     -30.739  14.237  20.006  0.00  0.00     0.028 H 
ENDBRANCH  93  95
BRANCH  93  99
ATOM     99  C19 non d ame     -28.803  14.968  22.674  0.00  0.00    -0.073 C 
ATOM    100  H27 non d ame     -28.592  15.964  22.283  0.00  0.00     0.028 H 
ATOM    101  H28 non d ame     -28.881  15.015  23.761  0.00  0.00     0.028 H 
ATOM    102  H29 non d ame     -27.996  14.290  22.396  0.00  0.00     0.028 H 
ENDBRANCH  93  99
ENDBRANCH  90  93
ENDBRANCH   1  90
TORSDOF 26
ENDMDL
MODEL 2
REMARK VINA RESULT:      -7.0      2.385      5.534
REMARK  26 active torsions:
REMARK  status: ('A' for Active; 'I' for Inactive)
REMARK    1  A    between atoms: C2_2  and  C3_3 
REMARK    2  A    between atoms: C4_6  and  C5_7 
REMARK       I    between atoms: C5_7  and  N2_9 
REMARK    3  A    between atoms: N2_9  and  C6_10 
REMARK    4  A    between atoms: C6_10  and  C7_11 
REMARK    5  A    between atoms: C6_10  and  C8_13 
REMARK       I    between atoms: C7_11  and  N3_14 
REMARK    6  A    between atoms: N3_14  and  C9_15 
REMARK    7  A    between atoms: C9_15  and  C10_16 
REMARK    8  A    between atoms: C9_15  and  C11_18 
REMARK       I    between atoms: C10_16  and  N4_21 
REMARK    9  A    between atoms: C11_18  and  C12_19 
REMARK   10  A    between atoms: C11_18  and  C13_20 
REMARK   11  A    between atoms: N4_21  and  C14_22 
REMARK   12  A    between atoms: C14_22  and  C15_23 
REMARK   13  A    between atoms: C14_22  and  C16_25 
REMARK       I    between atoms: C15_23  and  N6_40 
REMARK   14  A    between atoms: C16_25  and  C17_26 
REMARK   15  A    between atoms: C17_26  and  C18_27 
REMARK   16  A    between atoms: C17_26  and  C19_28 
REMARK   17  A    between atoms: C20_29  and  C21_30 
REMARK   18  A    between atoms: C20_29  and  C24_33 
REMARK   19  A    between atoms: C20_29  and  N6_40 
REMARK   20  A    between atoms: C21_30  and  C22_31 
REMARK   21  A    between atoms: C22_31  and  C23_32 
REMARK   22  A    between atoms: C23_32  and  O8_43 
REMARK   23  A    between atoms: C24_33  and  C25_34 
REMARK   24  A    between atoms: C28_38  and  O6_39 
REMARK   25  A    between atoms: C29_42  and  O8_43 
REMARK   26  A    between atoms: C29_42  and  C35_49 
ROOT
ATOM      1  C14 non d ame     -31.055  14.320  24.381  0.00  0.00     0.089 C 
ATOM      2  H20 non d ame     -30.109  14.228  24.914  0.00  0.00     0.087 H 
ENDROOT
BRANCH   1   3
ATOM      3  N4  non d ame     -31.466  12.981  23.983  0.00  0.00    -0.346 N 
ATOM      4  C10 non d ame     -31.348  11.830  24.949  0.00  0.00     0.241 C 
ATOM      5  O4  non d ame     -30.918  12.004  26.041  0.00  0.00    -0.271 OA
ATOM      6  H19 non d ame     -31.826  12.854  23.048  0.00  0.00     0.163 HD
BRANCH   4   7
ATOM      7  C9  non d ame     -31.781  10.452  24.522  0.00  0.00     0.092 C 
ATOM      8  H11 non d ame     -31.421   9.722  25.247  0.00  0.00     0.088 H 
BRANCH   7   9
ATOM      9  N3  non d ame     -33.246  10.378  24.524  0.00  0.00    -0.346 N 
ATOM     10  C7  non d ame     -33.929   9.655  25.567  0.00  0.00     0.240 C 
ATOM     11  O3  non d ame     -33.317   9.126  26.414  0.00  0.00    -0.271 OA
ATOM     12  H10 non d ame     -33.787  10.828  23.799  0.00  0.00     0.163 HD
BRANCH  10  13
ATOM     13  C6  non d ame     -35.488   9.577  25.562  0.00  0.00     0.086 C 
ATOM     14  H6  non d ame     -35.889   9.105  26.458  0.00  0.00     0.086 H 
BRANCH  13  15
ATOM     15  N2  non d ame     -36.028  10.925  25.525  0.00  0.00    -0.343 N 
ATOM     16  C5  non d ame     -36.347  11.609  26.779  0.00  0.00     0.273 C 
ATOM     17  O2  non d ame     -36.169  11.065  27.814  0.00  0.00    -0.266 OA
ATOM     18  H5  non d ame     -36.180  11.382  24.637  0.00  0.00     0.163 HD
BRANCH  16  19
ATOM     19  C4  non d ame     -36.918  13.036  26.755  0.00  0.00     0.154 A 
ATOM     20  C1  non d ame     -36.184  14.260  26.650  0.00  0.00    -0.017 A 
ATOM     21  C2  non d ame     -37.166  15.275  26.672  0.00  0.00     0.077 A 
ATOM     22  H1  non d ame     -35.105  14.390  26.569  0.00  0.00     0.091 H 
ATOM     23  O1  non d ame     -38.324  14.693  26.776  0.00  0.00    -0.218 OA
ATOM     24  N1  non d ame     -38.205  13.386  26.826  0.00  0.00    -0.123 NA
BRANCH  21  25
ATOM     25  C3  non d ame     -36.914  16.774  26.587  0.00  0.00    -0.029 C 
ATOM     26  H2  non d ame     -36.289  17.086  27.423  0.00  0.00     0.036 H 
ATOM     27  H3  non d ame     -36.406  17.006  25.651  0.00  0.00     0.036 H 
ATOM     28  H4  non d ame     -37.864  17.306  26.625  0.00  0.00     0.036 H 
ENDBRANCH  21  25
ENDBRANCH  16  19
ENDBRANCH  13  15
BRANCH  13  29
ATOM     29  C8  non d ame     -35.950   8.801  24.355  0.00  0.00    -0.049 C 
ATOM     30  H7  non d ame     -36.104   9.484  23.520  0.00  0.00     0.030 H 
ATOM     31  H8  non d ame     -35.195   8.064  24.085  0.00  0.00     0.030 H 
ATOM     32  H9  non d ame     -36.888   8.294  24.587  0.00  0.00     0.030 H 
ENDBRANCH  13  29
ENDBRANCH  10  13
ENDBRANCH   7   9
BRANCH   7  33
ATOM     33  C11 non d ame     -31.252  10.164  23.087  0.00  0.00    -0.033 C 
ATOM     34  H12 non d ame     -31.449  11.047  22.480  0.00  0.00     0.042 H 
BRANCH  33  35
ATOM     35  C12 non d ame     -29.709   9.930  23.087  0.00  0.00    -0.071 C 
ATOM     36  H13 non d ame     -29.439   9.287  23.925  0.00  0.00     0.028 H 
ATOM     37  H14 non d ame     -29.412   9.454  22.153  0.00  0.00     0.028 H 
ATOM     38  H15 non d ame     -29.197  10.887  23.186  0.00  0.00     0.028 H 
ENDBRANCH  33  35
BRANCH  33  39
ATOM     39  C13 non d ame     -32.007   8.957  22.444  0.00  0.00    -0.071 C 
ATOM     40  H16 non d ame     -32.350   8.283  23.229  0.00  0.00     0.028 H 
ATOM     41  H17 non d ame     -32.865   9.324  21.878  0.00  0.00     0.028 H 
ATOM     42  H18 non d ame     -31.334   8.422  21.774  0.00  0.00     0.028 H 
ENDBRANCH  33  39
ENDBRANCH   7  33
ENDBRANCH   4   7
ENDBRANCH   1   3
BRANCH   1  43
ATOM     43  C15 non d ame     -32.173  14.937  25.271  0.00  0.00     0.240 C 
ATOM     44  O5  non d ame     -33.311  14.841  24.942  0.00  0.00    -0.271 OA
ATOM     45  N6  non d ame     -31.825  15.638  26.539  0.00  0.00    -0.355 N 
ATOM     46  H46 non d ame     -30.862  15.722  26.832  0.00  0.00     0.162 HD
BRANCH  45  47
ATOM     47  C20 non d ame     -32.899  16.218  27.374  0.00  0.00     0.013 C 
ATOM     48  H30 non d ame     -33.847  16.052  26.862  0.00  0.00     0.072 H 
BRANCH  47  49
ATOM     49  C21 non d ame     -32.656  17.700  27.545  0.00  0.00    -0.038 C 
ATOM     50  H31 non d ame     -33.375  18.032  28.294  0.00  0.00     0.036 H 
ATOM     51  H32 non d ame     -31.586  17.803  27.732  0.00  0.00     0.036 H 
BRANCH  49  52
ATOM     52  C22 non d ame     -32.954  18.508  26.262  0.00  0.00     0.018 C 
ATOM     53  H33 non d ame     -31.987  18.857  25.903  0.00  0.00     0.048 H 
ATOM     54  H34 non d ame     -33.565  17.856  25.639  0.00  0.00     0.048 H 
BRANCH  52  55
ATOM     55  C23 non d ame     -33.805  19.784  26.511  0.00  0.00     0.259 C 
ATOM     56  O7  non d ame     -33.279  20.819  26.767  0.00  0.00    -0.265 OA
BRANCH  55  57
ATOM     57  O8  non d ame     -35.223  19.700  26.442  0.00  0.00    -0.317 OA
BRANCH  57  58
ATOM     58  C29 non d ame     -35.899  20.884  26.876  0.00  0.00     0.052 C 
ATOM     59  H47 non d ame     -35.123  21.538  27.272  0.00  0.00     0.082 H 
ATOM     60  H48 non d ame     -36.505  21.205  26.030  0.00  0.00     0.082 H 
BRANCH  58  61
ATOM     61  C35 non d ame     -36.851  20.492  28.038  0.00  0.00    -0.034 A 
ATOM     62  C30 non d ame     -38.133  21.031  28.099  0.00  0.00    -0.075 A 
ATOM     63  C31 non d ame     -38.988  20.680  29.143  0.00  0.00    -0.082 A 
ATOM     64  H49 non d ame     -38.467  21.728  27.331  0.00  0.00     0.084 H 
ATOM     65  C32 non d ame     -38.557  19.788  30.129  0.00  0.00    -0.083 A 
ATOM     66  H50 non d ame     -39.993  21.102  29.188  0.00  0.00     0.083 H 
ATOM     67  C33 non d ame     -37.276  19.256  30.065  0.00  0.00    -0.082 A 
ATOM     68  H51 non d ame     -39.219  19.507  30.948  0.00  0.00     0.083 H 
ATOM     69  C34 non d ame     -36.418  19.603  29.023  0.00  0.00    -0.075 A 
ATOM     70  H52 non d ame     -36.941  18.562  30.837  0.00  0.00     0.083 H 
ATOM     71  H53 non d ame     -35.415  19.180  28.979  0.00  0.00     0.084 H 
ENDBRANCH  58  61
ENDBRANCH  57  58
ENDBRANCH  55  57
ENDBRANCH  52  55
ENDBRANCH  49  52
ENDBRANCH  47  49
BRANCH  47  72
ATOM     72  C24 non d ame     -32.911  15.541  28.743  0.00  0.00    -0.039 C 
ATOM     73  H35 non d ame     -32.785  16.348  29.466  0.00  0.00     0.036 H 
ATOM     74  H36 non d ame     -33.815  14.932  28.759  0.00  0.00     0.036 H 
BRANCH  72  75
ATOM     75  C25 non d ame     -31.668  14.547  28.924  0.00  0.00    -0.001 C 
ATOM     76  C26 non d ame     -32.208  13.031  29.258  0.00  0.00    -0.035 C 
ATOM     77  C27 non d ame     -31.571  12.573  30.363  0.00  0.00     0.085 C 
ATOM     78  H38 non d ame     -33.253  13.064  29.562  0.00  0.00     0.036 H 
ATOM     79  H39 non d ame     -31.890  12.340  28.476  0.00  0.00     0.036 H 
ATOM     80  N5  non d ame     -30.889  13.760  31.001  0.00  0.00    -0.049 N 
ATOM     81  H40 non d ame     -32.359  12.216  31.025  0.00  0.00     0.075 H 
ATOM     82  H41 non d ame     -30.812  11.883  29.996  0.00  0.00     0.075 H 
ATOM     83  C28 non d ame     -30.900  14.930  29.889  0.00  0.00     0.193 C 
ATOM     84  H42 non d ame     -31.475  14.045  31.773  0.00  0.00     0.280 HD
ATOM     85  H43 non d ame     -29.933  13.483  31.168  0.00  0.00     0.280 HD
ATOM     86  H44 non d ame     -29.993  15.175  29.335  0.00  0.00     0.129 H 
ATOM     87  H37 non d ame     -30.938  14.649  28.121  0.00  0.00     0.046 H 
BRANCH  83  88
ATOM     88  O6  non d ame     -31.337  16.159  30.471  0.00  0.00    -0.369 OA
ATOM     89  H45 non d ame     -32.282  16.115  30.642  0.00  0.00     0.212 HD
ENDBRANCH  83  88
ENDBRANCH  72  75
ENDBRANCH  47  72
ENDBRANCH  45  47
ENDBRANCH   1  43
BRANCH   1  90
ATOM     90  C16 non d ame     -30.865  15.172  23.136  0.00  0.00    -0.035 C 
ATOM     91  H21 non d ame     -31.868  15.347  22.751  0.00  0.00     0.037 H 
ATOM     92  H22 non d ame     -30.247  16.012  23.454  0.00  0.00     0.037 H 
BRANCH  90  93
ATOM     93  C17 non d ame     -30.076  14.450  21.998  0.00  0.00    -0.059 C 
ATOM     94  H23 non d ame     -30.397  13.408  21.983  0.00  0.00     0.038 H 
BRANCH  93  95
ATOM     95  C18 non d ame     -30.377  15.060  20.592  0.00  0.00    -0.073 C 
ATOM     96  H24 non d ame     -30.681  16.101  20.705  0.00  0.00     0.028 H 
ATOM     97  H25 non d ame     -29.480  15.010  19.975  0.00  0.00     0.028 H 
ATOM     98  H26 non d ame     -31.179  14.497  20.116  0.00  0.00     0.028 H 
ENDBRANCH  93  95
BRANCH  93  99
ATOM     99  C19 non d ame     -28.572  14.459  22.284  0.00  0.00    -0.073 C 
ATOM    100  H27 non d ame     -28.386  14.963  23.234  0.00  0.00     0.028 H 
ATOM    101  H28 non d ame     -28.205  13.433  22.341  0.00  0.00     0.028 H 
ATOM    102  H29 non d ame     -28.053  14.986  21.484  0.00  0.00     0.028 H 
ENDBRANCH  93  99
ENDBRANCH  90  93
ENDBRANCH   1  90
TORSDOF 26
ENDMDL
MODEL 3
REMARK VINA RESULT:      -7.0      2.346      6.090
REMARK  26 active torsions:
REMARK  status: ('A' for Active; 'I' for Inactive)
REMARK    1  A    between atoms: C2_2  and  C3_3 
REMARK    2  A    between atoms: C4_6  and  C5_7 
REMARK       I    between atoms: C5_7  and  N2_9 
REMARK    3  A    between atoms: N2_9  and  C6_10 
REMARK    4  A    between atoms: C6_10  and  C7_11 
REMARK    5  A    between atoms: C6_10  and  C8_13 
REMARK       I    between atoms: C7_11  and  N3_14 
REMARK    6  A    between atoms: N3_14  and  C9_15 
REMARK    7  A    between atoms: C9_15  and  C10_16 
REMARK    8  A    between atoms: C9_15  and  C11_18 
REMARK       I    between atoms: C10_16  and  N4_21 
REMARK    9  A    between atoms: C11_18  and  C12_19 
REMARK   10  A    between atoms: C11_18  and  C13_20 
REMARK   11  A    between atoms: N4_21  and  C14_22 
REMARK   12  A    between atoms: C14_22  and  C15_23 
REMARK   13  A    between atoms: C14_22  and  C16_25 
REMARK       I    between atoms: C15_23  and  N6_40 
REMARK   14  A    between atoms: C16_25  and  C17_26 
REMARK   15  A    between atoms: C17_26  and  C18_27 
REMARK   16  A    between atoms: C17_26  and  C19_28 
REMARK   17  A    between atoms: C20_29  and  C21_30 
REMARK   18  A    between atoms: C20_29  and  C24_33 
REMARK   19  A    between atoms: C20_29  and  N6_40 
REMARK   20  A    between atoms: C21_30  and  C22_31 
REMARK   21  A    between atoms: C22_31  and  C23_32 
REMARK   22  A    between atoms: C23_32  and  O8_43 
REMARK   23  A    between atoms: C24_33  and  C25_34 
REMARK   24  A    between atoms: C28_38  and  O6_39 
REMARK   25  A    between atoms: C29_42  and  O8_43 
REMARK   26  A    between atoms: C29_42  and  C35_49 
ROOT
ATOM      1  C14 non d ame     -30.969  13.639  24.753  0.00  0.00     0.089 C 
ATOM      2  H20 non d ame     -30.013  13.429  25.234  0.00  0.00     0.087 H 
ENDROOT
BRANCH   1   3
ATOM      3  N4  non d ame     -31.418  12.411  24.115  0.00  0.00    -0.346 N 
ATOM      4  C10 non d ame     -31.261  11.086  24.817  0.00  0.00     0.241 C 
ATOM      5  O4  non d ame     -30.767  11.032  25.895  0.00  0.00    -0.271 OA
ATOM      6  H19 non d ame     -31.833  12.478  23.197  0.00  0.00     0.163 HD
BRANCH   4   7
ATOM      7  C9  non d ame     -31.736   9.825  24.144  0.00  0.00     0.092 C 
ATOM      8  H11 non d ame     -31.566   8.978  24.808  0.00  0.00     0.088 H 
BRANCH   7   9
ATOM      9  N3  non d ame     -33.181   9.910  23.910  0.00  0.00    -0.346 N 
ATOM     10  C7  non d ame     -34.099   9.322  24.854  0.00  0.00     0.240 C 
ATOM     11  O3  non d ame     -33.693   8.777  25.807  0.00  0.00    -0.271 OA
ATOM     12  H10 non d ame     -33.546  10.376  23.092  0.00  0.00     0.163 HD
BRANCH  10  13
ATOM     13  C6  non d ame     -35.636   9.413  24.599  0.00  0.00     0.086 C 
ATOM     14  H6  non d ame     -36.219   9.375  25.519  0.00  0.00     0.086 H 
BRANCH  13  15
ATOM     15  N2  non d ame     -35.935  10.688  23.970  0.00  0.00    -0.343 N 
ATOM     16  C5  non d ame     -37.162  11.401  24.332  0.00  0.00     0.273 C 
ATOM     17  O2  non d ame     -37.904  10.939  25.128  0.00  0.00    -0.266 OA
ATOM     18  H5  non d ame     -35.297  11.075  23.289  0.00  0.00     0.163 HD
BRANCH  16  19
ATOM     19  C4  non d ame     -37.490  12.751  23.675  0.00  0.00     0.154 A 
ATOM     20  C1  non d ame     -37.549  14.031  24.311  0.00  0.00    -0.017 A 
ATOM     21  C2  non d ame     -37.888  14.934  23.280  0.00  0.00     0.077 A 
ATOM     22  H1  non d ame     -37.373  14.268  25.361  0.00  0.00     0.091 H 
ATOM     23  O1  non d ame     -38.006  14.245  22.183  0.00  0.00    -0.218 OA
ATOM     24  N1  non d ame     -37.778  12.968  22.389  0.00  0.00    -0.123 NA
BRANCH  21  25
ATOM     25  C3  non d ame     -38.078  16.438  23.424  0.00  0.00    -0.029 C 
ATOM     26  H2  non d ame     -37.994  16.911  22.447  0.00  0.00     0.036 H 
ATOM     27  H3  non d ame     -39.065  16.642  23.841  0.00  0.00     0.036 H 
ATOM     28  H4  non d ame     -37.314  16.840  24.089  0.00  0.00     0.036 H 
ENDBRANCH  21  25
ENDBRANCH  16  19
ENDBRANCH  13  15
BRANCH  13  29
ATOM     29  C8  non d ame     -36.067   8.280  23.702  0.00  0.00    -0.049 C 
ATOM     30  H7  non d ame     -36.369   7.429  24.311  0.00  0.00     0.030 H 
ATOM     31  H8  non d ame     -36.906   8.603  23.087  0.00  0.00     0.030 H 
ATOM     32  H9  non d ame     -35.235   7.990  23.059  0.00  0.00     0.030 H 
ENDBRANCH  13  29
ENDBRANCH  10  13
ENDBRANCH   7   9
BRANCH   7  33
ATOM     33  C11 non d ame     -31.003   9.658  22.780  0.00  0.00    -0.033 C 
ATOM     34  H12 non d ame     -31.194  10.555  22.192  0.00  0.00     0.042 H 
BRANCH  33  35
ATOM     35  C12 non d ame     -29.459   9.546  22.977  0.00  0.00    -0.071 C 
ATOM     36  H13 non d ame     -28.950  10.014  22.134  0.00  0.00     0.028 H 
ATOM     37  H14 non d ame     -29.172  10.049  23.899  0.00  0.00     0.028 H 
ATOM     38  H15 non d ame     -29.174   8.495  23.031  0.00  0.00     0.028 H 
ENDBRANCH  33  35
BRANCH  33  39
ATOM     39  C13 non d ame     -31.564   8.433  21.990  0.00  0.00    -0.071 C 
ATOM     40  H16 non d ame     -31.634   7.572  22.655  0.00  0.00     0.028 H 
ATOM     41  H17 non d ame     -32.554   8.674  21.600  0.00  0.00     0.028 H 
ATOM     42  H18 non d ame     -30.896   8.198  21.161  0.00  0.00     0.028 H 
ENDBRANCH  33  39
ENDBRANCH   7  33
ENDBRANCH   4   7
ENDBRANCH   1   3
BRANCH   1  43
ATOM     43  C15 non d ame     -32.052  14.092  25.775  0.00  0.00     0.240 C 
ATOM     44  O5  non d ame     -33.195  14.115  25.452  0.00  0.00    -0.271 OA
ATOM     45  N6  non d ame     -31.664  14.487  27.159  0.00  0.00    -0.355 N 
ATOM     46  H46 non d ame     -30.696  14.467  27.446  0.00  0.00     0.162 HD
BRANCH  45  47
ATOM     47  C20 non d ame     -32.706  14.914  28.118  0.00  0.00     0.013 C 
ATOM     48  H30 non d ame     -33.673  14.604  27.721  0.00  0.00     0.072 H 
BRANCH  47  49
ATOM     49  C21 non d ame     -32.664  16.418  28.265  0.00  0.00    -0.038 C 
ATOM     50  H31 non d ame     -33.036  16.626  29.268  0.00  0.00     0.036 H 
ATOM     51  H32 non d ame     -31.652  16.713  27.987  0.00  0.00     0.036 H 
BRANCH  49  52
ATOM     52  C22 non d ame     -33.614  17.143  27.286  0.00  0.00     0.018 C 
ATOM     53  H33 non d ame     -34.200  16.358  26.809  0.00  0.00     0.048 H 
ATOM     54  H34 non d ame     -34.112  17.913  27.875  0.00  0.00     0.048 H 
BRANCH  52  55
ATOM     55  C23 non d ame     -32.880  17.889  26.138  0.00  0.00     0.259 C 
ATOM     56  O7  non d ame     -31.926  17.406  25.619  0.00  0.00    -0.265 OA
BRANCH  55  57
ATOM     57  O8  non d ame     -33.352  19.165  25.722  0.00  0.00    -0.317 OA
BRANCH  57  58
ATOM     58  C29 non d ame     -33.996  19.914  26.757  0.00  0.00     0.052 C 
ATOM     59  H47 non d ame     -34.005  19.262  27.630  0.00  0.00     0.082 H 
ATOM     60  H48 non d ame     -33.477  20.871  26.795  0.00  0.00     0.082 H 
BRANCH  58  61
ATOM     61  C35 non d ame     -35.463  20.170  26.319  0.00  0.00    -0.034 A 
ATOM     62  C30 non d ame     -35.946  19.609  25.141  0.00  0.00    -0.075 A 
ATOM     63  C31 non d ame     -37.264  19.840  24.748  0.00  0.00    -0.082 A 
ATOM     64  H49 non d ame     -35.294  18.990  24.526  0.00  0.00     0.084 H 
ATOM     65  C32 non d ame     -38.099  20.636  25.537  0.00  0.00    -0.083 A 
ATOM     66  H50 non d ame     -37.641  19.397  23.825  0.00  0.00     0.083 H 
ATOM     67  C33 non d ame     -37.610  21.197  26.709  0.00  0.00    -0.082 A 
ATOM     68  H51 non d ame     -39.131  20.821  25.237  0.00  0.00     0.083 H 
ATOM     69  C34 non d ame     -36.295  20.968  27.107  0.00  0.00    -0.075 A 
ATOM     70  H52 non d ame     -38.264  21.820  27.321  0.00  0.00     0.083 H 
ATOM     71  H53 non d ame     -35.919  21.410  28.030  0.00  0.00     0.084 H 
ENDBRANCH  58  61
ENDBRANCH  57  58
ENDBRANCH  55  57
ENDBRANCH  52  55
ENDBRANCH  49  52
ENDBRANCH  47  49
BRANCH  47  72
ATOM     72  C24 non d ame     -32.456  14.261  29.476  0.00  0.00    -0.039 C 
ATOM     73  H35 non d ame     -31.719  14.894  29.970  0.00  0.00     0.036 H 
ATOM     74  H36 non d ame     -33.443  14.126  29.919  0.00  0.00     0.036 H 
BRANCH  72  75
ATOM     75  C25 non d ame     -31.804  12.806  29.323  0.00  0.00    -0.001 C 
ATOM     76  C26 non d ame     -32.984  11.662  29.316  0.00  0.00    -0.035 C 
ATOM     77  C27 non d ame     -32.676  10.710  30.230  0.00  0.00     0.085 C 
ATOM     78  H38 non d ame     -33.916  12.082  29.691  0.00  0.00     0.036 H 
ATOM     79  H39 non d ame     -32.974  11.119  28.370  0.00  0.00     0.036 H 
ATOM     80  N5  non d ame     -31.565  11.267  31.088  0.00  0.00    -0.049 N 
ATOM     81  H40 non d ame     -33.571  10.591  30.840  0.00  0.00     0.075 H 
ATOM     82  H41 non d ame     -32.292   9.868  29.655  0.00  0.00     0.075 H 
ATOM     83  C28 non d ame     -30.994  12.553  30.296  0.00  0.00     0.193 C 
ATOM     84  H42 non d ame     -31.996  11.583  31.944  0.00  0.00     0.280 HD
ATOM     85  H43 non d ame     -30.844  10.560  31.116  0.00  0.00     0.280 HD
ATOM     86  H44 non d ame     -30.048  12.495  29.757  0.00  0.00     0.129 H 
ATOM     87  H37 non d ame     -31.069  12.766  28.519  0.00  0.00     0.046 H 
BRANCH  83  88
ATOM     88  O6  non d ame     -30.859  13.661  31.188  0.00  0.00    -0.369 OA
ATOM     89  H45 non d ame     -31.275  13.449  32.027  0.00  0.00     0.212 HD
ENDBRANCH  83  88
ENDBRANCH  72  75
ENDBRANCH  47  72
ENDBRANCH  45  47
ENDBRANCH   1  43
BRANCH   1  90
ATOM     90  C16 non d ame     -30.786  14.713  23.693  0.00  0.00    -0.035 C 
ATOM     91  H21 non d ame     -31.770  14.846  23.245  0.00  0.00     0.037 H 
ATOM     92  H22 non d ame     -30.302  15.545  24.205  0.00  0.00     0.037 H 
BRANCH  90  93
ATOM     93  C17 non d ame     -29.828  14.291  22.533  0.00  0.00    -0.059 C 
ATOM     94  H23 non d ame     -29.757  13.203  22.544  0.00  0.00     0.038 H 
BRANCH  93  95
ATOM     95  C18 non d ame     -30.373  14.718  21.133  0.00  0.00    -0.073 C 
ATOM     96  H24 non d ame     -30.107  13.964  20.393  0.00  0.00     0.028 H 
ATOM     97  H25 non d ame     -31.458  14.813  21.179  0.00  0.00     0.028 H 
ATOM     98  H26 non d ame     -29.935  15.675  20.850  0.00  0.00     0.028 H 
ENDBRANCH  93  95
BRANCH  93  99
ATOM     99  C19 non d ame     -28.418  14.842  22.760  0.00  0.00    -0.073 C 
ATOM    100  H27 non d ame     -28.426  15.925  22.627  0.00  0.00     0.028 H 
ATOM    101  H28 non d ame     -28.092  14.604  23.773  0.00  0.00     0.028 H 
ATOM    102  H29 non d ame     -27.732  14.392  22.043  0.00  0.00     0.028 H 
ENDBRANCH  93  99
ENDBRANCH  90  93
ENDBRANCH   1  90
TORSDOF 26
ENDMDL
MODEL 4
REMARK VINA RESULT:      -6.8      3.307      7.794
REMARK  26 active torsions:
REMARK  status: ('A' for Active; 'I' for Inactive)
REMARK    1  A    between atoms: C2_2  and  C3_3 
REMARK    2  A    between atoms: C4_6  and  C5_7 
REMARK       I    between atoms: C5_7  and  N2_9 
REMARK    3  A    between atoms: N2_9  and  C6_10 
REMARK    4  A    between atoms: C6_10  and  C7_11 
REMARK    5  A    between atoms: C6_10  and  C8_13 
REMARK       I    between atoms: C7_11  and  N3_14 
REMARK    6  A    between atoms: N3_14  and  C9_15 
REMARK    7  A    between atoms: C9_15  and  C10_16 
REMARK    8  A    between atoms: C9_15  and  C11_18 
REMARK       I    between atoms: C10_16  and  N4_21 
REMARK    9  A    between atoms: C11_18  and  C12_19 
REMARK   10  A    between atoms: C11_18  and  C13_20 
REMARK   11  A    between atoms: N4_21  and  C14_22 
REMARK   12  A    between atoms: C14_22  and  C15_23 
REMARK   13  A    between atoms: C14_22  and  C16_25 
REMARK       I    between atoms: C15_23  and  N6_40 
REMARK   14  A    between atoms: C16_25  and  C17_26 
REMARK   15  A    between atoms: C17_26  and  C18_27 
REMARK   16  A    between atoms: C17_26  and  C19_28 
REMARK   17  A    between atoms: C20_29  and  C21_30 
REMARK   18  A    between atoms: C20_29  and  C24_33 
REMARK   19  A    between atoms: C20_29  and  N6_40 
REMARK   20  A    between atoms: C21_30  and  C22_31 
REMARK   21  A    between atoms: C22_31  and  C23_32 
REMARK   22  A    between atoms: C23_32  and  O8_43 
REMARK   23  A    between atoms: C24_33  and  C25_34 
REMARK   24  A    between atoms: C28_38  and  O6_39 
REMARK   25  A    between atoms: C29_42  and  O8_43 
REMARK   26  A    between atoms: C29_42  and  C35_49 
ROOT
ATOM      1  C14 non d ame     -31.840   8.901  24.558  0.00  0.00     0.089 C 
ATOM      2  H20 non d ame     -30.918   8.363  24.780  0.00  0.00     0.087 H 
ENDROOT
BRANCH   1   3
ATOM      3  N4  non d ame     -32.889   7.912  24.364  0.00  0.00    -0.346 N 
ATOM      4  C10 non d ame     -32.677   6.482  24.793  0.00  0.00     0.241 C 
ATOM      5  O4  non d ame     -31.653   6.151  25.292  0.00  0.00    -0.271 OA
ATOM      6  H19 non d ame     -33.753   8.213  23.935  0.00  0.00     0.163 HD
BRANCH   4   7
ATOM      7  C9  non d ame     -33.776   5.472  24.589  0.00  0.00     0.092 C 
ATOM      8  H11 non d ame     -33.343   4.472  24.565  0.00  0.00     0.088 H 
BRANCH   7   9
ATOM      9  N3  non d ame     -34.700   5.517  25.726  0.00  0.00    -0.346 N 
ATOM     10  C7  non d ame     -34.507   4.631  26.847  0.00  0.00     0.240 C 
ATOM     11  O3  non d ame     -33.614   3.875  26.851  0.00  0.00    -0.271 OA
ATOM     12  H10 non d ame     -35.476   6.163  25.736  0.00  0.00     0.163 HD
BRANCH  10  13
ATOM     13  C6  non d ame     -35.496   4.682  28.053  0.00  0.00     0.086 C 
ATOM     14  H6  non d ame     -35.158   4.086  28.900  0.00  0.00     0.086 H 
BRANCH  13  15
ATOM     15  N2  non d ame     -35.597   6.053  28.523  0.00  0.00    -0.343 N 
ATOM     16  C5  non d ame     -35.154   6.386  29.879  0.00  0.00     0.273 C 
ATOM     17  O2  non d ame     -34.722   5.542  30.585  0.00  0.00    -0.266 OA
ATOM     18  H5  non d ame     -35.971   6.767  27.914  0.00  0.00     0.163 HD
BRANCH  16  19
ATOM     19  C4  non d ame     -35.255   7.832  30.388  0.00  0.00     0.154 A 
ATOM     20  C1  non d ame     -35.034   8.296  31.724  0.00  0.00    -0.017 A 
ATOM     21  C2  non d ame     -35.250   9.690  31.664  0.00  0.00     0.077 A 
ATOM     22  H1  non d ame     -34.759   7.710  32.601  0.00  0.00     0.091 H 
ATOM     23  O1  non d ame     -35.557   9.983  30.435  0.00  0.00    -0.218 OA
ATOM     24  N1  non d ame     -35.567   8.915  29.671  0.00  0.00    -0.123 NA
BRANCH  21  25
ATOM     25  C3  non d ame     -35.142  10.670  32.825  0.00  0.00    -0.029 C 
ATOM     26  H2  non d ame     -35.029  10.117  33.758  0.00  0.00     0.036 H 
ATOM     27  H3  non d ame     -34.274  11.313  32.678  0.00  0.00     0.036 H 
ATOM     28  H4  non d ame     -36.043  11.280  32.872  0.00  0.00     0.036 H 
ENDBRANCH  21  25
ENDBRANCH  16  19
ENDBRANCH  13  15
BRANCH  13  29
ATOM     29  C8  non d ame     -36.850   4.184  27.617  0.00  0.00    -0.049 C 
ATOM     30  H7  non d ame     -37.348   3.701  28.457  0.00  0.00     0.030 H 
ATOM     31  H8  non d ame     -37.453   5.023  27.272  0.00  0.00     0.030 H 
ATOM     32  H9  non d ame     -36.729   3.465  26.805  0.00  0.00     0.030 H 
ENDBRANCH  13  29
ENDBRANCH  10  13
ENDBRANCH   7   9
BRANCH   7  33
ATOM     33  C11 non d ame     -34.551   5.807  23.280  0.00  0.00    -0.033 C 
ATOM     34  H12 non d ame     -34.569   6.892  23.178  0.00  0.00     0.042 H 
BRANCH  33  35
ATOM     35  C12 non d ame     -33.824   5.230  22.026  0.00  0.00    -0.071 C 
ATOM     36  H13 non d ame     -33.167   5.991  21.604  0.00  0.00     0.028 H 
ATOM     37  H14 non d ame     -33.234   4.361  22.315  0.00  0.00     0.028 H 
ATOM     38  H15 non d ame     -34.563   4.937  21.280  0.00  0.00     0.028 H 
ENDBRANCH  33  35
BRANCH  33  39
ATOM     39  C13 non d ame     -36.028   5.305  23.361  0.00  0.00    -0.071 C 
ATOM     40  H16 non d ame     -36.177   4.764  24.295  0.00  0.00     0.028 H 
ATOM     41  H17 non d ame     -36.706   6.158  23.321  0.00  0.00     0.028 H 
ATOM     42  H18 non d ame     -36.232   4.641  22.521  0.00  0.00     0.028 H 
ENDBRANCH  33  39
ENDBRANCH   7  33
ENDBRANCH   4   7
ENDBRANCH   1   3
BRANCH   1  43
ATOM     43  C15 non d ame     -32.261   9.847  25.720  0.00  0.00     0.240 C 
ATOM     44  O5  non d ame     -32.397   9.411  26.817  0.00  0.00    -0.271 OA
ATOM     45  N6  non d ame     -32.484  11.299  25.466  0.00  0.00    -0.355 N 
ATOM     46  H46 non d ame     -32.367  11.682  24.539  0.00  0.00     0.162 HD
BRANCH  45  47
ATOM     47  C20 non d ame     -32.883  12.185  26.582  0.00  0.00     0.013 C 
ATOM     48  H30 non d ame     -33.410  11.578  27.318  0.00  0.00     0.072 H 
BRANCH  47  49
ATOM     49  C21 non d ame     -33.794  13.271  26.057  0.00  0.00    -0.038 C 
ATOM     50  H31 non d ame     -33.681  13.251  24.973  0.00  0.00     0.036 H 
ATOM     51  H32 non d ame     -34.769  13.080  26.507  0.00  0.00     0.036 H 
BRANCH  49  52
ATOM     52  C22 non d ame     -33.370  14.683  26.516  0.00  0.00     0.018 C 
ATOM     53  H33 non d ame     -34.021  14.929  27.354  0.00  0.00     0.048 H 
ATOM     54  H34 non d ame     -32.291  14.634  26.660  0.00  0.00     0.048 H 
BRANCH  52  55
ATOM     55  C23 non d ame     -33.610  15.786  25.448  0.00  0.00     0.259 C 
ATOM     56  O7  non d ame     -34.711  16.030  25.070  0.00  0.00    -0.265 OA
BRANCH  55  57
ATOM     57  O8  non d ame     -32.497  16.495  24.916  0.00  0.00    -0.317 OA
BRANCH  57  58
ATOM     58  C29 non d ame     -31.258  15.786  25.006  0.00  0.00     0.052 C 
ATOM     59  H47 non d ame     -30.607  16.408  25.619  0.00  0.00     0.082 H 
ATOM     60  H48 non d ame     -31.516  14.779  25.332  0.00  0.00     0.082 H 
BRANCH  58  61
ATOM     61  C35 non d ame     -30.653  15.699  23.579  0.00  0.00    -0.034 A 
ATOM     62  C30 non d ame     -31.376  16.166  22.486  0.00  0.00    -0.075 A 
ATOM     63  C31 non d ame     -30.833  16.087  21.204  0.00  0.00    -0.082 A 
ATOM     64  H49 non d ame     -32.368  16.593  22.633  0.00  0.00     0.084 H 
ATOM     65  C32 non d ame     -29.562  15.537  21.018  0.00  0.00    -0.083 A 
ATOM     66  H50 non d ame     -31.402  16.456  20.350  0.00  0.00     0.083 H 
ATOM     67  C33 non d ame     -28.846  15.068  22.111  0.00  0.00    -0.082 A 
ATOM     68  H51 non d ame     -29.130  15.472  20.019  0.00  0.00     0.083 H 
ATOM     69  C34 non d ame     -29.384  15.147  23.393  0.00  0.00    -0.075 A 
ATOM     70  H52 non d ame     -27.855  14.637  21.961  0.00  0.00     0.083 H 
ATOM     71  H53 non d ame     -28.815  14.779  24.247  0.00  0.00     0.084 H 
ENDBRANCH  58  61
ENDBRANCH  57  58
ENDBRANCH  55  57
ENDBRANCH  52  55
ENDBRANCH  49  52
ENDBRANCH  47  49
BRANCH  47  72
ATOM     72  C24 non d ame     -31.642  12.818  27.207  0.00  0.00    -0.039 C 
ATOM     73  H35 non d ame     -30.830  12.616  26.507  0.00  0.00     0.036 H 
ATOM     74  H36 non d ame     -31.923  13.846  27.433  0.00  0.00     0.036 H 
BRANCH  72  75
ATOM     75  C25 non d ame     -31.254  12.118  28.595  0.00  0.00    -0.001 C 
ATOM     76  C26 non d ame     -32.618  11.739  29.431  0.00  0.00    -0.035 C 
ATOM     77  C27 non d ame     -32.510  12.229  30.689  0.00  0.00     0.085 C 
ATOM     78  H38 non d ame     -33.471  12.279  29.020  0.00  0.00     0.036 H 
ATOM     79  H39 non d ame     -32.678  10.661  29.582  0.00  0.00     0.036 H 
ATOM     80  N5  non d ame     -31.342  13.187  30.690  0.00  0.00    -0.049 N 
ATOM     81  H40 non d ame     -33.429  12.788  30.864  0.00  0.00     0.075 H 
ATOM     82  H41 non d ame     -32.266  11.372  31.315  0.00  0.00     0.075 H 
ATOM     83  C28 non d ame     -30.530  12.898  29.325  0.00  0.00     0.193 C 
ATOM     84  H42 non d ame     -31.735  14.116  30.640  0.00  0.00     0.280 HD
ATOM     85  H43 non d ame     -30.760  12.925  31.473  0.00  0.00     0.280 HD
ATOM     86  H44 non d ame     -29.595  12.338  29.346  0.00  0.00     0.129 H 
ATOM     87  H37 non d ame     -30.516  11.327  28.466  0.00  0.00     0.046 H 
BRANCH  83  88
ATOM     88  O6  non d ame     -30.225  14.127  28.664  0.00  0.00    -0.369 OA
ATOM     89  H45 non d ame     -29.551  14.599  29.159  0.00  0.00     0.212 HD
ENDBRANCH  83  88
ENDBRANCH  72  75
ENDBRANCH  47  72
ENDBRANCH  45  47
ENDBRANCH   1  43
BRANCH   1  90
ATOM     90  C16 non d ame     -31.672   9.706  23.279  0.00  0.00    -0.035 C 
ATOM     91  H21 non d ame     -32.003   9.047  22.478  0.00  0.00     0.037 H 
ATOM     92  H22 non d ame     -32.191  10.648  23.461  0.00  0.00     0.037 H 
BRANCH  90  93
ATOM     93  C17 non d ame     -30.188  10.074  22.962  0.00  0.00    -0.059 C 
ATOM     94  H23 non d ame     -29.615   9.958  23.882  0.00  0.00     0.038 H 
BRANCH  93  95
ATOM     95  C18 non d ame     -29.562   9.126  21.889  0.00  0.00    -0.073 C 
ATOM     96  H24 non d ame     -28.651   8.678  22.286  0.00  0.00     0.028 H 
ATOM     97  H25 non d ame     -30.274   8.339  21.641  0.00  0.00     0.028 H 
ATOM     98  H26 non d ame     -29.325   9.698  20.993  0.00  0.00     0.028 H 
ENDBRANCH  93  95
BRANCH  93  99
ATOM     99  C19 non d ame     -30.067  11.538  22.531  0.00  0.00    -0.073 C 
ATOM    100  H27 non d ame     -30.966  11.832  21.988  0.00  0.00     0.028 H 
ATOM    101  H28 non d ame     -29.953  12.169  23.412  0.00  0.00     0.028 H 
ATOM    102  H29 non d ame     -29.197  11.656  21.885  0.00  0.00     0.028 H 
ENDBRANCH  93  99
ENDBRANCH  90  93
ENDBRANCH   1  90
TORSDOF 26
ENDMDL
MODEL 5
REMARK VINA RESULT:      -6.8      2.844      7.626
REMARK  26 active torsions:
REMARK  status: ('A' for Active; 'I' for Inactive)
REMARK    1  A    between atoms: C2_2  and  C3_3 
REMARK    2  A    between atoms: C4_6  and  C5_7 
REMARK       I    between atoms: C5_7  and  N2_9 
REMARK    3  A    between atoms: N2_9  and  C6_10 
REMARK    4  A    between atoms: C6_10  and  C7_11 
REMARK    5  A    between atoms: C6_10  and  C8_13 
REMARK       I    between atoms: C7_11  and  N3_14 
REMARK    6  A    between atoms: N3_14  and  C9_15 
REMARK    7  A    between atoms: C9_15  and  C10_16 
REMARK    8  A    between atoms: C9_15  and  C11_18 
REMARK       I    between atoms: C10_16  and  N4_21 
REMARK    9  A    between atoms: C11_18  and  C12_19 
REMARK   10  A    between atoms: C11_18  and  C13_20 
REMARK   11  A    between atoms: N4_21  and  C14_22 
REMARK   12  A    between atoms: C14_22  and  C15_23 
REMARK   13  A    between atoms: C14_22  and  C16_25 
REMARK       I    between atoms: C15_23  and  N6_40 
REMARK   14  A    between atoms: C16_25  and  C17_26 
REMARK   15  A    between atoms: C17_26  and  C18_27 
REMARK   16  A    between atoms: C17_26  and  C19_28 
REMARK   17  A    between atoms: C20_29  and  C21_30 
REMARK   18  A    between atoms: C20_29  and  C24_33 
REMARK   19  A    between atoms: C20_29  and  N6_40 
REMARK   20  A    between atoms: C21_30  and  C22_31 
REMARK   21  A    between atoms: C22_31  and  C23_32 
REMARK   22  A    between atoms: C23_32  and  O8_43 
REMARK   23  A    between atoms: C24_33  and  C25_34 
REMARK   24  A    between atoms: C28_38  and  O6_39 
REMARK   25  A    between atoms: C29_42  and  O8_43 
REMARK   26  A    between atoms: C29_42  and  C35_49 
ROOT
ATOM      1  C14 non d ame     -35.666  14.888  26.843  0.00  0.00     0.089 C 
ATOM      2  H20 non d ame     -35.817  15.241  27.864  0.00  0.00     0.087 H 
ENDROOT
BRANCH   1   3
ATOM      3  N4  non d ame     -34.478  15.549  26.322  0.00  0.00    -0.346 N 
ATOM      4  C10 non d ame     -33.683  16.485  27.196  0.00  0.00     0.241 C 
ATOM      5  O4  non d ame     -34.019  16.694  28.315  0.00  0.00    -0.271 OA
ATOM      6  H19 non d ame     -34.211  15.360  25.367  0.00  0.00     0.163 HD
BRANCH   4   7
ATOM      7  C9  non d ame     -32.454  17.157  26.642  0.00  0.00     0.092 C 
ATOM      8  H11 non d ame     -31.620  16.998  27.325  0.00  0.00     0.088 H 
BRANCH   7   9
ATOM      9  N3  non d ame     -32.092  16.538  25.363  0.00  0.00    -0.346 N 
ATOM     10  C7  non d ame     -31.291  15.339  25.345  0.00  0.00     0.240 C 
ATOM     11  O3  non d ame     -30.929  14.859  26.349  0.00  0.00    -0.271 OA
ATOM     12  H10 non d ame     -32.396  16.942  24.489  0.00  0.00     0.163 HD
BRANCH  10  13
ATOM     13  C6  non d ame     -30.906  14.686  23.981  0.00  0.00     0.086 C 
ATOM     14  H6  non d ame     -29.842  14.766  23.761  0.00  0.00     0.086 H 
BRANCH  13  15
ATOM     15  N2  non d ame     -31.214  13.266  24.034  0.00  0.00    -0.343 N 
ATOM     16  C5  non d ame     -30.460  12.333  23.195  0.00  0.00     0.273 C 
ATOM     17  O2  non d ame     -29.611  12.734  22.477  0.00  0.00    -0.266 OA
ATOM     18  H5  non d ame     -31.943  12.933  24.648  0.00  0.00     0.163 HD
BRANCH  16  19
ATOM     19  C4  non d ame     -30.775  10.829  23.241  0.00  0.00     0.154 A 
ATOM     20  C1  non d ame     -30.031   9.771  22.630  0.00  0.00    -0.017 A 
ATOM     21  C2  non d ame     -30.732   8.592  22.969  0.00  0.00     0.077 A 
ATOM     22  H1  non d ame     -29.123   9.847  22.031  0.00  0.00     0.091 H 
ATOM     23  O1  non d ame     -31.754   8.943  23.693  0.00  0.00    -0.218 OA
ATOM     24  N1  non d ame     -31.801  10.244  23.865  0.00  0.00    -0.123 NA
BRANCH  21  25
ATOM     25  C3  non d ame     -30.357   7.173  22.565  0.00  0.00    -0.029 C 
ATOM     26  H2  non d ame     -29.334   6.963  22.878  0.00  0.00     0.036 H 
ATOM     27  H3  non d ame     -31.034   6.467  23.046  0.00  0.00     0.036 H 
ATOM     28  H4  non d ame     -30.434   7.070  21.483  0.00  0.00     0.036 H 
ENDBRANCH  21  25
ENDBRANCH  16  19
ENDBRANCH  13  15
BRANCH  13  29
ATOM     29  C8  non d ame     -31.684  15.342  22.869  0.00  0.00    -0.049 C 
ATOM     30  H7  non d ame     -31.886  14.612  22.086  0.00  0.00     0.030 H 
ATOM     31  H8  non d ame     -32.627  15.723  23.261  0.00  0.00     0.030 H 
ATOM     32  H9  non d ame     -31.102  16.167  22.456  0.00  0.00     0.030 H 
ENDBRANCH  13  29
ENDBRANCH  10  13
ENDBRANCH   7   9
BRANCH   7  33
ATOM     33  C11 non d ame     -32.747  18.670  26.417  0.00  0.00    -0.033 C 
ATOM     34  H12 non d ame     -32.011  19.046  25.708  0.00  0.00     0.042 H 
BRANCH  33  35
ATOM     35  C12 non d ame     -34.159  18.887  25.787  0.00  0.00    -0.071 C 
ATOM     36  H13 non d ame     -34.268  19.930  25.490  0.00  0.00     0.028 H 
ATOM     37  H14 non d ame     -34.268  18.247  24.912  0.00  0.00     0.028 H 
ATOM     38  H15 non d ame     -34.926  18.637  26.520  0.00  0.00     0.028 H 
ENDBRANCH  33  35
BRANCH  33  39
ATOM     39  C13 non d ame     -32.591  19.474  27.747  0.00  0.00    -0.071 C 
ATOM     40  H16 non d ame     -32.824  18.826  28.593  0.00  0.00     0.028 H 
ATOM     41  H17 non d ame     -31.566  19.834  27.837  0.00  0.00     0.028 H 
ATOM     42  H18 non d ame     -33.274  20.323  27.742  0.00  0.00     0.028 H 
ENDBRANCH  33  39
ENDBRANCH   7  33
ENDBRANCH   4   7
ENDBRANCH   1   3
BRANCH   1  43
ATOM     43  C15 non d ame     -35.443  13.349  26.781  0.00  0.00     0.240 C 
ATOM     44  O5  non d ame     -35.864  12.728  25.860  0.00  0.00    -0.271 OA
ATOM     45  N6  non d ame     -34.696  12.652  27.866  0.00  0.00    -0.355 N 
ATOM     46  H46 non d ame     -34.329  13.170  28.652  0.00  0.00     0.162 HD
BRANCH  45  47
ATOM     47  C20 non d ame     -34.492  11.189  27.792  0.00  0.00     0.013 C 
ATOM     48  H30 non d ame     -34.493  10.904  26.740  0.00  0.00     0.072 H 
BRANCH  47  49
ATOM     49  C21 non d ame     -35.619  10.489  28.519  0.00  0.00    -0.038 C 
ATOM     50  H31 non d ame     -35.384  10.576  29.580  0.00  0.00     0.036 H 
ATOM     51  H32 non d ame     -36.537  10.926  28.126  0.00  0.00     0.036 H 
BRANCH  49  52
ATOM     52  C22 non d ame     -35.686   8.978  28.208  0.00  0.00     0.018 C 
ATOM     53  H33 non d ame     -36.737   8.761  28.027  0.00  0.00     0.048 H 
ATOM     54  H34 non d ame     -34.950   8.807  27.422  0.00  0.00     0.048 H 
BRANCH  52  55
ATOM     55  C23 non d ame     -35.259   8.075  29.398  0.00  0.00     0.259 C 
ATOM     56  O7  non d ame     -35.495   8.400  30.516  0.00  0.00    -0.265 OA
BRANCH  55  57
ATOM     57  O8  non d ame     -34.569   6.858  29.137  0.00  0.00    -0.317 OA
BRANCH  57  58
ATOM     58  C29 non d ame     -35.245   5.691  29.615  0.00  0.00     0.052 C 
ATOM     59  H47 non d ame     -35.995   6.052  30.318  0.00  0.00     0.082 H 
ATOM     60  H48 non d ame     -35.550   5.142  28.725  0.00  0.00     0.082 H 
BRANCH  58  61
ATOM     61  C35 non d ame     -34.216   4.828  30.394  0.00  0.00    -0.034 A 
ATOM     62  C30 non d ame     -34.345   4.665  31.770  0.00  0.00    -0.075 A 
ATOM     63  C31 non d ame     -33.421   3.891  32.470  0.00  0.00    -0.082 A 
ATOM     64  H49 non d ame     -35.169   5.144  32.300  0.00  0.00     0.084 H 
ATOM     65  C32 non d ame     -32.364   3.280  31.790  0.00  0.00    -0.083 A 
ATOM     66  H50 non d ame     -33.526   3.763  33.549  0.00  0.00     0.083 H 
ATOM     67  C33 non d ame     -32.238   3.449  30.418  0.00  0.00    -0.082 A 
ATOM     68  H51 non d ame     -31.638   2.672  32.330  0.00  0.00     0.083 H 
ATOM     69  C34 non d ame     -33.159   4.221  29.714  0.00  0.00    -0.075 A 
ATOM     70  H52 non d ame     -31.410   2.973  29.890  0.00  0.00     0.083 H 
ATOM     71  H53 non d ame     -33.055   4.347  28.636  0.00  0.00     0.084 H 
ENDBRANCH  58  61
ENDBRANCH  57  58
ENDBRANCH  55  57
ENDBRANCH  52  55
ENDBRANCH  49  52
ENDBRANCH  47  49
BRANCH  47  72
ATOM     72  C24 non d ame     -33.159  10.820  28.441  0.00  0.00    -0.039 C 
ATOM     73  H35 non d ame     -33.344   9.884  28.970  0.00  0.00     0.036 H 
ATOM     74  H36 non d ame     -32.426  10.854  27.635  0.00  0.00     0.036 H 
BRANCH  72  75
ATOM     75  C25 non d ame     -32.712  11.902  29.534  0.00  0.00    -0.001 C 
ATOM     76  C26 non d ame     -31.273  12.569  29.105  0.00  0.00    -0.035 C 
ATOM     77  C27 non d ame     -30.423  12.491  30.157  0.00  0.00     0.085 C 
ATOM     78  H38 non d ame     -30.790  11.959  28.342  0.00  0.00     0.036 H 
ATOM     79  H39 non d ame     -31.388  13.642  28.951  0.00  0.00     0.036 H 
ATOM     80  N5  non d ame     -31.043  11.539  31.153  0.00  0.00    -0.049 N 
ATOM     81  H40 non d ame     -29.510  12.047  29.762  0.00  0.00     0.075 H 
ATOM     82  H41 non d ame     -30.401  13.491  30.588  0.00  0.00     0.075 H 
ATOM     83  C28 non d ame     -32.582  11.361  30.699  0.00  0.00     0.193 C 
ATOM     84  H42 non d ame     -30.569  10.656  31.037  0.00  0.00     0.280 HD
ATOM     85  H43 non d ame     -31.023  12.010  32.047  0.00  0.00     0.280 HD
ATOM     86  H44 non d ame     -33.380  11.867  31.243  0.00  0.00     0.129 H 
ATOM     87  H37 non d ame     -33.520  12.587  29.791  0.00  0.00     0.046 H 
BRANCH  83  88
ATOM     88  O6  non d ame     -32.937   9.978  30.695  0.00  0.00    -0.369 OA
ATOM     89  H45 non d ame     -32.236   9.465  31.105  0.00  0.00     0.212 HD
ENDBRANCH  83  88
ENDBRANCH  72  75
ENDBRANCH  47  72
ENDBRANCH  45  47
ENDBRANCH   1  43
BRANCH   1  90
ATOM     90  C16 non d ame     -36.862  15.266  25.985  0.00  0.00    -0.035 C 
ATOM     91  H21 non d ame     -36.564  15.044  24.961  0.00  0.00     0.037 H 
ATOM     92  H22 non d ame     -37.712  14.748  26.431  0.00  0.00     0.037 H 
BRANCH  90  93
ATOM     93  C17 non d ame     -37.203  16.790  26.023  0.00  0.00    -0.059 C 
ATOM     94  H23 non d ame     -36.329  17.333  25.663  0.00  0.00     0.038 H 
BRANCH  93  95
ATOM     95  C18 non d ame     -38.404  17.149  25.091  0.00  0.00    -0.073 C 
ATOM     96  H24 non d ame     -38.871  16.232  24.729  0.00  0.00     0.028 H 
ATOM     97  H25 non d ame     -39.136  17.732  25.649  0.00  0.00     0.028 H 
ATOM     98  H26 non d ame     -38.045  17.732  24.243  0.00  0.00     0.028 H 
ENDBRANCH  93  95
BRANCH  93  99
ATOM     99  C19 non d ame     -37.470  17.255  27.457  0.00  0.00    -0.073 C 
ATOM    100  H27 non d ame     -37.695  18.322  27.456  0.00  0.00     0.028 H 
ATOM    101  H28 non d ame     -38.318  16.706  27.867  0.00  0.00     0.028 H 
ATOM    102  H29 non d ame     -36.587  17.070  28.069  0.00  0.00     0.028 H 
ENDBRANCH  93  99
ENDBRANCH  90  93
ENDBRANCH   1  90
TORSDOF 26
ENDMDL
MODEL 6
REMARK VINA RESULT:      -6.7      2.983      8.808
REMARK  26 active torsions:
REMARK  status: ('A' for Active; 'I' for Inactive)
REMARK    1  A    between atoms: C2_2  and  C3_3 
REMARK    2  A    between atoms: C4_6  and  C5_7 
REMARK       I    between atoms: C5_7  and  N2_9 
REMARK    3  A    between atoms: N2_9  and  C6_10 
REMARK    4  A    between atoms: C6_10  and  C7_11 
REMARK    5  A    between atoms: C6_10  and  C8_13 
REMARK       I    between atoms: C7_11  and  N3_14 
REMARK    6  A    between atoms: N3_14  and  C9_15 
REMARK    7  A    between atoms: C9_15  and  C10_16 
REMARK    8  A    between atoms: C9_15  and  C11_18 
REMARK       I    between atoms: C10_16  and  N4_21 
REMARK    9  A    between atoms: C11_18  and  C12_19 
REMARK   10  A    between atoms: C11_18  and  C13_20 
REMARK   11  A    between atoms: N4_21  and  C14_22 
REMARK   12  A    between atoms: C14_22  and  C15_23 
REMARK   13  A    between atoms: C14_22  and  C16_25 
REMARK       I    between atoms: C15_23  and  N6_40 
REMARK   14  A    between atoms: C16_25  and  C17_26 
REMARK   15  A    between atoms: C17_26  and  C18_27 
REMARK   16  A    between atoms: C17_26  and  C19_28 
REMARK   17  A    between atoms: C20_29  and  C21_30 
REMARK   18  A    between atoms: C20_29  and  C24_33 
REMARK   19  A    between atoms: C20_29  and  N6_40 
REMARK   20  A    between atoms: C21_30  and  C22_31 
REMARK   21  A    between atoms: C22_31  and  C23_32 
REMARK   22  A    between atoms: C23_32  and  O8_43 
REMARK   23  A    between atoms: C24_33  and  C25_34 
REMARK   24  A    between atoms: C28_38  and  O6_39 
REMARK   25  A    between atoms: C29_42  and  O8_43 
REMARK   26  A    between atoms: C29_42  and  C35_49 
ROOT
ATOM      1  C14 non d ame     -34.012   7.057  28.120  0.00  0.00     0.089 C 
ATOM      2  H20 non d ame     -33.423   6.648  28.942  0.00  0.00     0.087 H 
ENDROOT
BRANCH   1   3
ATOM      3  N4  non d ame     -34.493   8.367  28.536  0.00  0.00    -0.346 N 
ATOM      4  C10 non d ame     -34.866   8.620  29.974  0.00  0.00     0.241 C 
ATOM      5  O4  non d ame     -34.773   7.755  30.780  0.00  0.00    -0.271 OA
ATOM      6  H19 non d ame     -34.568   9.089  27.834  0.00  0.00     0.163 HD
BRANCH   4   7
ATOM      7  C9  non d ame     -35.357   9.983  30.387  0.00  0.00     0.092 C 
ATOM      8  H11 non d ame     -35.319  10.064  31.473  0.00  0.00     0.088 H 
BRANCH   7   9
ATOM      9  N3  non d ame     -34.464  11.011  29.843  0.00  0.00    -0.346 N 
ATOM     10  C7  non d ame     -33.194  11.269  30.475  0.00  0.00     0.240 C 
ATOM     11  O3  non d ame     -32.875  10.660  31.422  0.00  0.00    -0.271 OA
ATOM     12  H10 non d ame     -34.727  11.545  29.027  0.00  0.00     0.163 HD
BRANCH  10  13
ATOM     13  C6  non d ame     -32.249  12.366  29.894  0.00  0.00     0.086 C 
ATOM     14  H6  non d ame     -31.775  12.063  28.960  0.00  0.00     0.086 H 
BRANCH  13  15
ATOM     15  N2  non d ame     -33.031  13.554  29.596  0.00  0.00    -0.343 N 
ATOM     16  C5  non d ame     -32.430  14.638  28.817  0.00  0.00     0.273 C 
ATOM     17  O2  non d ame     -31.315  14.546  28.436  0.00  0.00    -0.266 OA
ATOM     18  H5  non d ame     -33.983  13.625  29.928  0.00  0.00     0.163 HD
BRANCH  16  19
ATOM     19  C4  non d ame     -33.247  15.899  28.494  0.00  0.00     0.154 A 
ATOM     20  C1  non d ame     -34.557  15.958  27.922  0.00  0.00    -0.017 A 
ATOM     21  C2  non d ame     -34.851  17.337  27.831  0.00  0.00     0.077 A 
ATOM     22  H1  non d ame     -35.195  15.128  27.619  0.00  0.00     0.091 H 
ATOM     23  O1  non d ame     -33.826  17.984  28.301  0.00  0.00    -0.218 OA
ATOM     24  N1  non d ame     -32.877  17.167  28.694  0.00  0.00    -0.123 NA
BRANCH  21  25
ATOM     25  C3  non d ame     -36.134  17.950  27.287  0.00  0.00    -0.029 C 
ATOM     26  H2  non d ame     -36.625  17.239  26.624  0.00  0.00     0.036 H 
ATOM     27  H3  non d ame     -36.801  18.193  28.114  0.00  0.00     0.036 H 
ATOM     28  H4  non d ame     -35.897  18.859  26.733  0.00  0.00     0.036 H 
ENDBRANCH  21  25
ENDBRANCH  16  19
ENDBRANCH  13  15
BRANCH  13  29
ATOM     29  C8  non d ame     -31.175  12.693  30.900  0.00  0.00    -0.049 C 
ATOM     30  H7  non d ame     -31.578  12.591  31.908  0.00  0.00     0.030 H 
ATOM     31  H8  non d ame     -30.337  12.008  30.774  0.00  0.00     0.030 H 
ATOM     32  H9  non d ame     -30.834  13.717  30.747  0.00  0.00     0.030 H 
ENDBRANCH  13  29
ENDBRANCH  10  13
ENDBRANCH   7   9
BRANCH   7  33
ATOM     33  C11 non d ame     -36.796  10.205  29.833  0.00  0.00    -0.033 C 
ATOM     34  H12 non d ame     -37.274  10.962  30.454  0.00  0.00     0.042 H 
BRANCH  33  35
ATOM     35  C12 non d ame     -36.763  10.748  28.371  0.00  0.00    -0.071 C 
ATOM     36  H13 non d ame     -35.730  10.924  28.071  0.00  0.00     0.028 H 
ATOM     37  H14 non d ame     -37.217  10.018  27.701  0.00  0.00     0.028 H 
ATOM     38  H15 non d ame     -37.319  11.685  28.319  0.00  0.00     0.028 H 
ENDBRANCH  33  35
BRANCH  33  39
ATOM     39  C13 non d ame     -37.641   8.895  29.932  0.00  0.00    -0.071 C 
ATOM     40  H16 non d ame     -36.990   8.061  30.196  0.00  0.00     0.028 H 
ATOM     41  H17 non d ame     -38.409   9.014  30.698  0.00  0.00     0.028 H 
ATOM     42  H18 non d ame     -38.116   8.695  28.972  0.00  0.00     0.028 H 
ENDBRANCH  33  39
ENDBRANCH   7  33
ENDBRANCH   4   7
ENDBRANCH   1   3
BRANCH   1  43
ATOM     43  C15 non d ame     -33.171   7.227  26.823  0.00  0.00     0.240 C 
ATOM     44  O5  non d ame     -32.355   6.411  26.536  0.00  0.00    -0.271 OA
ATOM     45  N6  non d ame     -33.388   8.402  25.932  0.00  0.00    -0.355 N 
ATOM     46  H46 non d ame     -34.082   9.099  26.162  0.00  0.00     0.162 HD
BRANCH  45  47
ATOM     47  C20 non d ame     -32.581   8.548  24.701  0.00  0.00     0.013 C 
ATOM     48  H30 non d ame     -31.568   8.211  24.924  0.00  0.00     0.072 H 
BRANCH  47  49
ATOM     49  C21 non d ame     -32.562  10.001  24.285  0.00  0.00    -0.038 C 
ATOM     50  H31 non d ame     -32.037  10.027  23.330  0.00  0.00     0.036 H 
ATOM     51  H32 non d ame     -33.597  10.338  24.347  0.00  0.00     0.036 H 
BRANCH  49  52
ATOM     52  C22 non d ame     -31.754  10.892  25.253  0.00  0.00     0.018 C 
ATOM     53  H33 non d ame     -31.485  10.250  26.090  0.00  0.00     0.048 H 
ATOM     54  H34 non d ame     -30.974  11.354  24.647  0.00  0.00     0.048 H 
BRANCH  52  55
ATOM     55  C23 non d ame     -32.576  12.064  25.859  0.00  0.00     0.259 C 
ATOM     56  O7  non d ame     -33.331  11.870  26.756  0.00  0.00    -0.265 OA
BRANCH  55  57
ATOM     57  O8  non d ame     -32.426  13.372  25.321  0.00  0.00    -0.317 OA
BRANCH  57  58
ATOM     58  C29 non d ame     -31.069  13.823  25.254  0.00  0.00     0.052 C 
ATOM     59  H47 non d ame     -31.017  14.696  25.903  0.00  0.00     0.082 H 
ATOM     60  H48 non d ame     -30.457  12.948  25.466  0.00  0.00     0.082 H 
BRANCH  58  61
ATOM     61  C35 non d ame     -30.788  14.276  23.796  0.00  0.00    -0.034 A 
ATOM     62  C30 non d ame     -30.099  13.436  22.927  0.00  0.00    -0.075 A 
ATOM     63  C31 non d ame     -29.845  13.843  21.618  0.00  0.00    -0.082 A 
ATOM     64  H49 non d ame     -29.756  12.460  23.271  0.00  0.00     0.084 H 
ATOM     65  C32 non d ame     -30.282  15.096  21.179  0.00  0.00    -0.083 A 
ATOM     66  H50 non d ame     -29.306  13.182  20.938  0.00  0.00     0.083 H 
ATOM     67  C33 non d ame     -30.965  15.932  22.052  0.00  0.00    -0.082 A 
ATOM     68  H51 non d ame     -30.088  15.422  20.157  0.00  0.00     0.083 H 
ATOM     69  C34 non d ame     -31.222  15.529  23.360  0.00  0.00    -0.075 A 
ATOM     70  H52 non d ame     -31.303  16.911  21.707  0.00  0.00     0.083 H 
ATOM     71  H53 non d ame     -31.762  16.190  24.039  0.00  0.00     0.084 H 
ENDBRANCH  58  61
ENDBRANCH  57  58
ENDBRANCH  55  57
ENDBRANCH  52  55
ENDBRANCH  49  52
ENDBRANCH  47  49
BRANCH  47  72
ATOM     72  C24 non d ame     -33.187   7.704  23.583  0.00  0.00    -0.039 C 
ATOM     73  H35 non d ame     -33.782   6.941  24.086  0.00  0.00     0.036 H 
ATOM     74  H36 non d ame     -33.669   8.415  22.911  0.00  0.00     0.036 H 
BRANCH  72  75
ATOM     75  C25 non d ame     -32.060   6.943  22.736  0.00  0.00    -0.001 C 
ATOM     76  C26 non d ame     -30.614   7.046  23.511  0.00  0.00    -0.035 C 
ATOM     77  C27 non d ame     -29.681   7.498  22.638  0.00  0.00     0.085 C 
ATOM     78  H38 non d ame     -30.650   7.826  24.271  0.00  0.00     0.036 H 
ATOM     79  H39 non d ame     -30.256   6.049  23.771  0.00  0.00     0.036 H 
ATOM     80  N5  non d ame     -30.424   8.024  21.433  0.00  0.00    -0.049 N 
ATOM     81  H40 non d ame     -29.189   8.329  23.144  0.00  0.00     0.075 H 
ATOM     82  H41 non d ame     -29.106   6.621  22.346  0.00  0.00     0.075 H 
ATOM     83  C28 non d ame     -31.931   7.460  21.560  0.00  0.00     0.193 C 
ATOM     84  H42 non d ame     -30.448   9.029  21.528  0.00  0.00     0.280 HD
ATOM     85  H43 non d ame     -29.989   7.603  20.625  0.00  0.00     0.280 HD
ATOM     86  H44 non d ame     -32.263   6.626  20.940  0.00  0.00     0.129 H 
ATOM     87  H37 non d ame     -32.382   5.953  22.416  0.00  0.00     0.046 H 
BRANCH  83  88
ATOM     88  O6  non d ame     -32.872   8.509  21.326  0.00  0.00    -0.369 OA
ATOM     89  H45 non d ame     -33.638   8.385  21.892  0.00  0.00     0.212 HD
ENDBRANCH  83  88
ENDBRANCH  72  75
ENDBRANCH  47  72
ENDBRANCH  45  47
ENDBRANCH   1  43
BRANCH   1  90
ATOM     90  C16 non d ame     -35.204   6.155  27.842  0.00  0.00    -0.035 C 
ATOM     91  H21 non d ame     -36.030   6.587  28.405  0.00  0.00     0.037 H 
ATOM     92  H22 non d ame     -35.262   6.082  26.756  0.00  0.00     0.037 H 
BRANCH  90  93
ATOM     93  C17 non d ame     -35.023   4.697  28.374  0.00  0.00    -0.059 C 
ATOM     94  H23 non d ame     -35.901   4.453  28.972  0.00  0.00     0.038 H 
BRANCH  93  95
ATOM     95  C18 non d ame     -34.931   3.654  27.215  0.00  0.00    -0.073 C 
ATOM     96  H24 non d ame     -35.907   3.548  26.742  0.00  0.00     0.028 H 
ATOM     97  H25 non d ame     -34.206   3.995  26.476  0.00  0.00     0.028 H 
ATOM     98  H26 non d ame     -34.615   2.691  27.617  0.00  0.00     0.028 H 
ENDBRANCH  93  95
BRANCH  93  99
ATOM     99  C19 non d ame     -33.803   4.598  29.294  0.00  0.00    -0.073 C 
ATOM    100  H27 non d ame     -33.013   5.250  28.920  0.00  0.00     0.028 H 
ATOM    101  H28 non d ame     -34.081   4.907  30.302  0.00  0.00     0.028 H 
ATOM    102  H29 non d ame     -33.447   3.569  29.315  0.00  0.00     0.028 H 
ENDBRANCH  93  99
ENDBRANCH  90  93
ENDBRANCH   1  90
TORSDOF 26
ENDMDL
MODEL 7
REMARK VINA RESULT:      -6.6      2.122      8.642
REMARK  26 active torsions:
REMARK  status: ('A' for Active; 'I' for Inactive)
REMARK    1  A    between atoms: C2_2  and  C3_3 
REMARK    2  A    between atoms: C4_6  and  C5_7 
REMARK       I    between atoms: C5_7  and  N2_9 
REMARK    3  A    between atoms: N2_9  and  C6_10 
REMARK    4  A    between atoms: C6_10  and  C7_11 
REMARK    5  A    between atoms: C6_10  and  C8_13 
REMARK       I    between atoms: C7_11  and  N3_14 
REMARK    6  A    between atoms: N3_14  and  C9_15 
REMARK    7  A    between atoms: C9_15  and  C10_16 
REMARK    8  A    between atoms: C9_15  and  C11_18 
REMARK       I    between atoms: C10_16  and  N4_21 
REMARK    9  A    between atoms: C11_18  and  C12_19 
REMARK   10  A    between atoms: C11_18  and  C13_20 
REMARK   11  A    between atoms: N4_21  and  C14_22 
REMARK   12  A    between atoms: C14_22  and  C15_23 
REMARK   13  A    between atoms: C14_22  and  C16_25 
REMARK       I    between atoms: C15_23  and  N6_40 
REMARK   14  A    between atoms: C16_25  and  C17_26 
REMARK   15  A    between atoms: C17_26  and  C18_27 
REMARK   16  A    between atoms: C17_26  and  C19_28 
REMARK   17  A    between atoms: C20_29  and  C21_30 
REMARK   18  A    between atoms: C20_29  and  C24_33 
REMARK   19  A    between atoms: C20_29  and  N6_40 
REMARK   20  A    between atoms: C21_30  and  C22_31 
REMARK   21  A    between atoms: C22_31  and  C23_32 
REMARK   22  A    between atoms: C23_32  and  O8_43 
REMARK   23  A    between atoms: C24_33  and  C25_34 
REMARK   24  A    between atoms: C28_38  and  O6_39 
REMARK   25  A    between atoms: C29_42  and  O8_43 
REMARK   26  A    between atoms: C29_42  and  C35_49 
ROOT
ATOM      1  C14 non d ame     -37.388  14.069  25.102  0.00  0.00     0.089 C 
ATOM      2  H20 non d ame     -38.435  14.089  25.404  0.00  0.00     0.087 H 
ENDROOT
BRANCH   1   3
ATOM      3  N4  non d ame     -36.839  15.397  25.333  0.00  0.00    -0.346 N 
ATOM      4  C10 non d ame     -37.619  16.417  26.123  0.00  0.00     0.241 C 
ATOM      5  O4  non d ame     -38.687  16.147  26.563  0.00  0.00    -0.271 OA
ATOM      6  H19 non d ame     -35.930  15.608  24.947  0.00  0.00     0.163 HD
BRANCH   4   7
ATOM      7  C9  non d ame     -37.034  17.785  26.356  0.00  0.00     0.092 C 
ATOM      8  H11 non d ame     -37.390  18.170  27.311  0.00  0.00     0.088 H 
BRANCH   7   9
ATOM      9  N3  non d ame     -35.574  17.685  26.446  0.00  0.00    -0.346 N 
ATOM     10  C7  non d ame     -34.910  17.945  27.699  0.00  0.00     0.240 C 
ATOM     11  O3  non d ame     -35.534  18.237  28.645  0.00  0.00    -0.271 OA
ATOM     12  H10 non d ame     -35.022  17.435  25.637  0.00  0.00     0.163 HD
BRANCH  10  13
ATOM     13  C6  non d ame     -33.356  17.839  27.788  0.00  0.00     0.086 C 
ATOM     14  H6  non d ame     -32.944  18.385  28.637  0.00  0.00     0.086 H 
BRANCH  13  15
ATOM     15  N2  non d ame     -32.987  16.446  27.971  0.00  0.00    -0.343 N 
ATOM     16  C5  non d ame     -32.174  16.060  29.126  0.00  0.00     0.273 C 
ATOM     17  O2  non d ame     -31.819  16.879  29.901  0.00  0.00    -0.266 OA
ATOM     18  H5  non d ame     -33.293  15.753  27.303  0.00  0.00     0.163 HD
BRANCH  16  19
ATOM     19  C4  non d ame     -31.778  14.589  29.333  0.00  0.00     0.154 A 
ATOM     20  C1  non d ame     -32.614  13.526  29.799  0.00  0.00    -0.017 A 
ATOM     21  C2  non d ame     -31.780  12.386  29.810  0.00  0.00     0.077 A 
ATOM     22  H1  non d ame     -33.665  13.574  30.084  0.00  0.00     0.091 H 
ATOM     23  O1  non d ame     -30.605  12.761  29.396  0.00  0.00    -0.218 OA
ATOM     24  N1  non d ame     -30.580  14.043  29.112  0.00  0.00    -0.123 NA
BRANCH  21  25
ATOM     25  C3  non d ame     -32.182  10.978  30.228  0.00  0.00    -0.029 C 
ATOM     26  H2  non d ame     -31.469  10.261  29.823  0.00  0.00     0.036 H 
ATOM     27  H3  non d ame     -32.186  10.909  31.316  0.00  0.00     0.036 H 
ATOM     28  H4  non d ame     -33.178  10.756  29.846  0.00  0.00     0.036 H 
ENDBRANCH  21  25
ENDBRANCH  16  19
ENDBRANCH  13  15
BRANCH  13  29
ATOM     29  C8  non d ame     -32.739  18.374  26.520  0.00  0.00    -0.049 C 
ATOM     30  H7  non d ame     -31.847  18.949  26.764  0.00  0.00     0.030 H 
ATOM     31  H8  non d ame     -32.469  17.544  25.869  0.00  0.00     0.030 H 
ATOM     32  H9  non d ame     -33.458  19.018  26.011  0.00  0.00     0.030 H 
ENDBRANCH  13  29
ENDBRANCH  10  13
ENDBRANCH   7   9
BRANCH   7  33
ATOM     33  C11 non d ame     -37.414  18.720  25.169  0.00  0.00    -0.033 C 
ATOM     34  H12 non d ame     -37.584  18.090  24.296  0.00  0.00     0.042 H 
BRANCH  33  35
ATOM     35  C12 non d ame     -38.740  19.491  25.456  0.00  0.00    -0.071 C 
ATOM     36  H13 non d ame     -38.928  19.503  26.530  0.00  0.00     0.028 H 
ATOM     37  H14 non d ame     -38.653  20.513  25.091  0.00  0.00     0.028 H 
ATOM     38  H15 non d ame     -39.567  18.992  24.951  0.00  0.00     0.028 H 
ENDBRANCH  33  35
BRANCH  33  39
ATOM     39  C13 non d ame     -36.247  19.703  24.836  0.00  0.00    -0.071 C 
ATOM     40  H16 non d ame     -35.483  19.637  25.611  0.00  0.00     0.028 H 
ATOM     41  H17 non d ame     -35.812  19.439  23.871  0.00  0.00     0.028 H 
ATOM     42  H18 non d ame     -36.632  20.722  24.792  0.00  0.00     0.028 H 
ENDBRANCH  33  39
ENDBRANCH   7  33
ENDBRANCH   4   7
ENDBRANCH   1   3
BRANCH   1  43
ATOM     43  C15 non d ame     -36.560  13.042  25.927  0.00  0.00     0.240 C 
ATOM     44  O5  non d ame     -36.718  12.962  27.102  0.00  0.00    -0.271 OA
ATOM     45  N6  non d ame     -35.576  12.149  25.250  0.00  0.00    -0.355 N 
ATOM     46  H46 non d ame     -35.436  12.204  24.251  0.00  0.00     0.162 HD
BRANCH  45  47
ATOM     47  C20 non d ame     -34.798  11.177  26.049  0.00  0.00     0.013 C 
ATOM     48  H30 non d ame     -34.791  11.523  27.082  0.00  0.00     0.072 H 
BRANCH  47  49
ATOM     49  C21 non d ame     -33.385  11.111  25.516  0.00  0.00    -0.038 C 
ATOM     50  H31 non d ame     -33.087  10.065  25.601  0.00  0.00     0.036 H 
ATOM     51  H32 non d ame     -33.416  11.590  24.537  0.00  0.00     0.036 H 
BRANCH  49  52
ATOM     52  C22 non d ame     -32.384  11.922  26.368  0.00  0.00     0.018 C 
ATOM     53  H33 non d ame     -32.790  11.923  27.378  0.00  0.00     0.048 H 
ATOM     54  H34 non d ame     -31.406  11.480  26.173  0.00  0.00     0.048 H 
BRANCH  52  55
ATOM     55  C23 non d ame     -32.271  13.414  25.949  0.00  0.00     0.259 C 
ATOM     56  O7  non d ame     -33.207  14.140  26.048  0.00  0.00    -0.265 OA
BRANCH  55  57
ATOM     57  O8  non d ame     -31.038  13.902  25.433  0.00  0.00    -0.317 OA
BRANCH  57  58
ATOM     58  C29 non d ame     -31.047  15.299  25.128  0.00  0.00     0.052 C 
ATOM     59  H47 non d ame     -32.091  15.607  25.183  0.00  0.00     0.082 H 
ATOM     60  H48 non d ame     -30.309  15.751  25.790  0.00  0.00     0.082 H 
BRANCH  58  61
ATOM     61  C35 non d ame     -30.561  15.472  23.664  0.00  0.00    -0.034 A 
ATOM     62  C30 non d ame     -29.285  15.051  23.300  0.00  0.00    -0.075 A 
ATOM     63  C31 non d ame     -28.848  15.207  21.985  0.00  0.00    -0.082 A 
ATOM     64  H49 non d ame     -28.628  14.601  24.043  0.00  0.00     0.084 H 
ATOM     65  C32 non d ame     -29.691  15.786  21.033  0.00  0.00    -0.083 A 
ATOM     66  H50 non d ame     -27.849  14.874  21.702  0.00  0.00     0.083 H 
ATOM     67  C33 non d ame     -30.961  16.208  21.402  0.00  0.00    -0.082 A 
ATOM     68  H51 non d ame     -29.358  15.911  20.002  0.00  0.00     0.083 H 
ATOM     69  C34 non d ame     -31.403  16.053  22.714  0.00  0.00    -0.075 A 
ATOM     70  H52 non d ame     -31.616  16.663  20.657  0.00  0.00     0.083 H 
ATOM     71  H53 non d ame     -32.402  16.385  22.996  0.00  0.00     0.084 H 
ENDBRANCH  58  61
ENDBRANCH  57  58
ENDBRANCH  55  57
ENDBRANCH  52  55
ENDBRANCH  49  52
ENDBRANCH  47  49
BRANCH  47  72
ATOM     72  C24 non d ame     -35.445   9.797  25.955  0.00  0.00    -0.039 C 
ATOM     73  H35 non d ame     -36.169   9.871  25.143  0.00  0.00     0.036 H 
ATOM     74  H36 non d ame     -34.616   9.092  25.883  0.00  0.00     0.036 H 
BRANCH  72  75
ATOM     75  C25 non d ame     -36.261   9.433  27.284  0.00  0.00    -0.001 C 
ATOM     76  C26 non d ame     -35.416   9.917  28.609  0.00  0.00    -0.035 C 
ATOM     77  C27 non d ame     -35.320   8.876  29.471  0.00  0.00     0.085 C 
ATOM     78  H38 non d ame     -34.380  10.121  28.339  0.00  0.00     0.036 H 
ATOM     79  H39 non d ame     -35.989  10.658  29.169  0.00  0.00     0.036 H 
ATOM     80  N5  non d ame     -35.736   7.637  28.713  0.00  0.00    -0.049 N 
ATOM     81  H40 non d ame     -34.261   8.802  29.720  0.00  0.00     0.075 H 
ATOM     82  H41 non d ame     -36.051   9.076  30.252  0.00  0.00     0.075 H 
ATOM     83  C28 non d ame     -36.466   8.161  27.373  0.00  0.00     0.193 C 
ATOM     84  H42 non d ame     -34.884   7.164  28.451  0.00  0.00     0.280 HD
ATOM     85  H43 non d ame     -36.419   7.167  29.290  0.00  0.00     0.280 HD
ATOM     86  H44 non d ame     -37.553   8.130  27.287  0.00  0.00     0.129 H 
ATOM     87  H37 non d ame     -37.305   9.737  27.224  0.00  0.00     0.046 H 
BRANCH  83  88
ATOM     88  O6  non d ame     -35.972   7.455  26.233  0.00  0.00    -0.369 OA
ATOM     89  H45 non d ame     -35.864   8.065  25.500  0.00  0.00     0.212 HD
ENDBRANCH  83  88
ENDBRANCH  72  75
ENDBRANCH  47  72
ENDBRANCH  45  47
ENDBRANCH   1  43
BRANCH   1  90
ATOM     90  C16 non d ame     -37.284  13.738  23.622  0.00  0.00    -0.035 C 
ATOM     91  H21 non d ame     -36.234  13.873  23.369  0.00  0.00     0.037 H 
ATOM     92  H22 non d ame     -37.751  12.759  23.513  0.00  0.00     0.037 H 
BRANCH  90  93
ATOM     93  C17 non d ame     -38.087  14.715  22.705  0.00  0.00    -0.059 C 
ATOM     94  H23 non d ame     -37.682  15.716  22.855  0.00  0.00     0.038 H 
BRANCH  93  95
ATOM     95  C18 non d ame     -37.934  14.362  21.191  0.00  0.00    -0.073 C 
ATOM     96  H24 non d ame     -37.084  14.902  20.775  0.00  0.00     0.028 H 
ATOM     97  H25 non d ame     -37.769  13.290  21.083  0.00  0.00     0.028 H 
ATOM     98  H26 non d ame     -38.842  14.646  20.658  0.00  0.00     0.028 H 
ENDBRANCH  93  95
BRANCH  93  99
ATOM     99  C19 non d ame     -39.563  14.755  23.108  0.00  0.00    -0.073 C 
ATOM    100  H27 non d ame     -40.185  14.589  22.227  0.00  0.00     0.028 H 
ATOM    101  H28 non d ame     -39.762  13.976  23.844  0.00  0.00     0.028 H 
ATOM    102  H29 non d ame     -39.796  15.729  23.539  0.00  0.00     0.028 H 
ENDBRANCH  93  99
ENDBRANCH  90  93
ENDBRANCH   1  90
TORSDOF 26
ENDMDL
MODEL 8
REMARK VINA RESULT:      -6.6      2.873      7.919
REMARK  26 active torsions:
REMARK  status: ('A' for Active; 'I' for Inactive)
REMARK    1  A    between atoms: C2_2  and  C3_3 
REMARK    2  A    between atoms: C4_6  and  C5_7 
REMARK       I    between atoms: C5_7  and  N2_9 
REMARK    3  A    between atoms: N2_9  and  C6_10 
REMARK    4  A    between atoms: C6_10  and  C7_11 
REMARK    5  A    between atoms: C6_10  and  C8_13 
REMARK       I    between atoms: C7_11  and  N3_14 
REMARK    6  A    between atoms: N3_14  and  C9_15 
REMARK    7  A    between atoms: C9_15  and  C10_16 
REMARK    8  A    between atoms: C9_15  and  C11_18 
REMARK       I    between atoms: C10_16  and  N4_21 
REMARK    9  A    between atoms: C11_18  and  C12_19 
REMARK   10  A    between atoms: C11_18  and  C13_20 
REMARK   11  A    between atoms: N4_21  and  C14_22 
REMARK   12  A    between atoms: C14_22  and  C15_23 
REMARK   13  A    between atoms: C14_22  and  C16_25 
REMARK       I    between atoms: C15_23  and  N6_40 
REMARK   14  A    between atoms: C16_25  and  C17_26 
REMARK   15  A    between atoms: C17_26  and  C18_27 
REMARK   16  A    between atoms: C17_26  and  C19_28 
REMARK   17  A    between atoms: C20_29  and  C21_30 
REMARK   18  A    between atoms: C20_29  and  C24_33 
REMARK   19  A    between atoms: C20_29  and  N6_40 
REMARK   20  A    between atoms: C21_30  and  C22_31 
REMARK   21  A    between atoms: C22_31  and  C23_32 
REMARK   22  A    between atoms: C23_32  and  O8_43 
REMARK   23  A    between atoms: C24_33  and  C25_34 
REMARK   24  A    between atoms: C28_38  and  O6_39 
REMARK   25  A    between atoms: C29_42  and  O8_43 
REMARK   26  A    between atoms: C29_42  and  C35_49 
ROOT
ATOM      1  C14 non d ame     -31.345  14.645  24.125  0.00  0.00     0.089 C 
ATOM      2  H20 non d ame     -30.347  14.757  24.548  0.00  0.00     0.087 H 
ENDROOT
BRANCH   1   3
ATOM      3  N4  non d ame     -31.595  13.220  23.962  0.00  0.00    -0.346 N 
ATOM      4  C10 non d ame     -31.338  12.267  25.101  0.00  0.00     0.241 C 
ATOM      5  O4  non d ame     -30.928  12.668  26.139  0.00  0.00    -0.271 OA
ATOM      6  H19 non d ame     -31.941  12.899  23.069  0.00  0.00     0.163 HD
BRANCH   4   7
ATOM      7  C9  non d ame     -31.606  10.796  24.916  0.00  0.00     0.092 C 
ATOM      8  H11 non d ame     -30.961  10.227  25.585  0.00  0.00     0.088 H 
BRANCH   7   9
ATOM      9  N3  non d ame     -32.992  10.500  25.294  0.00  0.00    -0.346 N 
ATOM     10  C7  non d ame     -33.301  10.111  26.648  0.00  0.00     0.240 C 
ATOM     11  O3  non d ame     -32.448  10.030  27.445  0.00  0.00    -0.271 OA
ATOM     12  H10 non d ame     -33.737  10.565  24.616  0.00  0.00     0.163 HD
BRANCH  10  13
ATOM     13  C6  non d ame     -34.777   9.794  27.044  0.00  0.00     0.086 C 
ATOM     14  H6  non d ame     -35.475   9.939  26.220  0.00  0.00     0.086 H 
BRANCH  13  15
ATOM     15  N2  non d ame     -34.873   8.396  27.429  0.00  0.00    -0.343 N 
ATOM     16  C5  non d ame     -34.795   7.358  26.400  0.00  0.00     0.273 C 
ATOM     17  O2  non d ame     -34.660   7.657  25.264  0.00  0.00    -0.266 OA
ATOM     18  H5  non d ame     -34.992   8.150  28.401  0.00  0.00     0.163 HD
BRANCH  16  19
ATOM     19  C4  non d ame     -34.895   5.875  26.793  0.00  0.00     0.154 A 
ATOM     20  C1  non d ame     -34.098   4.794  26.299  0.00  0.00    -0.017 A 
ATOM     21  C2  non d ame     -34.583   3.650  26.970  0.00  0.00     0.077 A 
ATOM     22  H1  non d ame     -33.292   4.834  25.566  0.00  0.00     0.091 H 
ATOM     23  O1  non d ame     -35.543   4.038  27.756  0.00  0.00    -0.218 OA
ATOM     24  N1  non d ame     -35.744   5.333  27.670  0.00  0.00    -0.123 NA
BRANCH  21  25
ATOM     25  C3  non d ame     -34.074   2.224  26.804  0.00  0.00    -0.029 C 
ATOM     26  H2  non d ame     -34.843   1.523  27.127  0.00  0.00     0.036 H 
ATOM     27  H3  non d ame     -33.836   2.042  25.756  0.00  0.00     0.036 H 
ATOM     28  H4  non d ame     -33.178   2.085  27.409  0.00  0.00     0.036 H 
ENDBRANCH  21  25
ENDBRANCH  16  19
ENDBRANCH  13  15
BRANCH  13  29
ATOM     29  C8  non d ame     -35.192  10.677  28.193  0.00  0.00    -0.049 C 
ATOM     30  H7  non d ame     -36.278  10.746  28.225  0.00  0.00     0.030 H 
ATOM     31  H8  non d ame     -34.828  10.251  29.128  0.00  0.00     0.030 H 
ATOM     32  H9  non d ame     -34.768  11.673  28.058  0.00  0.00     0.030 H 
ENDBRANCH  13  29
ENDBRANCH  10  13
ENDBRANCH   7   9
BRANCH   7  33
ATOM     33  C11 non d ame     -31.386  10.413  23.423  0.00  0.00    -0.033 C 
ATOM     34  H12 non d ame     -31.692  11.265  22.816  0.00  0.00     0.042 H 
BRANCH  33  35
ATOM     35  C12 non d ame     -29.880  10.139  23.123  0.00  0.00    -0.071 C 
ATOM     36  H13 non d ame     -29.327  11.079  23.149  0.00  0.00     0.028 H 
ATOM     37  H14 non d ame     -29.477   9.460  23.874  0.00  0.00     0.028 H 
ATOM     38  H15 non d ame     -29.781   9.690  22.135  0.00  0.00     0.028 H 
ENDBRANCH  33  35
BRANCH  33  39
ATOM     39  C13 non d ame     -32.275   9.192  23.022  0.00  0.00    -0.071 C 
ATOM     40  H16 non d ame     -33.239   9.263  23.527  0.00  0.00     0.028 H 
ATOM     41  H17 non d ame     -32.428   9.191  21.942  0.00  0.00     0.028 H 
ATOM     42  H18 non d ame     -31.777   8.268  23.317  0.00  0.00     0.028 H 
ENDBRANCH  33  39
ENDBRANCH   7  33
ENDBRANCH   4   7
ENDBRANCH   1   3
BRANCH   1  43
ATOM     43  C15 non d ame     -32.445  15.238  25.053  0.00  0.00     0.240 C 
ATOM     44  O5  non d ame     -33.539  15.425  24.628  0.00  0.00    -0.271 OA
ATOM     45  N6  non d ame     -32.137  15.562  26.475  0.00  0.00    -0.355 N 
ATOM     46  H46 non d ame     -31.212  15.402  26.849  0.00  0.00     0.162 HD
BRANCH  45  47
ATOM     47  C20 non d ame     -33.194  16.124  27.343  0.00  0.00     0.013 C 
ATOM     48  H30 non d ame     -34.158  15.876  26.900  0.00  0.00     0.072 H 
BRANCH  47  49
ATOM     49  C21 non d ame     -33.031  17.625  27.423  0.00  0.00    -0.038 C 
ATOM     50  H31 non d ame     -32.434  17.809  28.317  0.00  0.00     0.036 H 
ATOM     51  H32 non d ame     -32.658  17.932  26.445  0.00  0.00     0.036 H 
BRANCH  49  52
ATOM     52  C22 non d ame     -34.371  18.363  27.631  0.00  0.00     0.018 C 
ATOM     53  H33 non d ame     -35.125  17.751  27.138  0.00  0.00     0.048 H 
ATOM     54  H34 non d ame     -34.438  18.555  28.702  0.00  0.00     0.048 H 
BRANCH  52  55
ATOM     55  C23 non d ame     -34.432  19.755  26.942  0.00  0.00     0.259 C 
ATOM     56  O7  non d ame     -33.499  20.490  26.985  0.00  0.00    -0.265 OA
BRANCH  55  57
ATOM     57  O8  non d ame     -35.623  20.148  26.271  0.00  0.00    -0.317 OA
BRANCH  57  58
ATOM     58  C29 non d ame     -35.788  19.553  24.980  0.00  0.00     0.052 C 
ATOM     59  H47 non d ame     -34.957  19.919  24.378  0.00  0.00     0.082 H 
ATOM     60  H48 non d ame     -35.902  18.485  25.160  0.00  0.00     0.082 H 
BRANCH  58  61
ATOM     61  C35 non d ame     -37.110  20.091  24.371  0.00  0.00    -0.034 A 
ATOM     62  C30 non d ame     -38.125  20.551  25.205  0.00  0.00    -0.075 A 
ATOM     63  C31 non d ame     -39.313  21.034  24.658  0.00  0.00    -0.082 A 
ATOM     64  H49 non d ame     -37.990  20.533  26.287  0.00  0.00     0.084 H 
ATOM     65  C32 non d ame     -39.485  21.054  23.271  0.00  0.00    -0.083 A 
ATOM     66  H50 non d ame     -40.105  21.396  25.314  0.00  0.00     0.083 H 
ATOM     67  C33 non d ame     -38.472  20.590  22.444  0.00  0.00    -0.082 A 
ATOM     68  H51 non d ame     -40.411  21.431  22.836  0.00  0.00     0.083 H 
ATOM     69  C34 non d ame     -37.283  20.109  22.986  0.00  0.00    -0.075 A 
ATOM     70  H52 non d ame     -38.611  20.605  21.362  0.00  0.00     0.083 H 
ATOM     71  H53 non d ame     -36.491  19.748  22.329  0.00  0.00     0.084 H 
ENDBRANCH  58  61
ENDBRANCH  57  58
ENDBRANCH  55  57
ENDBRANCH  52  55
ENDBRANCH  49  52
ENDBRANCH  47  49
BRANCH  47  72
ATOM     72  C24 non d ame     -33.084  15.523  28.743  0.00  0.00    -0.039 C 
ATOM     73  H35 non d ame     -32.934  16.372  29.411  0.00  0.00     0.036 H 
ATOM     74  H36 non d ame     -33.964  14.890  28.857  0.00  0.00     0.036 H 
BRANCH  72  75
ATOM     75  C25 non d ame     -31.799  14.577  28.884  0.00  0.00    -0.001 C 
ATOM     76  C26 non d ame     -32.268  13.051  29.275  0.00  0.00    -0.035 C 
ATOM     77  C27 non d ame     -31.564  12.640  30.357  0.00  0.00     0.085 C 
ATOM     78  H38 non d ame     -33.299  13.055  29.629  0.00  0.00     0.036 H 
ATOM     79  H39 non d ame     -31.964  12.354  28.493  0.00  0.00     0.036 H 
ATOM     80  N5  non d ame     -30.895  13.864  30.937  0.00  0.00    -0.049 N 
ATOM     81  H40 non d ame     -32.306  12.271  31.064  0.00  0.00     0.075 H 
ATOM     82  H41 non d ame     -30.799  11.969  29.968  0.00  0.00     0.075 H 
ATOM     83  C28 non d ame     -31.001  15.008  29.802  0.00  0.00     0.193 C 
ATOM     84  H42 non d ame     -31.453  14.145  31.730  0.00  0.00     0.280 HD
ATOM     85  H43 non d ame     -29.922  13.624  31.063  0.00  0.00     0.280 HD
ATOM     86  H44 non d ame     -30.131  15.271  29.200  0.00  0.00     0.129 H 
ATOM     87  H37 non d ame     -31.113  14.685  28.044  0.00  0.00     0.046 H 
BRANCH  83  88
ATOM     88  O6  non d ame     -31.453  16.234  30.379  0.00  0.00    -0.369 OA
ATOM     89  H45 non d ame     -30.720  16.670  30.821  0.00  0.00     0.212 HD
ENDBRANCH  83  88
ENDBRANCH  72  75
ENDBRANCH  47  72
ENDBRANCH  45  47
ENDBRANCH   1  43
BRANCH   1  90
ATOM     90  C16 non d ame     -31.407  15.320  22.764  0.00  0.00    -0.035 C 
ATOM     91  H21 non d ame     -32.357  15.009  22.331  0.00  0.00     0.037 H 
ATOM     92  H22 non d ame     -31.214  16.375  22.957  0.00  0.00     0.037 H 
BRANCH  90  93
ATOM     93  C17 non d ame     -30.296  14.840  21.777  0.00  0.00    -0.059 C 
ATOM     94  H23 non d ame     -30.369  13.755  21.699  0.00  0.00     0.038 H 
BRANCH  93  95
ATOM     95  C18 non d ame     -30.484  15.433  20.344  0.00  0.00    -0.073 C 
ATOM     96  H24 non d ame     -31.063  16.355  20.404  0.00  0.00     0.028 H 
ATOM     97  H25 non d ame     -29.508  15.647  19.908  0.00  0.00     0.028 H 
ATOM     98  H26 non d ame     -31.011  14.713  19.719  0.00  0.00     0.028 H 
ENDBRANCH  93  95
BRANCH  93  99
ATOM     99  C19 non d ame     -28.902  15.165  22.322  0.00  0.00    -0.073 C 
ATOM    100  H27 non d ame     -28.987  15.912  23.113  0.00  0.00     0.028 H 
ATOM    101  H28 non d ame     -28.449  14.260  22.725  0.00  0.00     0.028 H 
ATOM    102  H29 non d ame     -28.280  15.556  21.518  0.00  0.00     0.028 H 
ENDBRANCH  93  99
ENDBRANCH  90  93
ENDBRANCH   1  90
TORSDOF 26
ENDMDL
MODEL 9
REMARK VINA RESULT:      -6.5      2.423      7.790
REMARK  26 active torsions:
REMARK  status: ('A' for Active; 'I' for Inactive)
REMARK    1  A    between atoms: C2_2  and  C3_3 
REMARK    2  A    between atoms: C4_6  and  C5_7 
REMARK       I    between atoms: C5_7  and  N2_9 
REMARK    3  A    between atoms: N2_9  and  C6_10 
REMARK    4  A    between atoms: C6_10  and  C7_11 
REMARK    5  A    between atoms: C6_10  and  C8_13 
REMARK       I    between atoms: C7_11  and  N3_14 
REMARK    6  A    between atoms: N3_14  and  C9_15 
REMARK    7  A    between atoms: C9_15  and  C10_16 
REMARK    8  A    between atoms: C9_15  and  C11_18 
REMARK       I    between atoms: C10_16  and  N4_21 
REMARK    9  A    between atoms: C11_18  and  C12_19 
REMARK   10  A    between atoms: C11_18  and  C13_20 
REMARK   11  A    between atoms: N4_21  and  C14_22 
REMARK   12  A    between atoms: C14_22  and  C15_23 
REMARK   13  A    between atoms: C14_22  and  C16_25 
REMARK       I    between atoms: C15_23  and  N6_40 
REMARK   14  A    between atoms: C16_25  and  C17_26 
REMARK   15  A    between atoms: C17_26  and  C18_27 
REMARK   16  A    between atoms: C17_26  and  C19_28 
REMARK   17  A    between atoms: C20_29  and  C21_30 
REMARK   18  A    between atoms: C20_29  and  C24_33 
REMARK   19  A    between atoms: C20_29  and  N6_40 
REMARK   20  A    between atoms: C21_30  and  C22_31 
REMARK   21  A    between atoms: C22_31  and  C23_32 
REMARK   22  A    between atoms: C23_32  and  O8_43 
REMARK   23  A    between atoms: C24_33  and  C25_34 
REMARK   24  A    between atoms: C28_38  and  O6_39 
REMARK   25  A    between atoms: C29_42  and  O8_43 
REMARK   26  A    between atoms: C29_42  and  C35_49 
ROOT
ATOM      1  C14 non d ame     -36.216  10.415  31.395  0.00  0.00     0.089 C 
ATOM      2  H20 non d ame     -36.826  11.124  31.955  0.00  0.00     0.087 H 
ENDROOT
BRANCH   1   3
ATOM      3  N4  non d ame     -36.689  10.421  30.019  0.00  0.00    -0.346 N 
ATOM      4  C10 non d ame     -38.082  10.897  29.695  0.00  0.00     0.241 C 
ATOM      5  O4  non d ame     -38.806  11.270  30.558  0.00  0.00    -0.271 OA
ATOM      6  H19 non d ame     -36.059  10.097  29.299  0.00  0.00     0.163 HD
BRANCH   4   7
ATOM      7  C9  non d ame     -38.554  10.900  28.264  0.00  0.00     0.092 C 
ATOM      8  H11 non d ame     -39.363  11.622  28.156  0.00  0.00     0.088 H 
BRANCH   7   9
ATOM      9  N3  non d ame     -37.462  11.338  27.390  0.00  0.00    -0.346 N 
ATOM     10  C7  non d ame     -37.522  12.631  26.754  0.00  0.00     0.240 C 
ATOM     11  O3  non d ame     -38.442  13.332  26.935  0.00  0.00    -0.271 OA
ATOM     12  H10 non d ame     -36.663  10.743  27.223  0.00  0.00     0.163 HD
BRANCH  10  13
ATOM     13  C6  non d ame     -36.359  13.090  25.822  0.00  0.00     0.086 C 
ATOM     14  H6  non d ame     -36.714  13.543  24.896  0.00  0.00     0.086 H 
BRANCH  13  15
ATOM     15  N2  non d ame     -35.577  14.105  26.507  0.00  0.00    -0.343 N 
ATOM     16  C5  non d ame     -35.707  15.508  26.108  0.00  0.00     0.273 C 
ATOM     17  O2  non d ame     -36.441  15.810  25.232  0.00  0.00    -0.266 OA
ATOM     18  H5  non d ame     -34.950  13.838  27.253  0.00  0.00     0.163 HD
BRANCH  16  19
ATOM     19  C4  non d ame     -34.887  16.592  26.826  0.00  0.00     0.154 A 
ATOM     20  C1  non d ame     -34.051  17.584  26.223  0.00  0.00    -0.017 A 
ATOM     21  C2  non d ame     -33.529  18.326  27.306  0.00  0.00     0.077 A 
ATOM     22  H1  non d ame     -33.854  17.743  25.163  0.00  0.00     0.091 H 
ATOM     23  O1  non d ame     -34.015  17.813  28.398  0.00  0.00    -0.218 OA
ATOM     24  N1  non d ame     -34.810  16.799  28.143  0.00  0.00    -0.123 NA
BRANCH  21  25
ATOM     25  C3  non d ame     -32.575  19.509  27.213  0.00  0.00    -0.029 C 
ATOM     26  H2  non d ame     -32.086  19.506  26.239  0.00  0.00     0.036 H 
ATOM     27  H3  non d ame     -33.134  20.437  27.333  0.00  0.00     0.036 H 
ATOM     28  H4  non d ame     -31.823  19.434  27.997  0.00  0.00     0.036 H 
ENDBRANCH  21  25
ENDBRANCH  16  19
ENDBRANCH  13  15
BRANCH  13  29
ATOM     29  C8  non d ame     -35.487  11.908  25.482  0.00  0.00    -0.049 C 
ATOM     30  H7  non d ame     -35.983  10.989  25.792  0.00  0.00     0.030 H 
ATOM     31  H8  non d ame     -35.313  11.881  24.407  0.00  0.00     0.030 H 
ATOM     32  H9  non d ame     -34.532  11.999  26.003  0.00  0.00     0.030 H 
ENDBRANCH  13  29
ENDBRANCH  10  13
ENDBRANCH   7   9
BRANCH   7  33
ATOM     33  C11 non d ame     -38.994   9.462  27.861  0.00  0.00    -0.033 C 
ATOM     34  H12 non d ame     -39.399   8.980  28.750  0.00  0.00     0.042 H 
BRANCH  33  35
ATOM     35  C12 non d ame     -40.127   9.495  26.788  0.00  0.00    -0.071 C 
ATOM     36  H13 non d ame     -40.471   8.479  26.592  0.00  0.00     0.028 H 
ATOM     37  H14 non d ame     -40.958  10.095  27.155  0.00  0.00     0.028 H 
ATOM     38  H15 non d ame     -39.742   9.931  25.866  0.00  0.00     0.028 H 
ENDBRANCH  33  35
BRANCH  33  39
ATOM     39  C13 non d ame     -37.772   8.621  27.369  0.00  0.00    -0.071 C 
ATOM     40  H16 non d ame     -37.234   9.177  26.601  0.00  0.00     0.028 H 
ATOM     41  H17 non d ame     -37.105   8.423  28.209  0.00  0.00     0.028 H 
ATOM     42  H18 non d ame     -38.124   7.676  26.956  0.00  0.00     0.028 H 
ENDBRANCH  33  39
ENDBRANCH   7  33
ENDBRANCH   4   7
ENDBRANCH   1   3
BRANCH   1  43
ATOM     43  C15 non d ame     -34.709  10.805  31.402  0.00  0.00     0.240 C 
ATOM     44  O5  non d ame     -34.064  10.653  32.388  0.00  0.00    -0.271 OA
ATOM     45  N6  non d ame     -34.068  11.359  30.175  0.00  0.00    -0.355 N 
ATOM     46  H46 non d ame     -34.605  11.489  29.329  0.00  0.00     0.162 HD
BRANCH  45  47
ATOM     47  C20 non d ame     -32.635  11.724  30.198  0.00  0.00     0.013 C 
ATOM     48  H30 non d ame     -32.248  11.495  31.191  0.00  0.00     0.072 H 
BRANCH  47  49
ATOM     49  C21 non d ame     -32.490  13.201  29.913  0.00  0.00    -0.038 C 
ATOM     50  H31 non d ame     -33.101  13.707  30.662  0.00  0.00     0.036 H 
ATOM     51  H32 non d ame     -31.417  13.388  29.869  0.00  0.00     0.036 H 
BRANCH  49  52
ATOM     52  C22 non d ame     -33.061  13.605  28.536  0.00  0.00     0.018 C 
ATOM     53  H33 non d ame     -33.225  12.672  28.000  0.00  0.00     0.048 H 
ATOM     54  H34 non d ame     -33.901  14.268  28.748  0.00  0.00     0.048 H 
BRANCH  52  55
ATOM     55  C23 non d ame     -32.073  14.431  27.667  0.00  0.00     0.259 C 
ATOM     56  O7  non d ame     -31.428  15.304  28.152  0.00  0.00    -0.265 OA
BRANCH  55  57
ATOM     57  O8  non d ame     -31.957  14.142  26.279  0.00  0.00    -0.317 OA
BRANCH  57  58
ATOM     58  C29 non d ame     -31.487  15.241  25.492  0.00  0.00     0.052 C 
ATOM     59  H47 non d ame     -32.380  15.767  25.156  0.00  0.00     0.082 H 
ATOM     60  H48 non d ame     -30.752  15.755  26.111  0.00  0.00     0.082 H 
BRANCH  58  61
ATOM     61  C35 non d ame     -30.760  14.663  24.249  0.00  0.00    -0.034 A 
ATOM     62  C30 non d ame     -30.830  13.300  23.973  0.00  0.00    -0.075 A 
ATOM     63  C31 non d ame     -30.176  12.781  22.856  0.00  0.00    -0.082 A 
ATOM     64  H49 non d ame     -31.394  12.640  24.631  0.00  0.00     0.084 H 
ATOM     65  C32 non d ame     -29.450  13.628  22.015  0.00  0.00    -0.083 A 
ATOM     66  H50 non d ame     -30.234  11.713  22.641  0.00  0.00     0.083 H 
ATOM     67  C33 non d ame     -29.381  14.985  22.297  0.00  0.00    -0.082 A 
ATOM     68  H51 non d ame     -28.937  13.229  21.139  0.00  0.00     0.083 H 
ATOM     69  C34 non d ame     -30.033  15.509  23.410  0.00  0.00    -0.075 A 
ATOM     70  H52 non d ame     -28.811  15.644  21.639  0.00  0.00     0.083 H 
ATOM     71  H53 non d ame     -29.976  16.577  23.624  0.00  0.00     0.084 H 
ENDBRANCH  58  61
ENDBRANCH  57  58
ENDBRANCH  55  57
ENDBRANCH  52  55
ENDBRANCH  49  52
ENDBRANCH  47  49
BRANCH  47  72
ATOM     72  C24 non d ame     -31.882  10.923  29.138  0.00  0.00    -0.039 C 
ATOM     73  H35 non d ame     -31.193  11.631  28.676  0.00  0.00     0.036 H 
ATOM     74  H36 non d ame     -31.495  10.046  29.657  0.00  0.00     0.036 H 
BRANCH  72  75
ATOM     75  C25 non d ame     -32.862  10.396  27.985  0.00  0.00    -0.001 C 
ATOM     76  C26 non d ame     -33.173   8.797  28.203  0.00  0.00    -0.035 C 
ATOM     77  C27 non d ame     -32.931   8.143  27.041  0.00  0.00     0.085 C 
ATOM     78  H38 non d ame     -32.450   8.365  28.893  0.00  0.00     0.036 H 
ATOM     79  H39 non d ame     -34.241   8.641  28.365  0.00  0.00     0.036 H 
ATOM     80  N5  non d ame     -32.172   9.096  26.149  0.00  0.00    -0.049 N 
ATOM     81  H40 non d ame     -32.281   7.309  27.307  0.00  0.00     0.075 H 
ATOM     82  H41 non d ame     -33.911   7.952  26.605  0.00  0.00     0.075 H 
ATOM     83  C28 non d ame     -32.337  10.556  26.816  0.00  0.00     0.193 C 
ATOM     84  H42 non d ame     -31.201   8.825  26.202  0.00  0.00     0.280 HD
ATOM     85  H43 non d ame     -32.649   9.093  25.258  0.00  0.00     0.280 HD
ATOM     86  H44 non d ame     -33.025  11.285  26.388  0.00  0.00     0.129 H 
ATOM     87  H37 non d ame     -33.720  11.053  27.841  0.00  0.00     0.046 H 
BRANCH  83  88
ATOM     88  O6  non d ame     -31.071  11.215  26.879  0.00  0.00    -0.369 OA
ATOM     89  H45 non d ame     -30.396  10.650  26.495  0.00  0.00     0.212 HD
ENDBRANCH  83  88
ENDBRANCH  72  75
ENDBRANCH  47  72
ENDBRANCH  45  47
ENDBRANCH   1  43
BRANCH   1  90
ATOM     90  C16 non d ame     -36.385   9.020  31.974  0.00  0.00    -0.035 C 
ATOM     91  H21 non d ame     -35.478   8.834  32.547  0.00  0.00     0.037 H 
ATOM     92  H22 non d ame     -37.354   9.030  32.473  0.00  0.00     0.037 H 
BRANCH  90  93
ATOM     93  C17 non d ame     -36.458   7.898  30.890  0.00  0.00    -0.059 C 
ATOM     94  H23 non d ame     -36.479   8.382  29.914  0.00  0.00     0.038 H 
BRANCH  93  95
ATOM     95  C18 non d ame     -35.210   6.959  30.928  0.00  0.00    -0.073 C 
ATOM     96  H24 non d ame     -35.417   6.054  30.355  0.00  0.00     0.028 H 
ATOM     97  H25 non d ame     -34.354   7.474  30.492  0.00  0.00     0.028 H 
ATOM     98  H26 non d ame     -34.987   6.692  31.961  0.00  0.00     0.028 H 
ENDBRANCH  93  95
BRANCH  93  99
ATOM     99  C19 non d ame     -37.751   7.089  31.026  0.00  0.00    -0.073 C 
ATOM    100  H27 non d ame     -38.527   7.717  31.466  0.00  0.00     0.028 H 
ATOM    101  H28 non d ame     -38.075   6.751  30.041  0.00  0.00     0.028 H 
ATOM    102  H29 non d ame     -37.575   6.226  31.667  0.00  0.00     0.028 H 
ENDBRANCH  93  99
ENDBRANCH  90  93
ENDBRANCH   1  90
TORSDOF 26
ENDMDL
MODEL 10
REMARK VINA RESULT:      -6.5      3.538      9.236
REMARK  26 active torsions:
REMARK  status: ('A' for Active; 'I' for Inactive)
REMARK    1  A    between atoms: C2_2  and  C3_3 
REMARK    2  A    between atoms: C4_6  and  C5_7 
REMARK       I    between atoms: C5_7  and  N2_9 
REMARK    3  A    between atoms: N2_9  and  C6_10 
REMARK    4  A    between atoms: C6_10  and  C7_11 
REMARK    5  A    between atoms: C6_10  and  C8_13 
REMARK       I    between atoms: C7_11  and  N3_14 
REMARK    6  A    between atoms: N3_14  and  C9_15 
REMARK    7  A    between atoms: C9_15  and  C10_16 
REMARK    8  A    between atoms: C9_15  and  C11_18 
REMARK       I    between atoms: C10_16  and  N4_21 
REMARK    9  A    between atoms: C11_18  and  C12_19 
REMARK   10  A    between atoms: C11_18  and  C13_20 
REMARK   11  A    between atoms: N4_21  and  C14_22 
REMARK   12  A    between atoms: C14_22  and  C15_23 
REMARK   13  A    between atoms: C14_22  and  C16_25 
REMARK       I    between atoms: C15_23  and  N6_40 
REMARK   14  A    between atoms: C16_25  and  C17_26 
REMARK   15  A    between atoms: C17_26  and  C18_27 
REMARK   16  A    between atoms: C17_26  and  C19_28 
REMARK   17  A    between atoms: C20_29  and  C21_30 
REMARK   18  A    between atoms: C20_29  and  C24_33 
REMARK   19  A    between atoms: C20_29  and  N6_40 
REMARK   20  A    between atoms: C21_30  and  C22_31 
REMARK   21  A    between atoms: C22_31  and  C23_32 
REMARK   22  A    between atoms: C23_32  and  O8_43 
REMARK   23  A    between atoms: C24_33  and  C25_34 
REMARK   24  A    between atoms: C28_38  and  O6_39 
REMARK   25  A    between atoms: C29_42  and  O8_43 
REMARK   26  A    between atoms: C29_42  and  C35_49 
ROOT
ATOM      1  C14 non d ame     -34.858   8.339  31.429  0.00  0.00     0.089 C 
ATOM      2  H20 non d ame     -34.371   8.368  32.404  0.00  0.00     0.087 H 
ENDROOT
BRANCH   1   3
ATOM      3  N4  non d ame     -34.011   9.064  30.494  0.00  0.00    -0.346 N 
ATOM      4  C10 non d ame     -33.482  10.430  30.848  0.00  0.00     0.241 C 
ATOM      5  O4  non d ame     -33.753  10.928  31.891  0.00  0.00    -0.271 OA
ATOM      6  H19 non d ame     -33.794   8.624  29.611  0.00  0.00     0.163 HD
BRANCH   4   7
ATOM      7  C9  non d ame     -32.603  11.165  29.870  0.00  0.00     0.092 C 
ATOM      8  H11 non d ame     -31.968  10.448  29.349  0.00  0.00     0.088 H 
BRANCH   7   9
ATOM      9  N3  non d ame     -33.437  11.820  28.858  0.00  0.00    -0.346 N 
ATOM     10  C7  non d ame     -33.390  11.376  27.488  0.00  0.00     0.240 C 
ATOM     11  O3  non d ame     -32.687  10.492  27.181  0.00  0.00    -0.271 OA
ATOM     12  H10 non d ame     -34.048  12.585  29.109  0.00  0.00     0.163 HD
BRANCH  10  13
ATOM     13  C6  non d ame     -34.278  12.079  26.415  0.00  0.00     0.086 C 
ATOM     14  H6  non d ame     -34.918  12.852  26.839  0.00  0.00     0.086 H 
BRANCH  13  15
ATOM     15  N2  non d ame     -33.417  12.737  25.447  0.00  0.00    -0.343 N 
ATOM     16  C5  non d ame     -32.835  14.042  25.768  0.00  0.00     0.273 C 
ATOM     17  O2  non d ame     -33.069  14.556  26.806  0.00  0.00    -0.266 OA
ATOM     18  H5  non d ame     -33.225  12.292  24.561  0.00  0.00     0.163 HD
BRANCH  16  19
ATOM     19  C4  non d ame     -31.922  14.748  24.753  0.00  0.00     0.154 A 
ATOM     20  C1  non d ame     -30.750  14.216  24.128  0.00  0.00    -0.017 A 
ATOM     21  C2  non d ame     -30.283  15.254  23.291  0.00  0.00     0.077 A 
ATOM     22  H1  non d ame     -30.308  13.228  24.260  0.00  0.00     0.091 H 
ATOM     23  O1  non d ame     -31.097  16.258  23.427  0.00  0.00    -0.218 OA
ATOM     24  N1  non d ame     -32.062  15.987  24.275  0.00  0.00    -0.123 NA
BRANCH  21  25
ATOM     25  C3  non d ame     -29.053  15.204  22.395  0.00  0.00    -0.029 C 
ATOM     26  H2  non d ame     -28.457  16.104  22.544  0.00  0.00     0.036 H 
ATOM     27  H3  non d ame     -28.454  14.328  22.647  0.00  0.00     0.036 H 
ATOM     28  H4  non d ame     -29.364  15.142  21.352  0.00  0.00     0.036 H 
ENDBRANCH  21  25
ENDBRANCH  16  19
ENDBRANCH  13  15
BRANCH  13  29
ATOM     29  C8  non d ame     -35.143  11.055  25.725  0.00  0.00    -0.049 C 
ATOM     30  H7  non d ame     -34.576  10.136  25.582  0.00  0.00     0.030 H 
ATOM     31  H8  non d ame     -36.020  10.848  26.338  0.00  0.00     0.030 H 
ATOM     32  H9  non d ame     -35.461  11.442  24.755  0.00  0.00     0.030 H 
ENDBRANCH  13  29
ENDBRANCH  10  13
ENDBRANCH   7   9
BRANCH   7  33
ATOM     33  C11 non d ame     -31.771  12.241  30.629  0.00  0.00    -0.033 C 
ATOM     34  H12 non d ame     -32.278  12.444  31.571  0.00  0.00     0.042 H 
BRANCH  33  35
ATOM     35  C12 non d ame     -30.341  11.717  30.969  0.00  0.00    -0.071 C 
ATOM     36  H13 non d ame     -30.406  10.687  31.320  0.00  0.00     0.028 H 
ATOM     37  H14 non d ame     -29.716  11.759  30.078  0.00  0.00     0.028 H 
ATOM     38  H15 non d ame     -29.903  12.338  31.751  0.00  0.00     0.028 H 
ENDBRANCH  33  35
BRANCH  33  39
ATOM     39  C13 non d ame     -31.708  13.574  29.817  0.00  0.00    -0.071 C 
ATOM     40  H16 non d ame     -30.673  13.785  29.545  0.00  0.00     0.028 H 
ATOM     41  H17 non d ame     -32.310  13.478  28.912  0.00  0.00     0.028 H 
ATOM     42  H18 non d ame     -32.097  14.390  30.426  0.00  0.00     0.028 H 
ENDBRANCH  33  39
ENDBRANCH   7  33
ENDBRANCH   4   7
ENDBRANCH   1   3
BRANCH   1  43
ATOM     43  C15 non d ame     -35.039   6.884  30.907  0.00  0.00     0.240 C 
ATOM     44  O5  non d ame     -35.554   6.067  31.600  0.00  0.00    -0.271 OA
ATOM     45  N6  non d ame     -34.580   6.511  29.539  0.00  0.00    -0.355 N 
ATOM     46  H46 non d ame     -34.146   7.198  28.939  0.00  0.00     0.162 HD
BRANCH  45  47
ATOM     47  C20 non d ame     -34.761   5.124  29.058  0.00  0.00     0.013 C 
ATOM     48  H30 non d ame     -35.195   4.542  29.871  0.00  0.00     0.072 H 
BRANCH  47  49
ATOM     49  C21 non d ame     -33.417   4.551  28.670  0.00  0.00    -0.038 C 
ATOM     50  H31 non d ame     -32.675   5.254  29.051  0.00  0.00     0.036 H 
ATOM     51  H32 non d ame     -33.424   3.520  29.025  0.00  0.00     0.036 H 
BRANCH  49  52
ATOM     52  C22 non d ame     -33.212   4.484  27.141  0.00  0.00     0.018 C 
ATOM     53  H33 non d ame     -32.518   3.662  26.972  0.00  0.00     0.048 H 
ATOM     54  H34 non d ame     -34.213   4.451  26.711  0.00  0.00     0.048 H 
BRANCH  52  55
ATOM     55  C23 non d ame     -32.532   5.748  26.546  0.00  0.00     0.259 C 
ATOM     56  O7  non d ame     -31.684   6.319  27.152  0.00  0.00    -0.265 OA
BRANCH  55  57
ATOM     57  O8  non d ame     -32.944   6.226  25.270  0.00  0.00    -0.317 OA
BRANCH  57  58
ATOM     58  C29 non d ame     -31.985   6.013  24.230  0.00  0.00     0.052 C 
ATOM     59  H47 non d ame     -31.135   5.528  24.709  0.00  0.00     0.082 H 
ATOM     60  H48 non d ame     -32.524   5.507  23.431  0.00  0.00     0.082 H 
BRANCH  58  61
ATOM     61  C35 non d ame     -31.529   7.402  23.709  0.00  0.00    -0.034 A 
ATOM     62  C30 non d ame     -32.198   8.553  24.116  0.00  0.00    -0.075 A 
ATOM     63  C31 non d ame     -31.788   9.801  23.647  0.00  0.00    -0.082 A 
ATOM     64  H49 non d ame     -33.043   8.477  24.800  0.00  0.00     0.084 H 
ATOM     65  C32 non d ame     -30.706   9.895  22.768  0.00  0.00    -0.083 A 
ATOM     66  H50 non d ame     -32.313  10.701  23.970  0.00  0.00     0.083 H 
ATOM     67  C33 non d ame     -30.045   8.744  22.362  0.00  0.00    -0.082 A 
ATOM     68  H51 non d ame     -30.379  10.867  22.398  0.00  0.00     0.083 H 
ATOM     69  C34 non d ame     -30.450   7.496  22.829  0.00  0.00    -0.075 A 
ATOM     70  H52 non d ame     -29.203   8.821  21.673  0.00  0.00     0.083 H 
ATOM     71  H53 non d ame     -29.924   6.596  22.507  0.00  0.00     0.084 H 
ENDBRANCH  58  61
ENDBRANCH  57  58
ENDBRANCH  55  57
ENDBRANCH  52  55
ENDBRANCH  49  52
ENDBRANCH  47  49
BRANCH  47  72
ATOM     72  C24 non d ame     -35.689   5.116  27.845  0.00  0.00    -0.039 C 
ATOM     73  H35 non d ame     -35.039   5.270  26.982  0.00  0.00     0.036 H 
ATOM     74  H36 non d ame     -36.270   4.198  27.931  0.00  0.00     0.036 H 
BRANCH  72  75
ATOM     75  C25 non d ame     -36.725   6.337  27.882  0.00  0.00    -0.001 C 
ATOM     76  C26 non d ame     -38.239   5.777  28.188  0.00  0.00    -0.035 C 
ATOM     77  C27 non d ame     -39.086   6.271  27.253  0.00  0.00     0.085 C 
ATOM     78  H38 non d ame     -38.281   4.700  28.025  0.00  0.00     0.036 H 
ATOM     79  H39 non d ame     -38.615   6.201  29.120  0.00  0.00     0.036 H 
ATOM     80  N5  non d ame     -38.233   6.850  26.149  0.00  0.00    -0.049 N 
ATOM     81  H40 non d ame     -39.629   5.409  26.867  0.00  0.00     0.075 H 
ATOM     82  H41 non d ame     -39.625   7.079  27.746  0.00  0.00     0.075 H 
ATOM     83  C28 non d ame     -36.742   6.969  26.756  0.00  0.00     0.193 C 
ATOM     84  H42 non d ame     -38.224   6.167  25.407  0.00  0.00     0.280 HD
ATOM     85  H43 non d ame     -38.585   7.781  25.976  0.00  0.00     0.280 HD
ATOM     86  H44 non d ame     -36.347   7.937  27.067  0.00  0.00     0.129 H 
ATOM     87  H37 non d ame     -36.367   7.162  28.497  0.00  0.00     0.046 H 
BRANCH  83  88
ATOM     88  O6  non d ame     -35.789   6.446  25.829  0.00  0.00    -0.369 OA
ATOM     89  H45 non d ame     -36.029   5.545  25.597  0.00  0.00     0.212 HD
ENDBRANCH  83  88
ENDBRANCH  72  75
ENDBRANCH  47  72
ENDBRANCH  45  47
ENDBRANCH   1  43
BRANCH   1  90
ATOM     90  C16 non d ame     -36.212   9.025  31.509  0.00  0.00    -0.035 C 
ATOM     91  H21 non d ame     -36.637   8.714  32.462  0.00  0.00     0.037 H 
ATOM     92  H22 non d ame     -36.013  10.080  31.318  0.00  0.00     0.037 H 
BRANCH  90  93
ATOM     93  C17 non d ame     -37.216   8.559  30.406  0.00  0.00    -0.059 C 
ATOM     94  H23 non d ame     -36.804   7.662  29.943  0.00  0.00     0.038 H 
BRANCH  93  95
ATOM     95  C18 non d ame     -38.613   8.190  30.998  0.00  0.00    -0.073 C 
ATOM     96  H24 non d ame     -38.746   7.109  30.972  0.00  0.00     0.028 H 
ATOM     97  H25 non d ame     -38.674   8.537  32.030  0.00  0.00     0.028 H 
ATOM     98  H26 non d ame     -39.396   8.667  30.408  0.00  0.00     0.028 H 
ENDBRANCH  93  95
BRANCH  93  99
ATOM     99  C19 non d ame     -37.352   9.617  29.308  0.00  0.00    -0.073 C 
ATOM    100  H27 non d ame     -38.171  10.294  29.556  0.00  0.00     0.028 H 
ATOM    101  H28 non d ame     -36.424  10.184  29.231  0.00  0.00     0.028 H 
ATOM    102  H29 non d ame     -37.559   9.129  28.356  0.00  0.00     0.028 H 
ENDBRANCH  93  99
ENDBRANCH  90  93
ENDBRANCH   1  90
TORSDOF 26
ENDMDL
MODEL 11
REMARK VINA RESULT:      -6.5      2.326      5.908
REMARK  26 active torsions:
REMARK  status: ('A' for Active; 'I' for Inactive)
REMARK    1  A    between atoms: C2_2  and  C3_3 
REMARK    2  A    between atoms: C4_6  and  C5_7 
REMARK       I    between atoms: C5_7  and  N2_9 
REMARK    3  A    between atoms: N2_9  and  C6_10 
REMARK    4  A    between atoms: C6_10  and  C7_11 
REMARK    5  A    between atoms: C6_10  and  C8_13 
REMARK       I    between atoms: C7_11  and  N3_14 
REMARK    6  A    between atoms: N3_14  and  C9_15 
REMARK    7  A    between atoms: C9_15  and  C10_16 
REMARK    8  A    between atoms: C9_15  and  C11_18 
REMARK       I    between atoms: C10_16  and  N4_21 
REMARK    9  A    between atoms: C11_18  and  C12_19 
REMARK   10  A    between atoms: C11_18  and  C13_20 
REMARK   11  A    between atoms: N4_21  and  C14_22 
REMARK   12  A    between atoms: C14_22  and  C15_23 
REMARK   13  A    between atoms: C14_22  and  C16_25 
REMARK       I    between atoms: C15_23  and  N6_40 
REMARK   14  A    between atoms: C16_25  and  C17_26 
REMARK   15  A    between atoms: C17_26  and  C18_27 
REMARK   16  A    between atoms: C17_26  and  C19_28 
REMARK   17  A    between atoms: C20_29  and  C21_30 
REMARK   18  A    between atoms: C20_29  and  C24_33 
REMARK   19  A    between atoms: C20_29  and  N6_40 
REMARK   20  A    between atoms: C21_30  and  C22_31 
REMARK   21  A    between atoms: C22_31  and  C23_32 
REMARK   22  A    between atoms: C23_32  and  O8_43 
REMARK   23  A    between atoms: C24_33  and  C25_34 
REMARK   24  A    between atoms: C28_38  and  O6_39 
REMARK   25  A    between atoms: C29_42  and  O8_43 
REMARK   26  A    between atoms: C29_42  and  C35_49 
ROOT
ATOM      1  C14 non d ame     -31.241  14.826  24.147  0.00  0.00     0.089 C 
ATOM      2  H20 non d ame     -30.234  14.829  24.565  0.00  0.00     0.087 H 
ENDROOT
BRANCH   1   3
ATOM      3  N4  non d ame     -31.647  13.437  23.990  0.00  0.00    -0.346 N 
ATOM      4  C10 non d ame     -31.425  12.448  25.106  0.00  0.00     0.241 C 
ATOM      5  O4  non d ame     -30.914  12.791  26.121  0.00  0.00    -0.271 OA
ATOM      6  H19 non d ame     -32.077  13.164  23.118  0.00  0.00     0.163 HD
BRANCH   4   7
ATOM      7  C9  non d ame     -31.855  11.015  24.928  0.00  0.00     0.092 C 
ATOM      8  H11 non d ame     -31.416  10.408  25.719  0.00  0.00     0.088 H 
BRANCH   7   9
ATOM      9  N3  non d ame     -33.312  10.921  25.068  0.00  0.00    -0.346 N 
ATOM     10  C7  non d ame     -33.892  10.580  26.343  0.00  0.00     0.240 C 
ATOM     11  O3  non d ame     -33.203  10.378  27.267  0.00  0.00    -0.271 OA
ATOM     12  H10 non d ame     -33.918  11.092  24.279  0.00  0.00     0.163 HD
BRANCH  10  13
ATOM     13  C6  non d ame     -35.443  10.479  26.485  0.00  0.00     0.086 C 
ATOM     14  H6  non d ame     -35.812  10.924  27.409  0.00  0.00     0.086 H 
BRANCH  13  15
ATOM     15  N2  non d ame     -36.066  11.210  25.394  0.00  0.00    -0.343 N 
ATOM     16  C5  non d ame     -36.505  12.590  25.608  0.00  0.00     0.273 C 
ATOM     17  O2  non d ame     -36.356  13.103  26.663  0.00  0.00    -0.266 OA
ATOM     18  H5  non d ame     -36.192  10.763  24.497  0.00  0.00     0.163 HD
BRANCH  16  19
ATOM     19  C4  non d ame     -37.164  13.375  24.463  0.00  0.00     0.154 A 
ATOM     20  C1  non d ame     -37.442  12.905  23.140  0.00  0.00    -0.017 A 
ATOM     21  C2  non d ame     -38.046  14.000  22.485  0.00  0.00     0.077 A 
ATOM     22  H1  non d ame     -37.237  11.920  22.721  0.00  0.00     0.091 H 
ATOM     23  O1  non d ame     -38.105  14.979  23.339  0.00  0.00    -0.218 OA
ATOM     24  N1  non d ame     -37.596  14.638  24.501  0.00  0.00    -0.123 NA
BRANCH  21  25
ATOM     25  C3  non d ame     -38.539  14.029  21.045  0.00  0.00    -0.029 C 
ATOM     26  H2  non d ame     -38.725  15.060  20.744  0.00  0.00     0.036 H 
ATOM     27  H3  non d ame     -37.782  13.594  20.392  0.00  0.00     0.036 H 
ATOM     28  H4  non d ame     -39.462  13.455  20.963  0.00  0.00     0.036 H 
ENDBRANCH  21  25
ENDBRANCH  16  19
ENDBRANCH  13  15
BRANCH  13  29
ATOM     29  C8  non d ame     -35.860   9.031  26.442  0.00  0.00    -0.049 C 
ATOM     30  H7  non d ame     -35.099   8.448  25.925  0.00  0.00     0.030 H 
ATOM     31  H8  non d ame     -35.977   8.656  27.458  0.00  0.00     0.030 H 
ATOM     32  H9  non d ame     -36.809   8.942  25.910  0.00  0.00     0.030 H 
ENDBRANCH  13  29
ENDBRANCH  10  13
ENDBRANCH   7   9
BRANCH   7  33
ATOM     33  C11 non d ame     -31.440  10.522  23.511  0.00  0.00    -0.033 C 
ATOM     34  H12 non d ame     -31.691  11.310  22.801  0.00  0.00     0.042 H 
BRANCH  33  35
ATOM     35  C12 non d ame     -29.901  10.283  23.421  0.00  0.00    -0.071 C 
ATOM     36  H13 non d ame     -29.556  10.509  22.412  0.00  0.00     0.028 H 
ATOM     37  H14 non d ame     -29.390  10.930  24.133  0.00  0.00     0.028 H 
ATOM     38  H15 non d ame     -29.680   9.241  23.654  0.00  0.00     0.028 H 
ENDBRANCH  33  35
BRANCH  33  39
ATOM     39  C13 non d ame     -32.237   9.239  23.110  0.00  0.00    -0.071 C 
ATOM     40  H16 non d ame     -33.303   9.466  23.086  0.00  0.00     0.028 H 
ATOM     41  H17 non d ame     -31.914   8.904  22.123  0.00  0.00     0.028 H 
ATOM     42  H18 non d ame     -32.050   8.452  23.839  0.00  0.00     0.028 H 
ENDBRANCH  33  39
ENDBRANCH   7  33
ENDBRANCH   4   7
ENDBRANCH   1   3
BRANCH   1  43
ATOM     43  C15 non d ame     -32.264  15.539  25.078  0.00  0.00     0.240 C 
ATOM     44  O5  non d ame     -33.303  15.913  24.638  0.00  0.00    -0.271 OA
ATOM     45  N6  non d ame     -31.953  15.746  26.521  0.00  0.00    -0.355 N 
ATOM     46  H46 non d ame     -31.076  15.428  26.908  0.00  0.00     0.162 HD
BRANCH  45  47
ATOM     47  C20 non d ame     -32.937  16.425  27.393  0.00  0.00     0.013 C 
ATOM     48  H30 non d ame     -33.918  16.331  26.926  0.00  0.00     0.072 H 
BRANCH  47  49
ATOM     49  C21 non d ame     -32.564  17.884  27.526  0.00  0.00    -0.038 C 
ATOM     50  H31 non d ame     -32.016  17.963  28.465  0.00  0.00     0.036 H 
ATOM     51  H32 non d ame     -32.079  18.150  26.586  0.00  0.00     0.036 H 
BRANCH  49  52
ATOM     52  C22 non d ame     -33.796  18.807  27.658  0.00  0.00     0.018 C 
ATOM     53  H33 non d ame     -34.579  18.192  28.097  0.00  0.00     0.048 H 
ATOM     54  H34 non d ame     -33.442  19.696  28.181  0.00  0.00     0.048 H 
BRANCH  52  55
ATOM     55  C23 non d ame     -34.354  19.305  26.296  0.00  0.00     0.259 C 
ATOM     56  O7  non d ame     -33.670  19.295  25.324  0.00  0.00    -0.265 OA
BRANCH  55  57
ATOM     57  O8  non d ame     -35.691  19.787  26.225  0.00  0.00    -0.317 OA
BRANCH  57  58
ATOM     58  C29 non d ame     -36.164  19.998  24.892  0.00  0.00     0.052 C 
ATOM     59  H47 non d ame     -36.202  21.079  24.759  0.00  0.00     0.082 H 
ATOM     60  H48 non d ame     -35.525  19.391  24.252  0.00  0.00     0.082 H 
BRANCH  58  61
ATOM     61  C35 non d ame     -37.611  19.442  24.805  0.00  0.00    -0.034 A 
ATOM     62  C30 non d ame     -37.976  18.329  25.558  0.00  0.00    -0.075 A 
ATOM     63  C31 non d ame     -39.275  17.830  25.480  0.00  0.00    -0.082 A 
ATOM     64  H49 non d ame     -37.244  17.849  26.208  0.00  0.00     0.084 H 
ATOM     65  C32 non d ame     -40.211  18.445  24.645  0.00  0.00    -0.083 A 
ATOM     66  H50 non d ame     -39.559  16.959  26.073  0.00  0.00     0.083 H 
ATOM     67  C33 non d ame     -39.841  19.552  23.893  0.00  0.00    -0.082 A 
ATOM     68  H51 non d ame     -41.229  18.061  24.579  0.00  0.00     0.083 H 
ATOM     69  C34 non d ame     -38.544  20.056  23.969  0.00  0.00    -0.075 A 
ATOM     70  H52 non d ame     -40.573  20.029  23.240  0.00  0.00     0.083 H 
ATOM     71  H53 non d ame     -38.262  20.927  23.377  0.00  0.00     0.084 H 
ENDBRANCH  58  61
ENDBRANCH  57  58
ENDBRANCH  55  57
ENDBRANCH  52  55
ENDBRANCH  49  52
ENDBRANCH  47  49
BRANCH  47  72
ATOM     72  C24 non d ame     -32.941  15.771  28.773  0.00  0.00    -0.039 C 
ATOM     73  H35 non d ame     -32.743  16.580  29.477  0.00  0.00     0.036 H 
ATOM     74  H36 non d ame     -33.878  15.217  28.829  0.00  0.00     0.036 H 
BRANCH  72  75
ATOM     75  C25 non d ame     -31.753  14.708  28.929  0.00  0.00    -0.001 C 
ATOM     76  C26 non d ame     -32.373  13.219  29.245  0.00  0.00    -0.035 C 
ATOM     77  C27 non d ame     -31.754  12.710  30.338  0.00  0.00     0.085 C 
ATOM     78  H38 non d ame     -33.413  13.305  29.559  0.00  0.00     0.036 H 
ATOM     79  H39 non d ame     -32.100  12.522  28.452  0.00  0.00     0.036 H 
ATOM     80  N5  non d ame     -31.004  13.849  30.988  0.00  0.00    -0.049 N 
ATOM     81  H40 non d ame     -32.556  12.387  31.003  0.00  0.00     0.075 H 
ATOM     82  H41 non d ame     -31.037  11.985  29.956  0.00  0.00     0.075 H 
ATOM     83  C28 non d ame     -30.958  15.034  29.893  0.00  0.00     0.193 C 
ATOM     84  H42 non d ame     -31.567  14.153  31.768  0.00  0.00     0.280 HD
ATOM     85  H43 non d ame     -30.062  13.517  31.143  0.00  0.00     0.280 HD
ATOM     86  H44 non d ame     -30.044  15.236  29.335  0.00  0.00     0.129 H 
ATOM     87  H37 non d ame     -31.025  14.780  28.121  0.00  0.00     0.046 H 
BRANCH  83  88
ATOM     88  O6  non d ame     -31.323  16.276  30.496  0.00  0.00    -0.369 OA
ATOM     89  H45 non d ame     -30.835  16.990  30.077  0.00  0.00     0.212 HD
ENDBRANCH  83  88
ENDBRANCH  72  75
ENDBRANCH  47  72
ENDBRANCH  45  47
ENDBRANCH   1  43
BRANCH   1  90
ATOM     90  C16 non d ame     -31.235  15.499  22.784  0.00  0.00    -0.035 C 
ATOM     91  H21 non d ame     -32.207  15.275  22.347  0.00  0.00     0.037 H 
ATOM     92  H22 non d ame     -30.948  16.534  22.975  0.00  0.00     0.037 H 
BRANCH  90  93
ATOM     93  C17 non d ame     -30.167  14.918  21.804  0.00  0.00    -0.059 C 
ATOM     94  H23 non d ame     -30.321  13.841  21.748  0.00  0.00     0.038 H 
BRANCH  93  95
ATOM     95  C18 non d ame     -30.315  15.496  20.360  0.00  0.00    -0.073 C 
ATOM     96  H24 non d ame     -30.085  16.561  20.369  0.00  0.00     0.028 H 
ATOM     97  H25 non d ame     -29.626  14.982  19.691  0.00  0.00     0.028 H 
ATOM     98  H26 non d ame     -31.337  15.348  20.013  0.00  0.00     0.028 H 
ENDBRANCH  93  95
BRANCH  93  99
ATOM     99  C19 non d ame     -28.751  15.148  22.339  0.00  0.00    -0.073 C 
ATOM    100  H27 non d ame     -28.242  15.884  21.715  0.00  0.00     0.028 H 
ATOM    101  H28 non d ame     -28.804  15.517  23.364  0.00  0.00     0.028 H 
ATOM    102  H29 non d ame     -28.198  14.209  22.319  0.00  0.00     0.028 H 
ENDBRANCH  93  99
ENDBRANCH  90  93
ENDBRANCH   1  90
TORSDOF 26
ENDMDL
MODEL 12
REMARK VINA RESULT:      -6.5      2.616      6.825
REMARK  26 active torsions:
REMARK  status: ('A' for Active; 'I' for Inactive)
REMARK    1  A    between atoms: C2_2  and  C3_3 
REMARK    2  A    between atoms: C4_6  and  C5_7 
REMARK       I    between atoms: C5_7  and  N2_9 
REMARK    3  A    between atoms: N2_9  and  C6_10 
REMARK    4  A    between atoms: C6_10  and  C7_11 
REMARK    5  A    between atoms: C6_10  and  C8_13 
REMARK       I    between atoms: C7_11  and  N3_14 
REMARK    6  A    between atoms: N3_14  and  C9_15 
REMARK    7  A    between atoms: C9_15  and  C10_16 
REMARK    8  A    between atoms: C9_15  and  C11_18 
REMARK       I    between atoms: C10_16  and  N4_21 
REMARK    9  A    between atoms: C11_18  and  C12_19 
REMARK   10  A    between atoms: C11_18  and  C13_20 
REMARK   11  A    between atoms: N4_21  and  C14_22 
REMARK   12  A    between atoms: C14_22  and  C15_23 
REMARK   13  A    between atoms: C14_22  and  C16_25 
REMARK       I    between atoms: C15_23  and  N6_40 
REMARK   14  A    between atoms: C16_25  and  C17_26 
REMARK   15  A    between atoms: C17_26  and  C18_27 
REMARK   16  A    between atoms: C17_26  and  C19_28 
REMARK   17  A    between atoms: C20_29  and  C21_30 
REMARK   18  A    between atoms: C20_29  and  C24_33 
REMARK   19  A    between atoms: C20_29  and  N6_40 
REMARK   20  A    between atoms: C21_30  and  C22_31 
REMARK   21  A    between atoms: C22_31  and  C23_32 
REMARK   22  A    between atoms: C23_32  and  O8_43 
REMARK   23  A    between atoms: C24_33  and  C25_34 
REMARK   24  A    between atoms: C28_38  and  O6_39 
REMARK   25  A    between atoms: C29_42  and  O8_43 
REMARK   26  A    between atoms: C29_42  and  C35_49 
ROOT
ATOM      1  C14 non d ame     -31.073  13.511  24.615  0.00  0.00     0.089 C 
ATOM      2  H20 non d ame     -30.077  13.426  25.051  0.00  0.00     0.087 H 
ENDROOT
BRANCH   1   3
ATOM      3  N4  non d ame     -31.428  12.208  24.073  0.00  0.00    -0.346 N 
ATOM      4  C10 non d ame     -31.181  10.957  24.876  0.00  0.00     0.241 C 
ATOM      5  O4  non d ame     -30.694  11.022  25.956  0.00  0.00    -0.271 OA
ATOM      6  H19 non d ame     -31.839  12.174  23.151  0.00  0.00     0.163 HD
BRANCH   4   7
ATOM      7  C9  non d ame     -31.559   9.616  24.301  0.00  0.00     0.092 C 
ATOM      8  H11 non d ame     -31.009   8.834  24.824  0.00  0.00     0.088 H 
BRANCH   7   9
ATOM      9  N3  non d ame     -32.986   9.370  24.532  0.00  0.00    -0.346 N 
ATOM     10  C7  non d ame     -33.411   8.155  25.182  0.00  0.00     0.240 C 
ATOM     11  O3  non d ame     -32.619   7.365  25.526  0.00  0.00    -0.271 OA
ATOM     12  H10 non d ame     -33.680  10.042  24.239  0.00  0.00     0.163 HD
BRANCH  10  13
ATOM     13  C6  non d ame     -34.931   7.897  25.422  0.00  0.00     0.086 C 
ATOM     14  H6  non d ame     -35.287   6.989  24.935  0.00  0.00     0.086 H 
BRANCH  13  15
ATOM     15  N2  non d ame     -35.161   7.721  26.846  0.00  0.00    -0.343 N 
ATOM     16  C5  non d ame     -34.692   8.743  27.784  0.00  0.00     0.273 C 
ATOM     17  O2  non d ame     -34.128   9.701  27.384  0.00  0.00    -0.266 OA
ATOM     18  H5  non d ame     -35.642   6.898  27.180  0.00  0.00     0.163 HD
BRANCH  16  19
ATOM     19  C4  non d ame     -34.929   8.570  29.293  0.00  0.00     0.154 A 
ATOM     20  C1  non d ame     -35.335   9.576  30.225  0.00  0.00    -0.017 A 
ATOM     21  C2  non d ame     -35.409   8.910  31.469  0.00  0.00     0.077 A 
ATOM     22  H1  non d ame     -35.545  10.628  30.029  0.00  0.00     0.091 H 
ATOM     23  O1  non d ame     -35.083   7.668  31.264  0.00  0.00    -0.218 OA
ATOM     24  N1  non d ame     -34.799   7.445  30.001  0.00  0.00    -0.123 NA
BRANCH  21  25
ATOM     25  C3  non d ame     -35.800   9.532  32.803  0.00  0.00    -0.029 C 
ATOM     26  H2  non d ame     -35.127  10.359  33.029  0.00  0.00     0.036 H 
ATOM     27  H3  non d ame     -36.823   9.904  32.745  0.00  0.00     0.036 H 
ATOM     28  H4  non d ame     -35.730   8.782  33.589  0.00  0.00     0.036 H 
ENDBRANCH  21  25
ENDBRANCH  16  19
ENDBRANCH  13  15
BRANCH  13  29
ATOM     29  C8  non d ame     -35.730   9.068  24.910  0.00  0.00    -0.049 C 
ATOM     30  H7  non d ame     -35.930   8.936  23.847  0.00  0.00     0.030 H 
ATOM     31  H8  non d ame     -36.674   9.130  25.451  0.00  0.00     0.030 H 
ATOM     32  H9  non d ame     -35.163   9.988  25.061  0.00  0.00     0.030 H 
ENDBRANCH  13  29
ENDBRANCH  10  13
ENDBRANCH   7   9
BRANCH   7  33
ATOM     33  C11 non d ame     -31.276   9.611  22.770  0.00  0.00    -0.033 C 
ATOM     34  H12 non d ame     -31.645  10.552  22.364  0.00  0.00     0.042 H 
BRANCH  33  35
ATOM     35  C12 non d ame     -29.744   9.542  22.477  0.00  0.00    -0.071 C 
ATOM     36  H13 non d ame     -29.252  10.414  22.909  0.00  0.00     0.028 H 
ATOM     37  H14 non d ame     -29.330   8.636  22.917  0.00  0.00     0.028 H 
ATOM     38  H15 non d ame     -29.581   9.531  21.399  0.00  0.00     0.028 H 
ENDBRANCH  33  35
BRANCH  33  39
ATOM     39  C13 non d ame     -32.040   8.446  22.064  0.00  0.00    -0.071 C 
ATOM     40  H16 non d ame     -32.958   8.229  22.612  0.00  0.00     0.028 H 
ATOM     41  H17 non d ame     -32.286   8.738  21.043  0.00  0.00     0.028 H 
ATOM     42  H18 non d ame     -31.411   7.556  22.044  0.00  0.00     0.028 H 
ENDBRANCH  33  39
ENDBRANCH   7  33
ENDBRANCH   4   7
ENDBRANCH   1   3
BRANCH   1  43
ATOM     43  C15 non d ame     -32.142  13.917  25.671  0.00  0.00     0.240 C 
ATOM     44  O5  non d ame     -33.260  13.529  25.558  0.00  0.00    -0.271 OA
ATOM     45  N6  non d ame     -31.770  14.780  26.828  0.00  0.00    -0.355 N 
ATOM     46  H46 non d ame     -30.822  15.111  26.937  0.00  0.00     0.162 HD
BRANCH  45  47
ATOM     47  C20 non d ame     -32.798  15.155  27.823  0.00  0.00     0.013 C 
ATOM     48  H30 non d ame     -33.732  14.672  27.537  0.00  0.00     0.072 H 
BRANCH  47  49
ATOM     49  C21 non d ame     -32.970  16.657  27.822  0.00  0.00    -0.038 C 
ATOM     50  H31 non d ame     -34.041  16.830  27.935  0.00  0.00     0.036 H 
ATOM     51  H32 non d ame     -32.274  17.033  28.572  0.00  0.00     0.036 H 
BRANCH  49  52
ATOM     52  C22 non d ame     -32.561  17.306  26.482  0.00  0.00     0.018 C 
ATOM     53  H33 non d ame     -31.482  17.173  26.407  0.00  0.00     0.048 H 
ATOM     54  H34 non d ame     -33.218  16.869  25.730  0.00  0.00     0.048 H 
BRANCH  52  55
ATOM     55  C23 non d ame     -32.808  18.839  26.428  0.00  0.00     0.259 C 
ATOM     56  O7  non d ame     -32.164  19.578  27.101  0.00  0.00    -0.265 OA
BRANCH  55  57
ATOM     57  O8  non d ame     -33.824  19.352  25.574  0.00  0.00    -0.317 OA
BRANCH  57  58
ATOM     58  C29 non d ame     -35.090  18.701  25.719  0.00  0.00     0.052 C 
ATOM     59  H47 non d ame     -35.606  18.845  24.770  0.00  0.00     0.082 H 
ATOM     60  H48 non d ame     -34.866  17.695  26.072  0.00  0.00     0.082 H 
BRANCH  58  61
ATOM     61  C35 non d ame     -35.885  19.443  26.827  0.00  0.00    -0.034 A 
ATOM     62  C30 non d ame     -36.500  20.659  26.547  0.00  0.00    -0.075 A 
ATOM     63  C31 non d ame     -37.214  21.326  27.542  0.00  0.00    -0.082 A 
ATOM     64  H49 non d ame     -36.423  21.090  25.549  0.00  0.00     0.084 H 
ATOM     65  C32 non d ame     -37.310  20.772  28.822  0.00  0.00    -0.083 A 
ATOM     66  H50 non d ame     -37.697  22.278  27.319  0.00  0.00     0.083 H 
ATOM     67  C33 non d ame     -36.691  19.561  29.097  0.00  0.00    -0.082 A 
ATOM     68  H51 non d ame     -37.867  21.287  29.605  0.00  0.00     0.083 H 
ATOM     69  C34 non d ame     -35.978  18.890  28.106  0.00  0.00    -0.075 A 
ATOM     70  H52 non d ame     -36.766  19.133  30.098  0.00  0.00     0.083 H 
ATOM     71  H53 non d ame     -35.497  17.938  28.329  0.00  0.00     0.084 H 
ENDBRANCH  58  61
ENDBRANCH  57  58
ENDBRANCH  55  57
ENDBRANCH  52  55
ENDBRANCH  49  52
ENDBRANCH  47  49
BRANCH  47  72
ATOM     72  C24 non d ame     -32.365  14.691  29.212  0.00  0.00    -0.039 C 
ATOM     73  H35 non d ame     -31.670  15.453  29.568  0.00  0.00     0.036 H 
ATOM     74  H36 non d ame     -33.290  14.501  29.756  0.00  0.00     0.036 H 
BRANCH  72  75
ATOM     75  C25 non d ame     -31.559  13.308  29.151  0.00  0.00    -0.001 C 
ATOM     76  C26 non d ame     -32.606  12.045  29.249  0.00  0.00    -0.035 C 
ATOM     77  C27 non d ame     -32.186  11.202  30.223  0.00  0.00     0.085 C 
ATOM     78  H38 non d ame     -33.575  12.389  29.611  0.00  0.00     0.036 H 
ATOM     79  H39 non d ame     -32.548  11.439  28.345  0.00  0.00     0.036 H 
ATOM     80  N5  non d ame     -31.133  11.938  31.017  0.00  0.00    -0.049 N 
ATOM     81  H40 non d ame     -33.056  11.032  30.857  0.00  0.00     0.075 H 
ATOM     82  H41 non d ame     -31.719  10.367  29.703  0.00  0.00     0.075 H 
ATOM     83  C28 non d ame     -30.715  13.216  30.124  0.00  0.00     0.193 C 
ATOM     84  H42 non d ame     -31.586  12.267  31.857  0.00  0.00     0.280 HD
ATOM     85  H43 non d ame     -30.339  11.317  31.082  0.00  0.00     0.280 HD
ATOM     86  H44 non d ame     -29.775  13.222  29.572  0.00  0.00     0.129 H 
ATOM     87  H37 non d ame     -30.833  13.289  28.339  0.00  0.00     0.046 H 
BRANCH  83  88
ATOM     88  O6  non d ame     -30.692  14.395  30.931  0.00  0.00    -0.369 OA
ATOM     89  H45 non d ame     -31.538  14.496  31.375  0.00  0.00     0.212 HD
ENDBRANCH  83  88
ENDBRANCH  72  75
ENDBRANCH  47  72
ENDBRANCH  45  47
ENDBRANCH   1  43
BRANCH   1  90
ATOM     90  C16 non d ame     -31.056  14.531  23.488  0.00  0.00    -0.035 C 
ATOM     91  H21 non d ame     -31.759  14.154  22.747  0.00  0.00     0.037 H 
ATOM     92  H22 non d ame     -31.232  15.494  23.968  0.00  0.00     0.037 H 
BRANCH  90  93
ATOM     93  C17 non d ame     -29.675  14.643  22.766  0.00  0.00    -0.059 C 
ATOM     94  H23 non d ame     -28.917  14.822  23.529  0.00  0.00     0.038 H 
BRANCH  93  95
ATOM     95  C18 non d ame     -29.293  13.327  22.017  0.00  0.00    -0.073 C 
ATOM     96  H24 non d ame     -28.340  13.463  21.505  0.00  0.00     0.028 H 
ATOM     97  H25 non d ame     -29.205  12.512  22.735  0.00  0.00     0.028 H 
ATOM     98  H26 non d ame     -30.066  13.087  21.287  0.00  0.00     0.028 H 
ENDBRANCH  93  95
BRANCH  93  99
ATOM     99  C19 non d ame     -29.652  15.840  21.811  0.00  0.00    -0.073 C 
ATOM    100  H27 non d ame     -30.071  16.713  22.313  0.00  0.00     0.028 H 
ATOM    101  H28 non d ame     -28.624  16.050  21.515  0.00  0.00     0.028 H 
ATOM    102  H29 non d ame     -30.245  15.610  20.926  0.00  0.00     0.028 H 
ENDBRANCH  93  99
ENDBRANCH  90  93
ENDBRANCH   1  90
TORSDOF 26
ENDMDL
MODEL 13
REMARK VINA RESULT:      -6.5      2.294      8.624
REMARK  26 active torsions:
REMARK  status: ('A' for Active; 'I' for Inactive)
REMARK    1  A    between atoms: C2_2  and  C3_3 
REMARK    2  A    between atoms: C4_6  and  C5_7 
REMARK       I    between atoms: C5_7  and  N2_9 
REMARK    3  A    between atoms: N2_9  and  C6_10 
REMARK    4  A    between atoms: C6_10  and  C7_11 
REMARK    5  A    between atoms: C6_10  and  C8_13 
REMARK       I    between atoms: C7_11  and  N3_14 
REMARK    6  A    between atoms: N3_14  and  C9_15 
REMARK    7  A    between atoms: C9_15  and  C10_16 
REMARK    8  A    between atoms: C9_15  and  C11_18 
REMARK       I    between atoms: C10_16  and  N4_21 
REMARK    9  A    between atoms: C11_18  and  C12_19 
REMARK   10  A    between atoms: C11_18  and  C13_20 
REMARK   11  A    between atoms: N4_21  and  C14_22 
REMARK   12  A    between atoms: C14_22  and  C15_23 
REMARK   13  A    between atoms: C14_22  and  C16_25 
REMARK       I    between atoms: C15_23  and  N6_40 
REMARK   14  A    between atoms: C16_25  and  C17_26 
REMARK   15  A    between atoms: C17_26  and  C18_27 
REMARK   16  A    between atoms: C17_26  and  C19_28 
REMARK   17  A    between atoms: C20_29  and  C21_30 
REMARK   18  A    between atoms: C20_29  and  C24_33 
REMARK   19  A    between atoms: C20_29  and  N6_40 
REMARK   20  A    between atoms: C21_30  and  C22_31 
REMARK   21  A    between atoms: C22_31  and  C23_32 
REMARK   22  A    between atoms: C23_32  and  O8_43 
REMARK   23  A    between atoms: C24_33  and  C25_34 
REMARK   24  A    between atoms: C28_38  and  O6_39 
REMARK   25  A    between atoms: C29_42  and  O8_43 
REMARK   26  A    between atoms: C29_42  and  C35_49 
ROOT
ATOM      1  C14 non d ame     -36.903  15.228  26.190  0.00  0.00     0.089 C 
ATOM      2  H20 non d ame     -37.581  15.763  26.856  0.00  0.00     0.087 H 
ENDROOT
BRANCH   1   3
ATOM      3  N4  non d ame     -35.544  15.563  26.587  0.00  0.00    -0.346 N 
ATOM      4  C10 non d ame     -35.291  16.674  27.574  0.00  0.00     0.241 C 
ATOM      5  O4  non d ame     -36.197  17.287  28.035  0.00  0.00    -0.271 OA
ATOM      6  H19 non d ame     -34.787  15.032  26.182  0.00  0.00     0.163 HD
BRANCH   4   7
ATOM      7  C9  non d ame     -33.878  17.005  27.978  0.00  0.00     0.092 C 
ATOM      8  H11 non d ame     -33.894  17.580  28.902  0.00  0.00     0.088 H 
BRANCH   7   9
ATOM      9  N3  non d ame     -33.144  15.765  28.252  0.00  0.00    -0.346 N 
ATOM     10  C7  non d ame     -32.133  15.738  29.279  0.00  0.00     0.240 C 
ATOM     11  O3  non d ame     -31.895  16.705  29.894  0.00  0.00    -0.271 OA
ATOM     12  H10 non d ame     -33.338  14.924  27.728  0.00  0.00     0.163 HD
BRANCH  10  13
ATOM     13  C6  non d ame     -31.354  14.417  29.564  0.00  0.00     0.086 C 
ATOM     14  H6  non d ame     -30.784  14.455  30.492  0.00  0.00     0.086 H 
BRANCH  13  15
ATOM     15  N2  non d ame     -32.306  13.329  29.705  0.00  0.00    -0.343 N 
ATOM     16  C5  non d ame     -31.945  12.152  30.498  0.00  0.00     0.273 C 
ATOM     17  O2  non d ame     -30.884  12.089  31.017  0.00  0.00    -0.266 OA
ATOM     18  H5  non d ame     -33.209  13.389  29.256  0.00  0.00     0.163 HD
BRANCH  16  19
ATOM     19  C4  non d ame     -32.943  10.994  30.656  0.00  0.00     0.154 A 
ATOM     20  C1  non d ame     -33.321  10.037  29.663  0.00  0.00    -0.017 A 
ATOM     21  C2  non d ame     -34.256   9.196  30.306  0.00  0.00     0.077 A 
ATOM     22  H1  non d ame     -32.970   9.963  28.633  0.00  0.00     0.091 H 
ATOM     23  O1  non d ame     -34.392   9.627  31.525  0.00  0.00    -0.218 OA
ATOM     24  N1  non d ame     -33.635  10.676  31.754  0.00  0.00    -0.123 NA
BRANCH  21  25
ATOM     25  C3  non d ame     -34.973   8.004  29.686  0.00  0.00    -0.029 C 
ATOM     26  H2  non d ame     -34.719   7.937  28.628  0.00  0.00     0.036 H 
ATOM     27  H3  non d ame     -34.660   7.089  30.191  0.00  0.00     0.036 H 
ATOM     28  H4  non d ame     -36.050   8.129  29.794  0.00  0.00     0.036 H 
ENDBRANCH  21  25
ENDBRANCH  16  19
ENDBRANCH  13  15
BRANCH  13  29
ATOM     29  C8  non d ame     -30.408  14.132  28.425  0.00  0.00    -0.049 C 
ATOM     30  H7  non d ame     -30.960  13.692  27.595  0.00  0.00     0.030 H 
ATOM     31  H8  non d ame     -29.942  15.062  28.098  0.00  0.00     0.030 H 
ATOM     32  H9  non d ame     -29.637  13.436  28.758  0.00  0.00     0.030 H 
ENDBRANCH  13  29
ENDBRANCH  10  13
ENDBRANCH   7   9
BRANCH   7  33
ATOM     33  C11 non d ame     -33.175  17.774  26.820  0.00  0.00    -0.033 C 
ATOM     34  H12 non d ame     -33.948  18.099  26.124  0.00  0.00     0.042 H 
BRANCH  33  35
ATOM     35  C12 non d ame     -32.450  19.052  27.346  0.00  0.00    -0.071 C 
ATOM     36  H13 non d ame     -33.135  19.627  27.971  0.00  0.00     0.028 H 
ATOM     37  H14 non d ame     -31.580  18.762  27.933  0.00  0.00     0.028 H 
ATOM     38  H15 non d ame     -32.132  19.663  26.502  0.00  0.00     0.028 H 
ENDBRANCH  33  35
BRANCH  33  39
ATOM     39  C13 non d ame     -32.189  16.842  26.046  0.00  0.00    -0.071 C 
ATOM     40  H16 non d ame     -31.634  17.428  25.313  0.00  0.00     0.028 H 
ATOM     41  H17 non d ame     -31.493  16.384  26.750  0.00  0.00     0.028 H 
ATOM     42  H18 non d ame     -32.752  16.061  25.536  0.00  0.00     0.028 H 
ENDBRANCH  33  39
ENDBRANCH   7  33
ENDBRANCH   4   7
ENDBRANCH   1   3
BRANCH   1  43
ATOM     43  C15 non d ame     -37.081  13.685  26.286  0.00  0.00     0.240 C 
ATOM     44  O5  non d ame     -37.996  13.233  26.895  0.00  0.00    -0.271 OA
ATOM     45  N6  non d ame     -36.116  12.772  25.611  0.00  0.00    -0.355 N 
ATOM     46  H46 non d ame     -35.338  13.144  25.086  0.00  0.00     0.162 HD
BRANCH  45  47
ATOM     47  C20 non d ame     -36.300  11.308  25.712  0.00  0.00     0.013 C 
ATOM     48  H30 non d ame     -37.173  11.123  26.338  0.00  0.00     0.072 H 
BRANCH  47  49
ATOM     49  C21 non d ame     -35.071  10.691  26.340  0.00  0.00    -0.038 C 
ATOM     50  H31 non d ame     -34.997  11.131  27.335  0.00  0.00     0.036 H 
ATOM     51  H32 non d ame     -35.192   9.613  26.227  0.00  0.00     0.036 H 
BRANCH  49  52
ATOM     52  C22 non d ame     -33.768  11.064  25.598  0.00  0.00     0.018 C 
ATOM     53  H33 non d ame     -33.095  10.220  25.744  0.00  0.00     0.048 H 
ATOM     54  H34 non d ame     -34.074  11.351  24.593  0.00  0.00     0.048 H 
BRANCH  52  55
ATOM     55  C23 non d ame     -33.041  12.300  26.195  0.00  0.00     0.259 C 
ATOM     56  O7  non d ame     -33.553  12.946  27.051  0.00  0.00    -0.265 OA
BRANCH  55  57
ATOM     57  O8  non d ame     -31.758  12.662  25.696  0.00  0.00    -0.317 OA
BRANCH  57  58
ATOM     58  C29 non d ame     -31.428  12.056  24.443  0.00  0.00     0.052 C 
ATOM     59  H47 non d ame     -30.736  11.249  24.679  0.00  0.00     0.082 H 
ATOM     60  H48 non d ame     -32.380  11.836  23.962  0.00  0.00     0.082 H 
BRANCH  58  61
ATOM     61  C35 non d ame     -30.679  13.111  23.585  0.00  0.00    -0.034 A 
ATOM     62  C30 non d ame     -30.750  14.460  23.922  0.00  0.00    -0.075 A 
ATOM     63  C31 non d ame     -30.077  15.407  23.151  0.00  0.00    -0.082 A 
ATOM     64  H49 non d ame     -31.331  14.774  24.788  0.00  0.00     0.084 H 
ATOM     65  C32 non d ame     -29.334  15.003  22.039  0.00  0.00    -0.083 A 
ATOM     66  H50 non d ame     -30.133  16.464  23.419  0.00  0.00     0.083 H 
ATOM     67  C33 non d ame     -29.271  13.657  21.705  0.00  0.00    -0.082 A 
ATOM     68  H51 non d ame     -28.805  15.738  21.431  0.00  0.00     0.083 H 
ATOM     69  C34 non d ame     -29.939  12.706  22.473  0.00  0.00    -0.075 A 
ATOM     70  H52 non d ame     -28.692  13.344  20.834  0.00  0.00     0.083 H 
ATOM     71  H53 non d ame     -29.883  11.651  22.205  0.00  0.00     0.084 H 
ENDBRANCH  58  61
ENDBRANCH  57  58
ENDBRANCH  55  57
ENDBRANCH  52  55
ENDBRANCH  49  52
ENDBRANCH  47  49
BRANCH  47  72
ATOM     72  C24 non d ame     -36.513  10.717  24.319  0.00  0.00    -0.039 C 
ATOM     73  H35 non d ame     -36.501  11.569  23.639  0.00  0.00     0.036 H 
ATOM     74  H36 non d ame     -35.765   9.931  24.220  0.00  0.00     0.036 H 
BRANCH  72  75
ATOM     75  C25 non d ame     -37.950  10.023  24.183  0.00  0.00    -0.001 C 
ATOM     76  C26 non d ame     -38.061   8.756  25.224  0.00  0.00    -0.035 C 
ATOM     77  C27 non d ame     -38.474   7.662  24.539  0.00  0.00     0.085 C 
ATOM     78  H38 non d ame     -37.070   8.475  25.578  0.00  0.00     0.036 H 
ATOM     79  H39 non d ame     -38.866   8.927  25.939  0.00  0.00     0.036 H 
ATOM     80  N5  non d ame     -38.339   7.986  23.070  0.00  0.00    -0.049 N 
ATOM     81  H40 non d ame     -37.766   6.874  24.796  0.00  0.00     0.075 H 
ATOM     82  H41 non d ame     -39.529   7.548  24.782  0.00  0.00     0.075 H 
ATOM     83  C28 non d ame     -38.146   9.586  22.983  0.00  0.00     0.193 C 
ATOM     84  H42 non d ame     -37.489   7.542  22.756  0.00  0.00     0.280 HD
ATOM     85  H43 non d ame     -39.223   7.745  22.643  0.00  0.00     0.280 HD
ATOM     86  H44 non d ame     -38.971  10.227  22.671  0.00  0.00     0.129 H 
ATOM     87  H37 non d ame     -38.762  10.750  24.198  0.00  0.00     0.046 H 
BRANCH  83  88
ATOM     88  O6  non d ame     -37.062   9.905  22.110  0.00  0.00    -0.369 OA
ATOM     89  H45 non d ame     -36.489  10.551  22.532  0.00  0.00     0.212 HD
ENDBRANCH  83  88
ENDBRANCH  72  75
ENDBRANCH  47  72
ENDBRANCH  45  47
ENDBRANCH   1  43
BRANCH   1  90
ATOM     90  C16 non d ame     -37.128  15.680  24.756  0.00  0.00    -0.035 C 
ATOM     91  H21 non d ame     -36.184  16.122  24.441  0.00  0.00     0.037 H 
ATOM     92  H22 non d ame     -37.521  14.805  24.236  0.00  0.00     0.037 H 
BRANCH  90  93
ATOM     93  C17 non d ame     -38.208  16.800  24.614  0.00  0.00    -0.059 C 
ATOM     94  H23 non d ame     -38.280  17.312  25.574  0.00  0.00     0.038 H 
BRANCH  93  95
ATOM     95  C18 non d ame     -37.818  17.861  23.537  0.00  0.00    -0.073 C 
ATOM     96  H24 non d ame     -38.494  17.781  22.685  0.00  0.00     0.028 H 
ATOM     97  H25 non d ame     -37.894  18.860  23.966  0.00  0.00     0.028 H 
ATOM     98  H26 non d ame     -36.794  17.685  23.206  0.00  0.00     0.028 H 
ENDBRANCH  93  95
BRANCH  93  99
ATOM     99  C19 non d ame     -39.583  16.199  24.313  0.00  0.00    -0.073 C 
ATOM    100  H27 non d ame     -39.629  15.182  24.706  0.00  0.00     0.028 H 
ATOM    101  H28 non d ame     -40.357  16.805  24.786  0.00  0.00     0.028 H 
ATOM    102  H29 non d ame     -39.744  16.180  23.236  0.00  0.00     0.028 H 
ENDBRANCH  93  99
ENDBRANCH  90  93
ENDBRANCH   1  90
TORSDOF 26
ENDMDL
MODEL 14
REMARK VINA RESULT:      -6.4      3.202      7.945
REMARK  26 active torsions:
REMARK  status: ('A' for Active; 'I' for Inactive)
REMARK    1  A    between atoms: C2_2  and  C3_3 
REMARK    2  A    between atoms: C4_6  and  C5_7 
REMARK       I    between atoms: C5_7  and  N2_9 
REMARK    3  A    between atoms: N2_9  and  C6_10 
REMARK    4  A    between atoms: C6_10  and  C7_11 
REMARK    5  A    between atoms: C6_10  and  C8_13 
REMARK       I    between atoms: C7_11  and  N3_14 
REMARK    6  A    between atoms: N3_14  and  C9_15 
REMARK    7  A    between atoms: C9_15  and  C10_16 
REMARK    8  A    between atoms: C9_15  and  C11_18 
REMARK       I    between atoms: C10_16  and  N4_21 
REMARK    9  A    between atoms: C11_18  and  C12_19 
REMARK   10  A    between atoms: C11_18  and  C13_20 
REMARK   11  A    between atoms: N4_21  and  C14_22 
REMARK   12  A    between atoms: C14_22  and  C15_23 
REMARK   13  A    between atoms: C14_22  and  C16_25 
REMARK       I    between atoms: C15_23  and  N6_40 
REMARK   14  A    between atoms: C16_25  and  C17_26 
REMARK   15  A    between atoms: C17_26  and  C18_27 
REMARK   16  A    between atoms: C17_26  and  C19_28 
REMARK   17  A    between atoms: C20_29  and  C21_30 
REMARK   18  A    between atoms: C20_29  and  C24_33 
REMARK   19  A    between atoms: C20_29  and  N6_40 
REMARK   20  A    between atoms: C21_30  and  C22_31 
REMARK   21  A    between atoms: C22_31  and  C23_32 
REMARK   22  A    between atoms: C23_32  and  O8_43 
REMARK   23  A    between atoms: C24_33  and  C25_34 
REMARK   24  A    between atoms: C28_38  and  O6_39 
REMARK   25  A    between atoms: C29_42  and  O8_43 
REMARK   26  A    between atoms: C29_42  and  C35_49 
ROOT
ATOM      1  C14 non d ame     -32.341  10.649  24.502  0.00  0.00     0.089 C 
ATOM      2  H20 non d ame     -32.827  11.099  23.636  0.00  0.00     0.087 H 
ENDROOT
BRANCH   1   3
ATOM      3  N4  non d ame     -32.591  11.515  25.645  0.00  0.00    -0.346 N 
ATOM      4  C10 non d ame     -32.064  11.148  27.008  0.00  0.00     0.241 C 
ATOM      5  O4  non d ame     -31.441  10.149  27.163  0.00  0.00    -0.271 OA
ATOM      6  H19 non d ame     -33.126  12.358  25.493  0.00  0.00     0.163 HD
BRANCH   4   7
ATOM      7  C9  non d ame     -32.328  12.058  28.180  0.00  0.00     0.092 C 
ATOM      8  H11 non d ame     -31.413  12.172  28.759  0.00  0.00     0.088 H 
BRANCH   7   9
ATOM      9  N3  non d ame     -32.702  13.389  27.691  0.00  0.00    -0.346 N 
ATOM     10  C7  non d ame     -31.699  14.417  27.564  0.00  0.00     0.240 C 
ATOM     11  O3  non d ame     -30.587  14.192  27.852  0.00  0.00    -0.271 OA
ATOM     12  H10 non d ame     -33.658  13.598  27.440  0.00  0.00     0.163 HD
BRANCH  10  13
ATOM     13  C6  non d ame     -32.103  15.832  27.047  0.00  0.00     0.086 C 
ATOM     14  H6  non d ame     -31.807  16.631  27.727  0.00  0.00     0.086 H 
BRANCH  13  15
ATOM     15  N2  non d ame     -31.423  16.086  25.787  0.00  0.00    -0.343 N 
ATOM     16  C5  non d ame     -31.571  15.135  24.683  0.00  0.00     0.273 C 
ATOM     17  O2  non d ame     -32.236  14.168  24.819  0.00  0.00    -0.266 OA
ATOM     18  H5  non d ame     -30.854  16.914  25.681  0.00  0.00     0.163 HD
BRANCH  16  19
ATOM     19  C4  non d ame     -30.858  15.392  23.346  0.00  0.00     0.154 A 
ATOM     20  C1  non d ame     -31.463  15.532  22.057  0.00  0.00    -0.017 A 
ATOM     21  C2  non d ame     -30.384  15.752  21.172  0.00  0.00     0.077 A 
ATOM     22  H1  non d ame     -32.521  15.483  21.803  0.00  0.00     0.091 H 
ATOM     23  O1  non d ame     -29.293  15.739  21.880  0.00  0.00    -0.218 OA
ATOM     24  N1  non d ame     -29.544  15.530  23.152  0.00  0.00    -0.123 NA
BRANCH  21  25
ATOM     25  C3  non d ame     -30.481  15.966  19.668  0.00  0.00    -0.029 C 
ATOM     26  H2  non d ame     -29.572  16.449  19.310  0.00  0.00     0.036 H 
ATOM     27  H3  non d ame     -30.598  15.003  19.170  0.00  0.00     0.036 H 
ATOM     28  H4  non d ame     -31.340  16.598  19.444  0.00  0.00     0.036 H 
ENDBRANCH  21  25
ENDBRANCH  16  19
ENDBRANCH  13  15
BRANCH  13  29
ATOM     29  C8  non d ame     -33.596  15.891  26.849  0.00  0.00    -0.049 C 
ATOM     30  H7  non d ame     -33.883  16.895  26.539  0.00  0.00     0.030 H 
ATOM     31  H8  non d ame     -33.890  15.177  26.079  0.00  0.00     0.030 H 
ATOM     32  H9  non d ame     -34.097  15.642  27.786  0.00  0.00     0.030 H 
ENDBRANCH  13  29
ENDBRANCH  10  13
ENDBRANCH   7   9
BRANCH   7  33
ATOM     33  C11 non d ame     -33.493  11.477  29.034  0.00  0.00    -0.033 C 
ATOM     34  H12 non d ame     -34.061  12.318  29.431  0.00  0.00     0.042 H 
BRANCH  33  35
ATOM     35  C12 non d ame     -34.466  10.624  28.161  0.00  0.00    -0.071 C 
ATOM     36  H13 non d ame     -34.885   9.819  28.765  0.00  0.00     0.028 H 
ATOM     37  H14 non d ame     -35.272  11.257  27.790  0.00  0.00     0.028 H 
ATOM     38  H15 non d ame     -33.921  10.198  27.319  0.00  0.00     0.028 H 
ENDBRANCH  33  35
BRANCH  33  39
ATOM     39  C13 non d ame     -32.944  10.651  30.241  0.00  0.00    -0.071 C 
ATOM     40  H16 non d ame     -32.751  11.320  31.081  0.00  0.00     0.028 H 
ATOM     41  H17 non d ame     -33.679   9.901  30.534  0.00  0.00     0.028 H 
ATOM     42  H18 non d ame     -32.017  10.156  29.951  0.00  0.00     0.028 H 
ENDBRANCH  33  39
ENDBRANCH   7  33
ENDBRANCH   4   7
ENDBRANCH   1   3
BRANCH   1  43
ATOM     43  C15 non d ame     -32.903   9.234  24.821  0.00  0.00     0.240 C 
ATOM     44  O5  non d ame     -34.076   9.072  24.917  0.00  0.00    -0.271 OA
ATOM     45  N6  non d ame     -31.978   8.078  24.995  0.00  0.00    -0.355 N 
ATOM     46  H46 non d ame     -30.979   8.202  24.911  0.00  0.00     0.162 HD
BRANCH  45  47
ATOM     47  C20 non d ame     -32.529   6.738  25.297  0.00  0.00     0.013 C 
ATOM     48  H30 non d ame     -33.610   6.785  25.171  0.00  0.00     0.072 H 
BRANCH  47  49
ATOM     49  C21 non d ame     -32.188   6.367  26.722  0.00  0.00    -0.038 C 
ATOM     50  H31 non d ame     -31.988   5.295  26.708  0.00  0.00     0.036 H 
ATOM     51  H32 non d ame     -31.408   7.064  27.029  0.00  0.00     0.036 H 
BRANCH  49  52
ATOM     52  C22 non d ame     -33.369   6.578  27.695  0.00  0.00     0.018 C 
ATOM     53  H33 non d ame     -32.984   7.209  28.494  0.00  0.00     0.048 H 
ATOM     54  H34 non d ame     -34.200   6.924  27.079  0.00  0.00     0.048 H 
BRANCH  52  55
ATOM     55  C23 non d ame     -33.859   5.271  28.378  0.00  0.00     0.259 C 
ATOM     56  O7  non d ame     -33.560   4.210  27.933  0.00  0.00    -0.265 OA
BRANCH  55  57
ATOM     57  O8  non d ame     -34.681   5.355  29.536  0.00  0.00    -0.317 OA
BRANCH  57  58
ATOM     58  C29 non d ame     -35.934   6.010  29.314  0.00  0.00     0.052 C 
ATOM     59  H47 non d ame     -35.911   6.346  28.278  0.00  0.00     0.082 H 
ATOM     60  H48 non d ame     -36.697   5.306  29.643  0.00  0.00     0.082 H 
BRANCH  58  61
ATOM     61  C35 non d ame     -35.990   7.259  30.235  0.00  0.00    -0.034 A 
ATOM     62  C30 non d ame     -35.142   7.352  31.334  0.00  0.00    -0.075 A 
ATOM     63  C31 non d ame     -35.193   8.473  32.162  0.00  0.00    -0.082 A 
ATOM     64  H49 non d ame     -34.439   6.547  31.549  0.00  0.00     0.084 H 
ATOM     65  C32 non d ame     -36.096   9.503  31.887  0.00  0.00    -0.083 A 
ATOM     66  H50 non d ame     -34.525   8.544  33.022  0.00  0.00     0.083 H 
ATOM     67  C33 non d ame     -36.942   9.403  30.791  0.00  0.00    -0.082 A 
ATOM     68  H51 non d ame     -36.141  10.384  32.528  0.00  0.00     0.083 H 
ATOM     69  C34 non d ame     -36.894   8.286  29.961  0.00  0.00    -0.075 A 
ATOM     70  H52 non d ame     -37.649  10.208  30.581  0.00  0.00     0.083 H 
ATOM     71  H53 non d ame     -37.561   8.216  29.101  0.00  0.00     0.084 H 
ENDBRANCH  58  61
ENDBRANCH  57  58
ENDBRANCH  55  57
ENDBRANCH  52  55
ENDBRANCH  49  52
ENDBRANCH  47  49
BRANCH  47  72
ATOM     72  C24 non d ame     -31.928   5.707  24.343  0.00  0.00    -0.039 C 
ATOM     73  H35 non d ame     -30.867   5.952  24.283  0.00  0.00     0.036 H 
ATOM     74  H36 non d ame     -32.243   4.737  24.729  0.00  0.00     0.036 H 
BRANCH  72  75
ATOM     75  C25 non d ame     -32.530   5.846  22.865  0.00  0.00    -0.001 C 
ATOM     76  C26 non d ame     -33.094   4.389  22.352  0.00  0.00    -0.035 C 
ATOM     77  C27 non d ame     -32.565   4.121  21.134  0.00  0.00     0.085 C 
ATOM     78  H38 non d ame     -32.700   3.592  22.982  0.00  0.00     0.036 H 
ATOM     79  H39 non d ame     -34.165   4.450  22.157  0.00  0.00     0.036 H 
ATOM     80  N5  non d ame     -31.440   5.104  20.915  0.00  0.00    -0.049 N 
ATOM     81  H40 non d ame     -32.150   3.116  21.212  0.00  0.00     0.075 H 
ATOM     82  H41 non d ame     -33.361   4.327  20.419  0.00  0.00     0.075 H 
ATOM     83  C28 non d ame     -31.631   6.253  22.032  0.00  0.00     0.193 C 
ATOM     84  H42 non d ame     -30.584   4.606  21.109  0.00  0.00     0.280 HD
ATOM     85  H43 non d ame     -31.592   5.512  20.003  0.00  0.00     0.280 HD
ATOM     86  H44 non d ame     -32.041   7.226  21.760  0.00  0.00     0.129 H 
ATOM     87  H37 non d ame     -33.201   6.699  22.771  0.00  0.00     0.046 H 
BRANCH  83  88
ATOM     88  O6  non d ame     -30.385   6.529  22.674  0.00  0.00    -0.369 OA
ATOM     89  H45 non d ame     -30.351   7.456  22.923  0.00  0.00     0.212 HD
ENDBRANCH  83  88
ENDBRANCH  72  75
ENDBRANCH  47  72
ENDBRANCH  45  47
ENDBRANCH   1  43
BRANCH   1  90
ATOM     90  C16 non d ame     -30.842  10.562  24.263  0.00  0.00    -0.035 C 
ATOM     91  H21 non d ame     -30.421  11.438  24.753  0.00  0.00     0.037 H 
ATOM     92  H22 non d ame     -30.556   9.563  24.590  0.00  0.00     0.037 H 
BRANCH  90  93
ATOM     93  C17 non d ame     -30.442  10.666  22.757  0.00  0.00    -0.059 C 
ATOM     94  H23 non d ame     -31.343  10.507  22.164  0.00  0.00     0.038 H 
BRANCH  93  95
ATOM     95  C18 non d ame     -29.875  12.075  22.392  0.00  0.00    -0.073 C 
ATOM     96  H24 non d ame     -30.581  12.844  22.707  0.00  0.00     0.028 H 
ATOM     97  H25 non d ame     -28.924  12.227  22.903  0.00  0.00     0.028 H 
ATOM     98  H26 non d ame     -29.724  12.139  21.315  0.00  0.00     0.028 H 
ENDBRANCH  93  95
BRANCH  93  99
ATOM     99  C19 non d ame     -29.448   9.565  22.378  0.00  0.00    -0.073 C 
ATOM    100  H27 non d ame     -28.567  10.014  21.917  0.00  0.00     0.028 H 
ATOM    101  H28 non d ame     -29.149   9.019  23.274  0.00  0.00     0.028 H 
ATOM    102  H29 non d ame     -29.917   8.878  21.674  0.00  0.00     0.028 H 
ENDBRANCH  93  99
ENDBRANCH  90  93
ENDBRANCH   1  90
TORSDOF 26
ENDMDL
MODEL 15
REMARK VINA RESULT:      -6.4      1.983      8.011
REMARK  26 active torsions:
REMARK  status: ('A' for Active; 'I' for Inactive)
REMARK    1  A    between atoms: C2_2  and  C3_3 
REMARK    2  A    between atoms: C4_6  and  C5_7 
REMARK       I    between atoms: C5_7  and  N2_9 
REMARK    3  A    between atoms: N2_9  and  C6_10 
REMARK    4  A    between atoms: C6_10  and  C7_11 
REMARK    5  A    between atoms: C6_10  and  C8_13 
REMARK       I    between atoms: C7_11  and  N3_14 
REMARK    6  A    between atoms: N3_14  and  C9_15 
REMARK    7  A    between atoms: C9_15  and  C10_16 
REMARK    8  A    between atoms: C9_15  and  C11_18 
REMARK       I    between atoms: C10_16  and  N4_21 
REMARK    9  A    between atoms: C11_18  and  C12_19 
REMARK   10  A    between atoms: C11_18  and  C13_20 
REMARK   11  A    between atoms: N4_21  and  C14_22 
REMARK   12  A    between atoms: C14_22  and  C15_23 
REMARK   13  A    between atoms: C14_22  and  C16_25 
REMARK       I    between atoms: C15_23  and  N6_40 
REMARK   14  A    between atoms: C16_25  and  C17_26 
REMARK   15  A    between atoms: C17_26  and  C18_27 
REMARK   16  A    between atoms: C17_26  and  C19_28 
REMARK   17  A    between atoms: C20_29  and  C21_30 
REMARK   18  A    between atoms: C20_29  and  C24_33 
REMARK   19  A    between atoms: C20_29  and  N6_40 
REMARK   20  A    between atoms: C21_30  and  C22_31 
REMARK   21  A    between atoms: C22_31  and  C23_32 
REMARK   22  A    between atoms: C23_32  and  O8_43 
REMARK   23  A    between atoms: C24_33  and  C25_34 
REMARK   24  A    between atoms: C28_38  and  O6_39 
REMARK   25  A    between atoms: C29_42  and  O8_43 
REMARK   26  A    between atoms: C29_42  and  C35_49 
ROOT
ATOM      1  C14 non d ame     -36.801  12.350  26.439  0.00  0.00     0.089 C 
ATOM      2  H20 non d ame     -37.888  12.343  26.349  0.00  0.00     0.087 H 
ENDROOT
BRANCH   1   3
ATOM      3  N4  non d ame     -36.389  13.727  26.667  0.00  0.00    -0.346 N 
ATOM      4  C10 non d ame     -37.394  14.847  26.579  0.00  0.00     0.241 C 
ATOM      5  O4  non d ame     -38.529  14.617  26.321  0.00  0.00    -0.271 OA
ATOM      6  H19 non d ame     -35.418  13.902  26.882  0.00  0.00     0.163 HD
BRANCH   4   7
ATOM      7  C9  non d ame     -36.951  16.266  26.822  0.00  0.00     0.092 C 
ATOM      8  H11 non d ame     -37.235  16.563  27.831  0.00  0.00     0.088 H 
BRANCH   7   9
ATOM      9  N3  non d ame     -35.489  16.342  26.744  0.00  0.00    -0.346 N 
ATOM     10  C7  non d ame     -34.760  17.171  27.672  0.00  0.00     0.240 C 
ATOM     11  O3  non d ame     -35.334  17.784  28.487  0.00  0.00    -0.271 OA
ATOM     12  H10 non d ame     -34.981  15.820  26.044  0.00  0.00     0.163 HD
BRANCH  10  13
ATOM     13  C6  non d ame     -33.204  17.251  27.581  0.00  0.00     0.086 C 
ATOM     14  H6  non d ame     -32.708  16.498  28.193  0.00  0.00     0.086 H 
BRANCH  13  15
ATOM     15  N2  non d ame     -32.798  17.005  26.208  0.00  0.00    -0.343 N 
ATOM     16  C5  non d ame     -31.820  15.954  25.922  0.00  0.00     0.273 C 
ATOM     17  O2  non d ame     -31.362  15.314  26.804  0.00  0.00    -0.266 OA
ATOM     18  H5  non d ame     -33.191  17.560  25.461  0.00  0.00     0.163 HD
BRANCH  16  19
ATOM     19  C4  non d ame     -31.382  15.684  24.474  0.00  0.00     0.154 A 
ATOM     20  C1  non d ame     -30.468  14.681  24.020  0.00  0.00    -0.017 A 
ATOM     21  C2  non d ame     -30.409  14.851  22.619  0.00  0.00     0.077 A 
ATOM     22  H1  non d ame     -29.930  13.944  24.616  0.00  0.00     0.091 H 
ATOM     23  O1  non d ame     -31.201  15.836  22.314  0.00  0.00    -0.218 OA
ATOM     24  N1  non d ame     -31.780  16.339  23.380  0.00  0.00    -0.123 NA
BRANCH  21  25
ATOM     25  C3  non d ame     -29.574  14.030  21.645  0.00  0.00    -0.029 C 
ATOM     26  H2  non d ame     -28.733  13.582  22.175  0.00  0.00     0.036 H 
ATOM     27  H3  non d ame     -30.190  13.241  21.213  0.00  0.00     0.036 H 
ATOM     28  H4  non d ame     -29.201  14.675  20.851  0.00  0.00     0.036 H 
ENDBRANCH  21  25
ENDBRANCH  16  19
ENDBRANCH  13  15
BRANCH  13  29
ATOM     29  C8  non d ame     -32.742  18.617  28.021  0.00  0.00    -0.049 C 
ATOM     30  H7  non d ame     -33.566  19.325  27.936  0.00  0.00     0.030 H 
ATOM     31  H8  non d ame     -32.409  18.572  29.058  0.00  0.00     0.030 H 
ATOM     32  H9  non d ame     -31.916  18.942  27.387  0.00  0.00     0.030 H 
ENDBRANCH  13  29
ENDBRANCH  10  13
ENDBRANCH   7   9
BRANCH   7  33
ATOM     33  C11 non d ame     -37.574  17.196  25.740  0.00  0.00    -0.033 C 
ATOM     34  H12 non d ame     -38.383  16.646  25.259  0.00  0.00     0.042 H 
BRANCH  33  35
ATOM     35  C12 non d ame     -38.195  18.476  26.381  0.00  0.00    -0.071 C 
ATOM     36  H13 non d ame     -39.211  18.613  26.009  0.00  0.00     0.028 H 
ATOM     37  H14 non d ame     -38.216  18.367  27.465  0.00  0.00     0.028 H 
ATOM     38  H15 non d ame     -37.593  19.345  26.114  0.00  0.00     0.028 H 
ENDBRANCH  33  35
BRANCH  33  39
ATOM     39  C13 non d ame     -36.523  17.563  24.645  0.00  0.00    -0.071 C 
ATOM     40  H16 non d ame     -35.662  18.041  25.113  0.00  0.00     0.028 H 
ATOM     41  H17 non d ame     -36.202  16.657  24.130  0.00  0.00     0.028 H 
ATOM     42  H18 non d ame     -36.971  18.248  23.925  0.00  0.00     0.028 H 
ENDBRANCH  33  39
ENDBRANCH   7  33
ENDBRANCH   4   7
ENDBRANCH   1   3
BRANCH   1  43
ATOM     43  C15 non d ame     -36.306  11.481  27.631  0.00  0.00     0.240 C 
ATOM     44  O5  non d ame     -37.087  10.851  28.268  0.00  0.00    -0.271 OA
ATOM     45  N6  non d ame     -34.856  11.426  27.972  0.00  0.00    -0.355 N 
ATOM     46  H46 non d ame     -34.182  11.953  27.435  0.00  0.00     0.162 HD
BRANCH  45  47
ATOM     47  C20 non d ame     -34.401  10.594  29.107  0.00  0.00     0.013 C 
ATOM     48  H30 non d ame     -35.253  10.436  29.768  0.00  0.00     0.072 H 
BRANCH  47  49
ATOM     49  C21 non d ame     -33.299  11.318  29.847  0.00  0.00    -0.038 C 
ATOM     50  H31 non d ame     -33.775  11.765  30.720  0.00  0.00     0.036 H 
ATOM     51  H32 non d ame     -32.502  10.585  29.976  0.00  0.00     0.036 H 
BRANCH  49  52
ATOM     52  C22 non d ame     -32.695  12.483  29.033  0.00  0.00     0.018 C 
ATOM     53  H33 non d ame     -33.382  12.651  28.205  0.00  0.00     0.048 H 
ATOM     54  H34 non d ame     -32.504  13.278  29.754  0.00  0.00     0.048 H 
BRANCH  52  55
ATOM     55  C23 non d ame     -31.321  12.149  28.389  0.00  0.00     0.259 C 
ATOM     56  O7  non d ame     -30.314  12.560  28.870  0.00  0.00    -0.265 OA
BRANCH  55  57
ATOM     57  O8  non d ame     -31.278  11.358  27.208  0.00  0.00    -0.317 OA
BRANCH  57  58
ATOM     58  C29 non d ame     -31.839  11.997  26.058  0.00  0.00     0.052 C 
ATOM     59  H47 non d ame     -32.880  12.196  26.309  0.00  0.00     0.082 H 
ATOM     60  H48 non d ame     -31.168  12.821  25.821  0.00  0.00     0.082 H 
BRANCH  58  61
ATOM     61  C35 non d ame     -31.803  10.983  24.882  0.00  0.00    -0.034 A 
ATOM     62  C30 non d ame     -30.737  10.992  23.988  0.00  0.00    -0.075 A 
ATOM     63  C31 non d ame     -30.705  10.082  22.932  0.00  0.00    -0.082 A 
ATOM     64  H49 non d ame     -29.928  11.711  24.113  0.00  0.00     0.084 H 
ATOM     65  C32 non d ame     -31.745   9.162  22.771  0.00  0.00    -0.083 A 
ATOM     66  H50 non d ame     -29.867  10.089  22.234  0.00  0.00     0.083 H 
ATOM     67  C33 non d ame     -32.808   9.160  23.664  0.00  0.00    -0.082 A 
ATOM     68  H51 non d ame     -31.727   8.446  21.948  0.00  0.00     0.083 H 
ATOM     69  C34 non d ame     -32.844  10.067  24.721  0.00  0.00    -0.075 A 
ATOM     70  H52 non d ame     -33.620   8.443  23.534  0.00  0.00     0.083 H 
ATOM     71  H53 non d ame     -33.681  10.058  25.419  0.00  0.00     0.084 H 
ENDBRANCH  58  61
ENDBRANCH  57  58
ENDBRANCH  55  57
ENDBRANCH  52  55
ENDBRANCH  49  52
ENDBRANCH  47  49
BRANCH  47  72
ATOM     72  C24 non d ame     -33.877   9.256  28.590  0.00  0.00    -0.039 C 
ATOM     73  H35 non d ame     -33.787   9.379  27.510  0.00  0.00     0.036 H 
ATOM     74  H36 non d ame     -32.992   9.041  29.189  0.00  0.00     0.036 H 
BRANCH  72  75
ATOM     75  C25 non d ame     -34.922   8.070  28.846  0.00  0.00    -0.001 C 
ATOM     76  C26 non d ame     -35.368   8.049  30.428  0.00  0.00    -0.035 C 
ATOM     77  C27 non d ame     -35.208   6.793  30.911  0.00  0.00     0.085 C 
ATOM     78  H38 non d ame     -34.671   8.641  31.022  0.00  0.00     0.036 H 
ATOM     79  H39 non d ame     -36.441   8.221  30.517  0.00  0.00     0.036 H 
ATOM     80  N5  non d ame     -34.386   6.033  29.897  0.00  0.00    -0.049 N 
ATOM     81  H40 non d ame     -34.628   6.905  31.827  0.00  0.00     0.075 H 
ATOM     82  H41 non d ame     -36.209   6.366  30.949  0.00  0.00     0.075 H 
ATOM     83  C28 non d ame     -34.409   6.923  28.550  0.00  0.00     0.193 C 
ATOM     84  H42 non d ame     -33.442   6.012  30.253  0.00  0.00     0.280 HD
ATOM     85  H43 non d ame     -34.880   5.170  29.721  0.00  0.00     0.280 HD
ATOM     86  H44 non d ame     -35.039   6.636  27.708  0.00  0.00     0.129 H 
ATOM     87  H37 non d ame     -35.721   8.058  28.105  0.00  0.00     0.046 H 
BRANCH  83  88
ATOM     88  O6  non d ame     -33.089   7.044  28.017  0.00  0.00    -0.369 OA
ATOM     89  H45 non d ame     -33.074   7.736  27.351  0.00  0.00     0.212 HD
ENDBRANCH  83  88
ENDBRANCH  72  75
ENDBRANCH  47  72
ENDBRANCH  45  47
ENDBRANCH   1  43
BRANCH   1  90
ATOM     90  C16 non d ame     -36.174  11.850  25.147  0.00  0.00    -0.035 C 
ATOM     91  H21 non d ame     -35.473  12.627  24.848  0.00  0.00     0.037 H 
ATOM     92  H22 non d ame     -35.814  10.846  25.371  0.00  0.00     0.037 H 
BRANCH  90  93
ATOM     93  C17 non d ame     -37.194  11.702  23.973  0.00  0.00    -0.059 C 
ATOM     94  H23 non d ame     -36.747  11.042  23.229  0.00  0.00     0.038 H 
BRANCH  93  95
ATOM     95  C18 non d ame     -38.538  11.055  24.437  0.00  0.00    -0.073 C 
ATOM     96  H24 non d ame     -38.771  11.387  25.449  0.00  0.00     0.028 H 
ATOM     97  H25 non d ame     -39.339  11.358  23.763  0.00  0.00     0.028 H 
ATOM     98  H26 non d ame     -38.442   9.969  24.423  0.00  0.00     0.028 H 
ENDBRANCH  93  95
BRANCH  93  99
ATOM     99  C19 non d ame     -37.445  13.051  23.294  0.00  0.00    -0.073 C 
ATOM    100  H27 non d ame     -36.939  13.839  23.852  0.00  0.00     0.028 H 
ATOM    101  H28 non d ame     -37.059  13.023  22.275  0.00  0.00     0.028 H 
ATOM    102  H29 non d ame     -38.516  13.252  23.270  0.00  0.00     0.028 H 
ENDBRANCH  93  99
ENDBRANCH  90  93
ENDBRANCH   1  90
TORSDOF 26
ENDMDL
MODEL 16
REMARK VINA RESULT:      -6.3      2.654      7.771
REMARK  26 active torsions:
REMARK  status: ('A' for Active; 'I' for Inactive)
REMARK    1  A    between atoms: C2_2  and  C3_3 
REMARK    2  A    between atoms: C4_6  and  C5_7 
REMARK       I    between atoms: C5_7  and  N2_9 
REMARK    3  A    between atoms: N2_9  and  C6_10 
REMARK    4  A    between atoms: C6_10  and  C7_11 
REMARK    5  A    between atoms: C6_10  and  C8_13 
REMARK       I    between atoms: C7_11  and  N3_14 
REMARK    6  A    between atoms: N3_14  and  C9_15 
REMARK    7  A    between atoms: C9_15  and  C10_16 
REMARK    8  A    between atoms: C9_15  and  C11_18 
REMARK       I    between atoms: C10_16  and  N4_21 
REMARK    9  A    between atoms: C11_18  and  C12_19 
REMARK   10  A    between atoms: C11_18  and  C13_20 
REMARK   11  A    between atoms: N4_21  and  C14_22 
REMARK   12  A    between atoms: C14_22  and  C15_23 
REMARK   13  A    between atoms: C14_22  and  C16_25 
REMARK       I    between atoms: C15_23  and  N6_40 
REMARK   14  A    between atoms: C16_25  and  C17_26 
REMARK   15  A    between atoms: C17_26  and  C18_27 
REMARK   16  A    between atoms: C17_26  and  C19_28 
REMARK   17  A    between atoms: C20_29  and  C21_30 
REMARK   18  A    between atoms: C20_29  and  C24_33 
REMARK   19  A    between atoms: C20_29  and  N6_40 
REMARK   20  A    between atoms: C21_30  and  C22_31 
REMARK   21  A    between atoms: C22_31  and  C23_32 
REMARK   22  A    between atoms: C23_32  and  O8_43 
REMARK   23  A    between atoms: C24_33  and  C25_34 
REMARK   24  A    between atoms: C28_38  and  O6_39 
REMARK   25  A    between atoms: C29_42  and  O8_43 
REMARK   26  A    between atoms: C29_42  and  C35_49 
ROOT
ATOM      1  C14 non d ame     -36.734  15.361  26.244  0.00  0.00     0.089 C 
ATOM      2  H20 non d ame     -37.362  15.796  27.023  0.00  0.00     0.087 H 
ENDROOT
BRANCH   1   3
ATOM      3  N4  non d ame     -35.350  15.655  26.583  0.00  0.00    -0.346 N 
ATOM      4  C10 non d ame     -35.014  16.827  27.470  0.00  0.00     0.241 C 
ATOM      5  O4  non d ame     -35.876  17.522  27.899  0.00  0.00    -0.271 OA
ATOM      6  H19 non d ame     -34.631  15.053  26.206  0.00  0.00     0.163 HD
BRANCH   4   7
ATOM      7  C9  non d ame     -33.576  17.113  27.814  0.00  0.00     0.092 C 
ATOM      8  H11 non d ame     -33.539  17.738  28.706  0.00  0.00     0.088 H 
BRANCH   7   9
ATOM      9  N3  non d ame     -32.891  15.858  28.135  0.00  0.00    -0.346 N 
ATOM     10  C7  non d ame     -31.985  15.798  29.256  0.00  0.00     0.240 C 
ATOM     11  O3  non d ame     -31.796  16.750  29.910  0.00  0.00    -0.271 OA
ATOM     12  H10 non d ame     -33.043  15.029  27.579  0.00  0.00     0.163 HD
BRANCH  10  13
ATOM     13  C6  non d ame     -31.256  14.460  29.591  0.00  0.00     0.086 C 
ATOM     14  H6  non d ame     -30.692  14.509  30.523  0.00  0.00     0.086 H 
BRANCH  13  15
ATOM     15  N2  non d ame     -32.248  13.411  29.761  0.00  0.00    -0.343 N 
ATOM     16  C5  non d ame     -31.910  12.218  30.539  0.00  0.00     0.273 C 
ATOM     17  O2  non d ame     -30.837  12.109  31.023  0.00  0.00    -0.266 OA
ATOM     18  H5  non d ame     -33.161  13.511  29.342  0.00  0.00     0.163 HD
BRANCH  16  19
ATOM     19  C4  non d ame     -32.950  11.102  30.727  0.00  0.00     0.154 A 
ATOM     20  C1  non d ame     -34.080  11.112  31.605  0.00  0.00    -0.017 A 
ATOM     21  C2  non d ame     -34.708   9.863  31.402  0.00  0.00     0.077 A 
ATOM     22  H1  non d ame     -34.396  11.903  32.284  0.00  0.00     0.091 H 
ATOM     23  O1  non d ame     -34.014   9.220  30.509  0.00  0.00    -0.218 OA
ATOM     24  N1  non d ame     -32.983   9.923  30.101  0.00  0.00    -0.123 NA
BRANCH  21  25
ATOM     25  C3  non d ame     -35.967   9.363  32.098  0.00  0.00    -0.029 C 
ATOM     26  H2  non d ame     -35.743   9.146  33.142  0.00  0.00     0.036 H 
ATOM     27  H3  non d ame     -36.740  10.129  32.045  0.00  0.00     0.036 H 
ATOM     28  H4  non d ame     -36.320   8.457  31.606  0.00  0.00     0.036 H 
ENDBRANCH  21  25
ENDBRANCH  16  19
ENDBRANCH  13  15
BRANCH  13  29
ATOM     29  C8  non d ame     -30.313  14.103  28.470  0.00  0.00    -0.049 C 
ATOM     30  H7  non d ame     -29.584  14.902  28.340  0.00  0.00     0.030 H 
ATOM     31  H8  non d ame     -29.795  13.176  28.712  0.00  0.00     0.030 H 
ATOM     32  H9  non d ame     -30.880  13.974  27.547  0.00  0.00     0.030 H 
ENDBRANCH  13  29
ENDBRANCH  10  13
ENDBRANCH   7   9
BRANCH   7  33
ATOM     33  C11 non d ame     -32.876  17.786  26.596  0.00  0.00    -0.033 C 
ATOM     34  H12 non d ame     -32.089  18.431  26.985  0.00  0.00     0.042 H 
BRANCH  33  35
ATOM     35  C12 non d ame     -32.200  16.725  25.673  0.00  0.00    -0.071 C 
ATOM     36  H13 non d ame     -32.889  16.445  24.876  0.00  0.00     0.028 H 
ATOM     37  H14 non d ame     -31.293  17.145  25.240  0.00  0.00     0.028 H 
ATOM     38  H15 non d ame     -31.948  15.841  26.260  0.00  0.00     0.028 H 
ENDBRANCH  33  35
BRANCH  33  39
ATOM     39  C13 non d ame     -33.880  18.676  25.796  0.00  0.00    -0.071 C 
ATOM     40  H16 non d ame     -34.075  18.221  24.825  0.00  0.00     0.028 H 
ATOM     41  H17 non d ame     -34.814  18.762  26.353  0.00  0.00     0.028 H 
ATOM     42  H18 non d ame     -33.452  19.668  25.653  0.00  0.00     0.028 H 
ENDBRANCH  33  39
ENDBRANCH   7  33
ENDBRANCH   4   7
ENDBRANCH   1   3
BRANCH   1  43
ATOM     43  C15 non d ame     -36.904  13.817  26.148  0.00  0.00     0.240 C 
ATOM     44  O5  non d ame     -37.384  13.335  25.173  0.00  0.00    -0.271 OA
ATOM     45  N6  non d ame     -36.459  12.939  27.267  0.00  0.00    -0.355 N 
ATOM     46  H46 non d ame     -36.045  13.337  28.098  0.00  0.00     0.162 HD
BRANCH  45  47
ATOM     47  C20 non d ame     -36.626  11.474  27.159  0.00  0.00     0.013 C 
ATOM     48  H30 non d ame     -36.725  11.225  26.102  0.00  0.00     0.072 H 
BRANCH  47  49
ATOM     49  C21 non d ame     -37.871  11.056  27.908  0.00  0.00    -0.038 C 
ATOM     50  H31 non d ame     -37.592  11.050  28.962  0.00  0.00     0.036 H 
ATOM     51  H32 non d ame     -38.662  11.719  27.557  0.00  0.00     0.036 H 
BRANCH  49  52
ATOM     52  C22 non d ame     -38.322   9.619  27.567  0.00  0.00     0.018 C 
ATOM     53  H33 non d ame     -39.354   9.706  27.230  0.00  0.00     0.048 H 
ATOM     54  H34 non d ame     -37.560   9.223  26.896  0.00  0.00     0.048 H 
BRANCH  52  55
ATOM     55  C23 non d ame     -38.351   8.664  28.792  0.00  0.00     0.259 C 
ATOM     56  O7  non d ame     -38.934   8.971  29.782  0.00  0.00    -0.265 OA
BRANCH  55  57
ATOM     57  O8  non d ame     -37.661   7.422  28.725  0.00  0.00    -0.317 OA
BRANCH  57  58
ATOM     58  C29 non d ame     -37.628   6.706  29.963  0.00  0.00     0.052 C 
ATOM     59  H47 non d ame     -37.675   7.464  30.744  0.00  0.00     0.082 H 
ATOM     60  H48 non d ame     -38.408   5.950  29.888  0.00  0.00     0.082 H 
BRANCH  58  61
ATOM     61  C35 non d ame     -36.256   5.985  30.062  0.00  0.00    -0.034 A 
ATOM     62  C30 non d ame     -35.633   5.841  31.298  0.00  0.00    -0.075 A 
ATOM     63  C31 non d ame     -34.401   5.195  31.387  0.00  0.00    -0.082 A 
ATOM     64  H49 non d ame     -36.108   6.236  32.196  0.00  0.00     0.084 H 
ATOM     65  C32 non d ame     -33.791   4.692  30.234  0.00  0.00    -0.083 A 
ATOM     66  H50 non d ame     -33.915   5.082  32.357  0.00  0.00     0.083 H 
ATOM     67  C33 non d ame     -34.416   4.841  29.003  0.00  0.00    -0.082 A 
ATOM     68  H51 non d ame     -32.828   4.184  30.295  0.00  0.00     0.083 H 
ATOM     69  C34 non d ame     -35.647   5.485  28.910  0.00  0.00    -0.075 A 
ATOM     70  H52 non d ame     -33.936   4.450  28.105  0.00  0.00     0.083 H 
ATOM     71  H53 non d ame     -36.132   5.597  27.940  0.00  0.00     0.084 H 
ENDBRANCH  58  61
ENDBRANCH  57  58
ENDBRANCH  55  57
ENDBRANCH  52  55
ENDBRANCH  49  52
ENDBRANCH  47  49
BRANCH  47  72
ATOM     72  C24 non d ame     -35.410  10.770  27.757  0.00  0.00    -0.039 C 
ATOM     73  H35 non d ame     -34.769  11.568  28.133  0.00  0.00     0.036 H 
ATOM     74  H36 non d ame     -35.813  10.027  28.445  0.00  0.00     0.036 H 
BRANCH  72  75
ATOM     75  C25 non d ame     -34.575   9.979  26.642  0.00  0.00    -0.001 C 
ATOM     76  C26 non d ame     -34.452   8.393  27.056  0.00  0.00    -0.035 C 
ATOM     77  C27 non d ame     -33.149   8.025  26.996  0.00  0.00     0.085 C 
ATOM     78  H38 non d ame     -34.705   8.259  28.107  0.00  0.00     0.036 H 
ATOM     79  H39 non d ame     -34.927   7.769  26.298  0.00  0.00     0.036 H 
ATOM     80  N5  non d ame     -32.337   9.294  26.897  0.00  0.00    -0.049 N 
ATOM     81  H40 non d ame     -32.939   7.540  27.949  0.00  0.00     0.075 H 
ATOM     82  H41 non d ame     -33.048   7.465  26.067  0.00  0.00     0.075 H 
ATOM     83  C28 non d ame     -33.384  10.463  26.519  0.00  0.00     0.193 C 
ATOM     84  H42 non d ame     -31.975   9.474  27.822  0.00  0.00     0.280 HD
ATOM     85  H43 non d ame     -31.702   9.167  26.122  0.00  0.00     0.280 HD
ATOM     86  H44 non d ame     -33.434  10.853  25.502  0.00  0.00     0.129 H 
ATOM     87  H37 non d ame     -34.919  10.203  25.633  0.00  0.00     0.046 H 
BRANCH  83  88
ATOM     88  O6  non d ame     -33.176  11.602  27.356  0.00  0.00    -0.369 OA
ATOM     89  H45 non d ame     -33.780  11.566  28.102  0.00  0.00     0.212 HD
ENDBRANCH  83  88
ENDBRANCH  72  75
ENDBRANCH  47  72
ENDBRANCH  45  47
ENDBRANCH   1  43
BRANCH   1  90
ATOM     90  C16 non d ame     -37.064  15.996  24.903  0.00  0.00    -0.035 C 
ATOM     91  H21 non d ame     -36.110  16.339  24.504  0.00  0.00     0.037 H 
ATOM     92  H22 non d ame     -37.643  15.247  24.364  0.00  0.00     0.037 H 
BRANCH  90  93
ATOM     93  C17 non d ame     -37.973  17.261  25.016  0.00  0.00    -0.059 C 
ATOM     94  H23 non d ame     -38.096  17.486  26.075  0.00  0.00     0.038 H 
BRANCH  93  95
ATOM     95  C18 non d ame     -37.332  18.511  24.334  0.00  0.00    -0.073 C 
ATOM     96  H24 non d ame     -36.369  18.237  23.903  0.00  0.00     0.028 H 
ATOM     97  H25 non d ame     -37.992  18.874  23.546  0.00  0.00     0.028 H 
ATOM     98  H26 non d ame     -37.188  19.296  25.077  0.00  0.00     0.028 H 
ENDBRANCH  93  95
BRANCH  93  99
ATOM     99  C19 non d ame     -39.367  16.985  24.445  0.00  0.00    -0.073 C 
ATOM    100  H27 non d ame     -40.122  17.242  25.189  0.00  0.00     0.028 H 
ATOM    101  H28 non d ame     -39.520  17.588  23.550  0.00  0.00     0.028 H 
ATOM    102  H29 non d ame     -39.453  15.929  24.190  0.00  0.00     0.028 H 
ENDBRANCH  93  99
ENDBRANCH  90  93
ENDBRANCH   1  90
TORSDOF 26
ENDMDL
MODEL 17
REMARK VINA RESULT:      -6.3      3.091      7.354
REMARK  26 active torsions:
REMARK  status: ('A' for Active; 'I' for Inactive)
REMARK    1  A    between atoms: C2_2  and  C3_3 
REMARK    2  A    between atoms: C4_6  and  C5_7 
REMARK       I    between atoms: C5_7  and  N2_9 
REMARK    3  A    between atoms: N2_9  and  C6_10 
REMARK    4  A    between atoms: C6_10  and  C7_11 
REMARK    5  A    between atoms: C6_10  and  C8_13 
REMARK       I    between atoms: C7_11  and  N3_14 
REMARK    6  A    between atoms: N3_14  and  C9_15 
REMARK    7  A    between atoms: C9_15  and  C10_16 
REMARK    8  A    between atoms: C9_15  and  C11_18 
REMARK       I    between atoms: C10_16  and  N4_21 
REMARK    9  A    between atoms: C11_18  and  C12_19 
REMARK   10  A    between atoms: C11_18  and  C13_20 
REMARK   11  A    between atoms: N4_21  and  C14_22 
REMARK   12  A    between atoms: C14_22  and  C15_23 
REMARK   13  A    between atoms: C14_22  and  C16_25 
REMARK       I    between atoms: C15_23  and  N6_40 
REMARK   14  A    between atoms: C16_25  and  C17_26 
REMARK   15  A    between atoms: C17_26  and  C18_27 
REMARK   16  A    between atoms: C17_26  and  C19_28 
REMARK   17  A    between atoms: C20_29  and  C21_30 
REMARK   18  A    between atoms: C20_29  and  C24_33 
REMARK   19  A    between atoms: C20_29  and  N6_40 
REMARK   20  A    between atoms: C21_30  and  C22_31 
REMARK   21  A    between atoms: C22_31  and  C23_32 
REMARK   22  A    between atoms: C23_32  and  O8_43 
REMARK   23  A    between atoms: C24_33  and  C25_34 
REMARK   24  A    between atoms: C28_38  and  O6_39 
REMARK   25  A    between atoms: C29_42  and  O8_43 
REMARK   26  A    between atoms: C29_42  and  C35_49 
ROOT
ATOM      1  C14 non d ame     -33.012   9.194  27.578  0.00  0.00     0.089 C 
ATOM      2  H20 non d ame     -31.956   8.928  27.648  0.00  0.00     0.087 H 
ENDROOT
BRANCH   1   3
ATOM      3  N4  non d ame     -33.126  10.617  27.861  0.00  0.00    -0.346 N 
ATOM      4  C10 non d ame     -32.030  11.566  27.448  0.00  0.00     0.241 C 
ATOM      5  O4  non d ame     -31.064  11.161  26.890  0.00  0.00    -0.271 OA
ATOM      6  H19 non d ame     -33.955  10.940  28.339  0.00  0.00     0.163 HD
BRANCH   4   7
ATOM      7  C9  non d ame     -32.167  13.036  27.745  0.00  0.00     0.092 C 
ATOM      8  H11 non d ame     -31.770  13.609  26.908  0.00  0.00     0.088 H 
BRANCH   7   9
ATOM      9  N3  non d ame     -33.586  13.380  27.873  0.00  0.00    -0.346 N 
ATOM     10  C7  non d ame     -34.292  13.953  26.753  0.00  0.00     0.240 C 
ATOM     11  O3  non d ame     -33.733  14.146  25.743  0.00  0.00    -0.271 OA
ATOM     12  H10 non d ame     -34.081  13.220  28.739  0.00  0.00     0.163 HD
BRANCH  10  13
ATOM     13  C6  non d ame     -35.802  14.320  26.895  0.00  0.00     0.086 C 
ATOM     14  H6  non d ame     -36.194  14.112  27.891  0.00  0.00     0.086 H 
BRANCH  13  15
ATOM     15  N2  non d ame     -35.964  15.747  26.675  0.00  0.00    -0.343 N 
ATOM     16  C5  non d ame     -35.250  16.695  27.532  0.00  0.00     0.273 C 
ATOM     17  O2  non d ame     -34.550  16.301  28.399  0.00  0.00    -0.266 OA
ATOM     18  H5  non d ame     -36.566  16.076  25.933  0.00  0.00     0.163 HD
BRANCH  16  19
ATOM     19  C4  non d ame     -35.412  18.208  27.309  0.00  0.00     0.154 A 
ATOM     20  C1  non d ame     -36.605  18.981  27.462  0.00  0.00    -0.017 A 
ATOM     21  C2  non d ame     -36.225  20.303  27.141  0.00  0.00     0.077 A 
ATOM     22  H1  non d ame     -37.596  18.636  27.760  0.00  0.00     0.091 H 
ATOM     23  O1  non d ame     -34.960  20.281  26.842  0.00  0.00    -0.218 OA
ATOM     24  N1  non d ame     -34.463  19.068  26.932  0.00  0.00    -0.123 NA
BRANCH  21  25
ATOM     25  C3  non d ame     -37.129  21.528  27.146  0.00  0.00    -0.029 C 
ATOM     26  H2  non d ame     -38.145  21.229  27.402  0.00  0.00     0.036 H 
ATOM     27  H3  non d ame     -36.767  22.245  27.883  0.00  0.00     0.036 H 
ATOM     28  H4  non d ame     -37.124  21.989  26.159  0.00  0.00     0.036 H 
ENDBRANCH  21  25
ENDBRANCH  16  19
ENDBRANCH  13  15
BRANCH  13  29
ATOM     29  C8  non d ame     -36.607  13.545  25.884  0.00  0.00    -0.049 C 
ATOM     30  H7  non d ame     -36.034  12.682  25.546  0.00  0.00     0.030 H 
ATOM     31  H8  non d ame     -37.537  13.207  26.340  0.00  0.00     0.030 H 
ATOM     32  H9  non d ame     -36.833  14.187  25.031  0.00  0.00     0.030 H 
ENDBRANCH  13  29
ENDBRANCH  10  13
ENDBRANCH   7   9
BRANCH   7  33
ATOM     33  C11 non d ame     -31.435  13.365  29.080  0.00  0.00    -0.033 C 
ATOM     34  H12 non d ame     -30.406  13.020  28.985  0.00  0.00     0.042 H 
BRANCH  33  35
ATOM     35  C12 non d ame     -31.391  14.903  29.339  0.00  0.00    -0.071 C 
ATOM     36  H13 non d ame     -31.862  15.426  28.506  0.00  0.00     0.028 H 
ATOM     37  H14 non d ame     -31.926  15.133  30.260  0.00  0.00     0.028 H 
ATOM     38  H15 non d ame     -30.355  15.227  29.430  0.00  0.00     0.028 H 
ENDBRANCH  33  35
BRANCH  33  39
ATOM     39  C13 non d ame     -32.090  12.607  30.278  0.00  0.00    -0.071 C 
ATOM     40  H16 non d ame     -31.413  11.827  30.629  0.00  0.00     0.028 H 
ATOM     41  H17 non d ame     -32.288  13.309  31.089  0.00  0.00     0.028 H 
ATOM     42  H18 non d ame     -33.027  12.154  29.954  0.00  0.00     0.028 H 
ENDBRANCH  33  39
ENDBRANCH   7  33
ENDBRANCH   4   7
ENDBRANCH   1   3
BRANCH   1  43
ATOM     43  C15 non d ame     -33.592   8.923  26.159  0.00  0.00     0.240 C 
ATOM     44  O5  non d ame     -34.615   9.432  25.832  0.00  0.00    -0.271 OA
ATOM     45  N6  non d ame     -32.866   8.037  25.205  0.00  0.00    -0.355 N 
ATOM     46  H46 non d ame     -31.993   7.603  25.470  0.00  0.00     0.162 HD
BRANCH  45  47
ATOM     47  C20 non d ame     -33.430   7.791  23.860  0.00  0.00     0.013 C 
ATOM     48  H30 non d ame     -34.491   8.039  23.892  0.00  0.00     0.072 H 
BRANCH  47  49
ATOM     49  C21 non d ame     -33.249   6.334  23.501  0.00  0.00    -0.038 C 
ATOM     50  H31 non d ame     -34.257   5.926  23.411  0.00  0.00     0.036 H 
ATOM     51  H32 non d ame     -32.578   6.324  22.642  0.00  0.00     0.036 H 
BRANCH  49  52
ATOM     52  C22 non d ame     -32.548   5.525  24.614  0.00  0.00     0.018 C 
ATOM     53  H33 non d ame     -31.980   4.749  24.101  0.00  0.00     0.048 H 
ATOM     54  H34 non d ame     -32.032   6.260  25.232  0.00  0.00     0.048 H 
BRANCH  52  55
ATOM     55  C23 non d ame     -33.530   4.782  25.561  0.00  0.00     0.259 C 
ATOM     56  O7  non d ame     -33.672   3.605  25.479  0.00  0.00    -0.265 OA
BRANCH  55  57
ATOM     57  O8  non d ame     -34.269   5.527  26.522  0.00  0.00    -0.317 OA
BRANCH  57  58
ATOM     58  C29 non d ame     -35.335   4.794  27.132  0.00  0.00     0.052 C 
ATOM     59  H47 non d ame     -36.254   5.230  26.742  0.00  0.00     0.082 H 
ATOM     60  H48 non d ame     -35.111   3.743  26.954  0.00  0.00     0.082 H 
BRANCH  58  61
ATOM     61  C35 non d ame     -35.279   5.053  28.662  0.00  0.00    -0.034 A 
ATOM     62  C30 non d ame     -34.108   4.798  29.369  0.00  0.00    -0.075 A 
ATOM     63  C31 non d ame     -34.057   5.030  30.743  0.00  0.00    -0.082 A 
ATOM     64  H49 non d ame     -33.231   4.415  28.847  0.00  0.00     0.084 H 
ATOM     65  C32 non d ame     -35.184   5.518  31.410  0.00  0.00    -0.083 A 
ATOM     66  H50 non d ame     -33.137   4.831  31.294  0.00  0.00     0.083 H 
ATOM     67  C33 non d ame     -36.351   5.768  30.701  0.00  0.00    -0.082 A 
ATOM     68  H51 non d ame     -35.152   5.704  32.484  0.00  0.00     0.083 H 
ATOM     69  C34 non d ame     -36.405   5.539  29.328  0.00  0.00    -0.075 A 
ATOM     70  H52 non d ame     -37.229   6.147  31.225  0.00  0.00     0.083 H 
ATOM     71  H53 non d ame     -37.325   5.739  28.778  0.00  0.00     0.084 H 
ENDBRANCH  58  61
ENDBRANCH  57  58
ENDBRANCH  55  57
ENDBRANCH  52  55
ENDBRANCH  49  52
ENDBRANCH  47  49
BRANCH  47  72
ATOM     72  C24 non d ame     -32.713   8.664  22.832  0.00  0.00    -0.039 C 
ATOM     73  H35 non d ame     -32.664   8.061  21.924  0.00  0.00     0.036 H 
ATOM     74  H36 non d ame     -33.252   9.611  22.828  0.00  0.00     0.036 H 
BRANCH  72  75
ATOM     75  C25 non d ame     -31.205   8.980  23.271  0.00  0.00    -0.001 C 
ATOM     76  C26 non d ame     -31.013  10.598  23.489  0.00  0.00    -0.035 C 
ATOM     77  C27 non d ame     -29.934  11.009  22.781  0.00  0.00     0.085 C 
ATOM     78  H38 non d ame     -31.841  11.138  23.030  0.00  0.00     0.036 H 
ATOM     79  H39 non d ame     -30.734  10.806  24.522  0.00  0.00     0.036 H 
ATOM     80  N5  non d ame     -29.569   9.884  21.841  0.00  0.00    -0.049 N 
ATOM     81  H40 non d ame     -30.278  11.863  22.197  0.00  0.00     0.075 H 
ATOM     82  H41 non d ame     -29.137  11.134  23.512  0.00  0.00     0.075 H 
ATOM     83  C28 non d ame     -30.365   8.585  22.373  0.00  0.00     0.193 C 
ATOM     84  H42 non d ame     -29.936  10.138  20.936  0.00  0.00     0.280 HD
ATOM     85  H43 non d ame     -28.578   9.726  21.959  0.00  0.00     0.280 HD
ATOM     86  H44 non d ame     -29.841   7.802  22.923  0.00  0.00     0.129 H 
ATOM     87  H37 non d ame     -30.864   8.327  24.074  0.00  0.00     0.046 H 
BRANCH  83  88
ATOM     88  O6  non d ame     -31.010   7.922  21.285  0.00  0.00    -0.369 OA
ATOM     89  H45 non d ame     -31.280   8.570  20.630  0.00  0.00     0.212 HD
ENDBRANCH  83  88
ENDBRANCH  72  75
ENDBRANCH  47  72
ENDBRANCH  45  47
ENDBRANCH   1  43
BRANCH   1  90
ATOM     90  C16 non d ame     -33.808   8.415  28.612  0.00  0.00    -0.035 C 
ATOM     91  H21 non d ame     -34.483   7.781  28.039  0.00  0.00     0.037 H 
ATOM     92  H22 non d ame     -33.064   7.966  29.271  0.00  0.00     0.037 H 
BRANCH  90  93
ATOM     93  C17 non d ame     -34.711   9.316  29.515  0.00  0.00    -0.059 C 
ATOM     94  H23 non d ame     -34.441  10.354  29.320  0.00  0.00     0.038 H 
BRANCH  93  95
ATOM     95  C18 non d ame     -36.228   9.148  29.185  0.00  0.00    -0.073 C 
ATOM     96  H24 non d ame     -36.749   8.754  30.058  0.00  0.00     0.028 H 
ATOM     97  H25 non d ame     -36.651  10.117  28.919  0.00  0.00     0.028 H 
ATOM     98  H26 non d ame     -36.345   8.458  28.350  0.00  0.00     0.028 H 
ENDBRANCH  93  95
BRANCH  93  99
ATOM     99  C19 non d ame     -34.443   9.046  30.998  0.00  0.00    -0.073 C 
ATOM    100  H27 non d ame     -34.410   9.993  31.539  0.00  0.00     0.028 H 
ATOM    101  H28 non d ame     -35.240   8.423  31.405  0.00  0.00     0.028 H 
ATOM    102  H29 non d ame     -33.489   8.531  31.108  0.00  0.00     0.028 H 
ENDBRANCH  93  99
ENDBRANCH  90  93
ENDBRANCH   1  90
TORSDOF 26
ENDMDL
MODEL 18
REMARK VINA RESULT:      -6.3      2.223      7.887
REMARK  26 active torsions:
REMARK  status: ('A' for Active; 'I' for Inactive)
REMARK    1  A    between atoms: C2_2  and  C3_3 
REMARK    2  A    between atoms: C4_6  and  C5_7 
REMARK       I    between atoms: C5_7  and  N2_9 
REMARK    3  A    between atoms: N2_9  and  C6_10 
REMARK    4  A    between atoms: C6_10  and  C7_11 
REMARK    5  A    between atoms: C6_10  and  C8_13 
REMARK       I    between atoms: C7_11  and  N3_14 
REMARK    6  A    between atoms: N3_14  and  C9_15 
REMARK    7  A    between atoms: C9_15  and  C10_16 
REMARK    8  A    between atoms: C9_15  and  C11_18 
REMARK       I    between atoms: C10_16  and  N4_21 
REMARK    9  A    between atoms: C11_18  and  C12_19 
REMARK   10  A    between atoms: C11_18  and  C13_20 
REMARK   11  A    between atoms: N4_21  and  C14_22 
REMARK   12  A    between atoms: C14_22  and  C15_23 
REMARK   13  A    between atoms: C14_22  and  C16_25 
REMARK       I    between atoms: C15_23  and  N6_40 
REMARK   14  A    between atoms: C16_25  and  C17_26 
REMARK   15  A    between atoms: C17_26  and  C18_27 
REMARK   16  A    between atoms: C17_26  and  C19_28 
REMARK   17  A    between atoms: C20_29  and  C21_30 
REMARK   18  A    between atoms: C20_29  and  C24_33 
REMARK   19  A    between atoms: C20_29  and  N6_40 
REMARK   20  A    between atoms: C21_30  and  C22_31 
REMARK   21  A    between atoms: C22_31  and  C23_32 
REMARK   22  A    between atoms: C23_32  and  O8_43 
REMARK   23  A    between atoms: C24_33  and  C25_34 
REMARK   24  A    between atoms: C28_38  and  O6_39 
REMARK   25  A    between atoms: C29_42  and  O8_43 
REMARK   26  A    between atoms: C29_42  and  C35_49 
ROOT
ATOM      1  C14 non d ame     -35.881  13.192  26.097  0.00  0.00     0.089 C 
ATOM      2  H20 non d ame     -36.612  12.976  26.877  0.00  0.00     0.087 H 
ENDROOT
BRANCH   1   3
ATOM      3  N4  non d ame     -35.745  14.638  26.011  0.00  0.00    -0.346 N 
ATOM      4  C10 non d ame     -36.867  15.537  26.464  0.00  0.00     0.241 C 
ATOM      5  O4  non d ame     -37.873  15.074  26.893  0.00  0.00    -0.271 OA
ATOM      6  H19 non d ame     -34.884  15.013  25.641  0.00  0.00     0.163 HD
BRANCH   4   7
ATOM      7  C9  non d ame     -36.708  17.032  26.372  0.00  0.00     0.092 C 
ATOM      8  H11 non d ame     -37.019  17.484  27.314  0.00  0.00     0.088 H 
BRANCH   7   9
ATOM      9  N3  non d ame     -35.293  17.362  26.179  0.00  0.00    -0.346 N 
ATOM     10  C7  non d ame     -34.477  17.727  27.311  0.00  0.00     0.240 C 
ATOM     11  O3  non d ame     -34.943  17.759  28.384  0.00  0.00    -0.271 OA
ATOM     12  H10 non d ame     -34.878  17.340  25.258  0.00  0.00     0.163 HD
BRANCH  10  13
ATOM     13  C6  non d ame     -32.972  18.080  27.098  0.00  0.00     0.086 C 
ATOM     14  H6  non d ame     -32.324  17.637  27.854  0.00  0.00     0.086 H 
BRANCH  13  15
ATOM     15  N2  non d ame     -32.539  17.550  25.816  0.00  0.00    -0.343 N 
ATOM     16  C5  non d ame     -31.820  16.275  25.769  0.00  0.00     0.273 C 
ATOM     17  O2  non d ame     -31.592  15.685  26.767  0.00  0.00    -0.266 OA
ATOM     18  H5  non d ame     -32.736  18.062  24.968  0.00  0.00     0.163 HD
BRANCH  16  19
ATOM     19  C4  non d ame     -31.357  15.702  24.419  0.00  0.00     0.154 A 
ATOM     20  C1  non d ame     -30.689  14.458  24.192  0.00  0.00    -0.017 A 
ATOM     21  C2  non d ame     -30.487  14.405  22.795  0.00  0.00     0.077 A 
ATOM     22  H1  non d ame     -30.396  13.709  24.928  0.00  0.00     0.091 H 
ATOM     23  O1  non d ame     -30.985  15.494  22.289  0.00  0.00    -0.218 OA
ATOM     24  N1  non d ame     -31.499  16.267  23.218  0.00  0.00    -0.123 NA
BRANCH  21  25
ATOM     25  C3  non d ame     -29.812  13.278  22.024  0.00  0.00    -0.029 C 
ATOM     26  H2  non d ame     -29.383  12.563  22.726  0.00  0.00     0.036 H 
ATOM     27  H3  non d ame     -30.548  12.773  21.398  0.00  0.00     0.036 H 
ATOM     28  H4  non d ame     -29.022  13.689  21.396  0.00  0.00     0.036 H 
ENDBRANCH  21  25
ENDBRANCH  16  19
ENDBRANCH  13  15
BRANCH  13  29
ATOM     29  C8  non d ame     -32.796  19.577  27.124  0.00  0.00    -0.049 C 
ATOM     30  H7  non d ame     -31.734  19.819  27.133  0.00  0.00     0.030 H 
ATOM     31  H8  non d ame     -33.261  20.013  26.240  0.00  0.00     0.030 H 
ATOM     32  H9  non d ame     -33.268  19.983  28.021  0.00  0.00     0.030 H 
ENDBRANCH  13  29
ENDBRANCH  10  13
ENDBRANCH   7   9
BRANCH   7  33
ATOM     33  C11 non d ame     -37.533  17.568  25.164  0.00  0.00    -0.033 C 
ATOM     34  H12 non d ame     -38.582  17.570  25.458  0.00  0.00     0.042 H 
BRANCH  33  35
ATOM     35  C12 non d ame     -37.140  19.037  24.816  0.00  0.00    -0.071 C 
ATOM     36  H13 non d ame     -36.489  19.042  23.941  0.00  0.00     0.028 H 
ATOM     37  H14 non d ame     -38.039  19.613  24.603  0.00  0.00     0.028 H 
ATOM     38  H15 non d ame     -36.614  19.483  25.660  0.00  0.00     0.028 H 
ENDBRANCH  33  35
BRANCH  33  39
ATOM     39  C13 non d ame     -37.380  16.631  23.924  0.00  0.00    -0.071 C 
ATOM     40  H16 non d ame     -37.766  15.640  24.166  0.00  0.00     0.028 H 
ATOM     41  H17 non d ame     -37.939  17.044  23.084  0.00  0.00     0.028 H 
ATOM     42  H18 non d ame     -36.326  16.553  23.654  0.00  0.00     0.028 H 
ENDBRANCH  33  39
ENDBRANCH   7  33
ENDBRANCH   4   7
ENDBRANCH   1   3
BRANCH   1  43
ATOM     43  C15 non d ame     -34.486  12.582  26.417  0.00  0.00     0.240 C 
ATOM     44  O5  non d ame     -33.501  13.124  26.032  0.00  0.00    -0.271 OA
ATOM     45  N6  non d ame     -34.377  11.327  27.214  0.00  0.00    -0.355 N 
ATOM     46  H46 non d ame     -35.206  10.860  27.552  0.00  0.00     0.162 HD
BRANCH  45  47
ATOM     47  C20 non d ame     -33.043  10.761  27.510  0.00  0.00     0.013 C 
ATOM     48  H30 non d ame     -32.295  11.416  27.065  0.00  0.00     0.072 H 
BRANCH  47  49
ATOM     49  C21 non d ame     -32.942   9.377  26.910  0.00  0.00    -0.038 C 
ATOM     50  H31 non d ame     -31.882   9.125  26.926  0.00  0.00     0.036 H 
ATOM     51  H32 non d ame     -33.656   8.764  27.462  0.00  0.00     0.036 H 
BRANCH  49  52
ATOM     52  C22 non d ame     -33.382   9.332  25.430  0.00  0.00     0.018 C 
ATOM     53  H33 non d ame     -34.390   9.742  25.410  0.00  0.00     0.048 H 
ATOM     54  H34 non d ame     -32.582   9.818  24.871  0.00  0.00     0.048 H 
BRANCH  52  55
ATOM     55  C23 non d ame     -33.493   7.893  24.854  0.00  0.00     0.259 C 
ATOM     56  O7  non d ame     -34.541   7.471  24.484  0.00  0.00    -0.265 OA
BRANCH  55  57
ATOM     57  O8  non d ame     -32.329   7.077  24.786  0.00  0.00    -0.317 OA
BRANCH  57  58
ATOM     58  C29 non d ame     -32.011   6.625  23.467  0.00  0.00     0.052 C 
ATOM     59  H47 non d ame     -31.682   5.592  23.580  0.00  0.00     0.082 H 
ATOM     60  H48 non d ame     -32.883   6.856  22.857  0.00  0.00     0.082 H 
BRANCH  58  61
ATOM     61  C35 non d ame     -30.814   7.467  22.948  0.00  0.00    -0.034 A 
ATOM     62  C30 non d ame     -29.546   6.900  22.872  0.00  0.00    -0.075 A 
ATOM     63  C31 non d ame     -28.471   7.657  22.407  0.00  0.00    -0.082 A 
ATOM     64  H49 non d ame     -29.393   5.865  23.176  0.00  0.00     0.084 H 
ATOM     65  C32 non d ame     -28.668   8.985  22.019  0.00  0.00    -0.083 A 
ATOM     66  H50 non d ame     -27.478   7.210  22.346  0.00  0.00     0.083 H 
ATOM     67  C33 non d ame     -29.934   9.547  22.101  0.00  0.00    -0.082 A 
ATOM     68  H51 non d ame     -27.832   9.583  21.653  0.00  0.00     0.083 H 
ATOM     69  C34 non d ame     -31.012   8.794  22.564  0.00  0.00    -0.075 A 
ATOM     70  H52 non d ame     -30.084  10.585  21.800  0.00  0.00     0.083 H 
ATOM     71  H53 non d ame     -32.004   9.242  22.623  0.00  0.00     0.084 H 
ENDBRANCH  58  61
ENDBRANCH  57  58
ENDBRANCH  55  57
ENDBRANCH  52  55
ENDBRANCH  49  52
ENDBRANCH  47  49
BRANCH  47  72
ATOM     72  C24 non d ame     -32.842  10.678  29.022  0.00  0.00    -0.039 C 
ATOM     73  H35 non d ame     -33.739  10.193  29.407  0.00  0.00     0.036 H 
ATOM     74  H36 non d ame     -31.867  10.208  29.160  0.00  0.00     0.036 H 
BRANCH  72  75
ATOM     75  C25 non d ame     -32.765  12.131  29.691  0.00  0.00    -0.001 C 
ATOM     76  C26 non d ame     -31.619  13.035  28.936  0.00  0.00    -0.035 C 
ATOM     77  C27 non d ame     -30.787  13.556  29.870  0.00  0.00     0.085 C 
ATOM     78  H38 non d ame     -30.966  12.394  28.344  0.00  0.00     0.036 H 
ATOM     79  H39 non d ame     -32.074  13.915  28.482  0.00  0.00     0.036 H 
ATOM     80  N5  non d ame     -31.065  12.827  31.163  0.00  0.00    -0.049 N 
ATOM     81  H40 non d ame     -29.780  13.311  29.533  0.00  0.00     0.075 H 
ATOM     82  H41 non d ame     -31.088  14.597  29.979  0.00  0.00     0.075 H 
ATOM     83  C28 non d ame     -32.465  12.053  30.944  0.00  0.00     0.193 C 
ATOM     84  H42 non d ame     -30.332  12.141  31.267  0.00  0.00     0.280 HD
ATOM     85  H43 non d ame     -31.196  13.538  31.868  0.00  0.00     0.280 HD
ATOM     86  H44 non d ame     -33.384  12.435  31.392  0.00  0.00     0.129 H 
ATOM     87  H37 non d ame     -33.750  12.581  29.814  0.00  0.00     0.046 H 
BRANCH  83  88
ATOM     88  O6  non d ame     -32.356  10.700  31.390  0.00  0.00    -0.369 OA
ATOM     89  H45 non d ame     -32.692  10.111  30.710  0.00  0.00     0.212 HD
ENDBRANCH  83  88
ENDBRANCH  72  75
ENDBRANCH  47  72
ENDBRANCH  45  47
ENDBRANCH   1  43
BRANCH   1  90
ATOM     90  C16 non d ame     -36.378  12.659  24.763  0.00  0.00    -0.035 C 
ATOM     91  H21 non d ame     -36.635  13.540  24.178  0.00  0.00     0.037 H 
ATOM     92  H22 non d ame     -35.598  11.981  24.416  0.00  0.00     0.037 H 
BRANCH  90  93
ATOM     93  C17 non d ame     -37.684  11.809  24.877  0.00  0.00    -0.059 C 
ATOM     94  H23 non d ame     -38.176  12.082  25.810  0.00  0.00     0.038 H 
BRANCH  93  95
ATOM     95  C18 non d ame     -38.681  12.102  23.710  0.00  0.00    -0.073 C 
ATOM     96  H24 non d ame     -39.030  13.133  23.780  0.00  0.00     0.028 H 
ATOM     97  H25 non d ame     -38.176  11.955  22.755  0.00  0.00     0.028 H 
ATOM     98  H26 non d ame     -39.532  11.425  23.780  0.00  0.00     0.028 H 
ENDBRANCH  93  95
BRANCH  93  99
ATOM     99  C19 non d ame     -37.360  10.315  24.953  0.00  0.00    -0.073 C 
ATOM    100  H27 non d ame     -37.008   9.970  23.979  0.00  0.00     0.028 H 
ATOM    101  H28 non d ame     -36.583  10.148  25.699  0.00  0.00     0.028 H 
ATOM    102  H29 non d ame     -38.256   9.762  25.232  0.00  0.00     0.028 H 
ENDBRANCH  93  99
ENDBRANCH  90  93
ENDBRANCH   1  90
TORSDOF 26
ENDMDL
MODEL 19
REMARK VINA RESULT:      -6.3      2.389      6.606
REMARK  26 active torsions:
REMARK  status: ('A' for Active; 'I' for Inactive)
REMARK    1  A    between atoms: C2_2  and  C3_3 
REMARK    2  A    between atoms: C4_6  and  C5_7 
REMARK       I    between atoms: C5_7  and  N2_9 
REMARK    3  A    between atoms: N2_9  and  C6_10 
REMARK    4  A    between atoms: C6_10  and  C7_11 
REMARK    5  A    between atoms: C6_10  and  C8_13 
REMARK       I    between atoms: C7_11  and  N3_14 
REMARK    6  A    between atoms: N3_14  and  C9_15 
REMARK    7  A    between atoms: C9_15  and  C10_16 
REMARK    8  A    between atoms: C9_15  and  C11_18 
REMARK       I    between atoms: C10_16  and  N4_21 
REMARK    9  A    between atoms: C11_18  and  C12_19 
REMARK   10  A    between atoms: C11_18  and  C13_20 
REMARK   11  A    between atoms: N4_21  and  C14_22 
REMARK   12  A    between atoms: C14_22  and  C15_23 
REMARK   13  A    between atoms: C14_22  and  C16_25 
REMARK       I    between atoms: C15_23  and  N6_40 
REMARK   14  A    between atoms: C16_25  and  C17_26 
REMARK   15  A    between atoms: C17_26  and  C18_27 
REMARK   16  A    between atoms: C17_26  and  C19_28 
REMARK   17  A    between atoms: C20_29  and  C21_30 
REMARK   18  A    between atoms: C20_29  and  C24_33 
REMARK   19  A    between atoms: C20_29  and  N6_40 
REMARK   20  A    between atoms: C21_30  and  C22_31 
REMARK   21  A    between atoms: C22_31  and  C23_32 
REMARK   22  A    between atoms: C23_32  and  O8_43 
REMARK   23  A    between atoms: C24_33  and  C25_34 
REMARK   24  A    between atoms: C28_38  and  O6_39 
REMARK   25  A    between atoms: C29_42  and  O8_43 
REMARK   26  A    between atoms: C29_42  and  C35_49 
ROOT
ATOM      1  C14 non d ame     -31.727  14.995  23.720  0.00  0.00     0.089 C 
ATOM      2  H20 non d ame     -32.137  14.671  22.763  0.00  0.00     0.087 H 
ENDROOT
BRANCH   1   3
ATOM      3  N4  non d ame     -32.576  16.065  24.221  0.00  0.00    -0.346 N 
ATOM      4  C10 non d ame     -32.217  16.791  25.493  0.00  0.00     0.241 C 
ATOM      5  O4  non d ame     -31.240  16.494  26.098  0.00  0.00    -0.271 OA
ATOM      6  H19 non d ame     -33.405  16.300  23.693  0.00  0.00     0.163 HD
BRANCH   4   7
ATOM      7  C9  non d ame     -33.105  17.899  25.994  0.00  0.00     0.092 C 
ATOM      8  H11 non d ame     -32.921  18.799  25.408  0.00  0.00     0.088 H 
BRANCH   7   9
ATOM      9  N3  non d ame     -34.510  17.531  25.792  0.00  0.00    -0.346 N 
ATOM     10  C7  non d ame     -35.470  18.535  25.408  0.00  0.00     0.240 C 
ATOM     11  O3  non d ame     -35.131  19.645  25.258  0.00  0.00    -0.271 OA
ATOM     12  H10 non d ame     -34.817  16.577  25.920  0.00  0.00     0.163 HD
BRANCH  10  13
ATOM     13  C6  non d ame     -36.964  18.137  25.198  0.00  0.00     0.086 C 
ATOM     14  H6  non d ame     -37.452  18.726  24.422  0.00  0.00     0.086 H 
BRANCH  13  15
ATOM     15  N2  non d ame     -37.027  16.750  24.769  0.00  0.00    -0.343 N 
ATOM     16  C5  non d ame     -37.700  16.414  23.512  0.00  0.00     0.273 C 
ATOM     17  O2  non d ame     -38.190  17.266  22.855  0.00  0.00    -0.266 OA
ATOM     18  H5  non d ame     -36.609  16.028  25.338  0.00  0.00     0.163 HD
BRANCH  16  19
ATOM     19  C4  non d ame     -37.773  14.951  23.046  0.00  0.00     0.154 A 
ATOM     20  C1  non d ame     -38.613  14.411  22.022  0.00  0.00    -0.017 A 
ATOM     21  C2  non d ame     -38.300  13.034  21.984  0.00  0.00     0.077 A 
ATOM     22  H1  non d ame     -39.339  14.938  21.401  0.00  0.00     0.091 H 
ATOM     23  O1  non d ame     -37.386  12.819  22.883  0.00  0.00    -0.218 OA
ATOM     24  N1  non d ame     -37.062  13.923  23.516  0.00  0.00    -0.123 NA
BRANCH  21  25
ATOM     25  C3  non d ame     -38.918  11.994  21.059  0.00  0.00    -0.029 C 
ATOM     26  H2  non d ame     -38.135  11.521  20.469  0.00  0.00     0.036 H 
ATOM     27  H3  non d ame     -39.431  11.238  21.653  0.00  0.00     0.036 H 
ATOM     28  H4  non d ame     -39.633  12.478  20.393  0.00  0.00     0.036 H 
ENDBRANCH  21  25
ENDBRANCH  16  19
ENDBRANCH  13  15
BRANCH  13  29
ATOM     29  C8  non d ame     -37.720  18.314  26.490  0.00  0.00    -0.049 C 
ATOM     30  H7  non d ame     -38.780  18.129  26.319  0.00  0.00     0.030 H 
ATOM     31  H8  non d ame     -37.344  17.608  27.231  0.00  0.00     0.030 H 
ATOM     32  H9  non d ame     -37.583  19.332  26.855  0.00  0.00     0.030 H 
ENDBRANCH  13  29
ENDBRANCH  10  13
ENDBRANCH   7   9
BRANCH   7  33
ATOM     33  C11 non d ame     -32.844  18.125  27.513  0.00  0.00    -0.033 C 
ATOM     34  H12 non d ame     -31.865  17.707  27.744  0.00  0.00     0.042 H 
BRANCH  33  35
ATOM     35  C12 non d ame     -32.800  19.645  27.861  0.00  0.00    -0.071 C 
ATOM     36  H13 non d ame     -32.019  20.130  27.275  0.00  0.00     0.028 H 
ATOM     37  H14 non d ame     -33.763  20.100  27.630  0.00  0.00     0.028 H 
ATOM     38  H15 non d ame     -32.585  19.769  28.923  0.00  0.00     0.028 H 
ENDBRANCH  33  35
BRANCH  33  39
ATOM     39  C13 non d ame     -33.906  17.375  28.380  0.00  0.00    -0.071 C 
ATOM     40  H16 non d ame     -33.410  16.614  28.983  0.00  0.00     0.028 H 
ATOM     41  H17 non d ame     -34.410  18.087  29.034  0.00  0.00     0.028 H 
ATOM     42  H18 non d ame     -34.639  16.901  27.728  0.00  0.00     0.028 H 
ENDBRANCH  33  39
ENDBRANCH   7  33
ENDBRANCH   4   7
ENDBRANCH   1   3
BRANCH   1  43
ATOM     43  C15 non d ame     -31.709  13.846  24.769  0.00  0.00     0.240 C 
ATOM     44  O5  non d ame     -30.671  13.404  25.144  0.00  0.00    -0.271 OA
ATOM     45  N6  non d ame     -32.985  13.303  25.316  0.00  0.00    -0.355 N 
ATOM     46  H46 non d ame     -33.873  13.674  25.009  0.00  0.00     0.162 HD
BRANCH  45  47
ATOM     47  C20 non d ame     -32.950  12.212  26.313  0.00  0.00     0.013 C 
ATOM     48  H30 non d ame     -32.020  11.661  26.173  0.00  0.00     0.072 H 
BRANCH  47  49
ATOM     49  C21 non d ame     -34.132  11.296  26.094  0.00  0.00    -0.038 C 
ATOM     50  H31 non d ame     -34.970  11.769  26.606  0.00  0.00     0.036 H 
ATOM     51  H32 non d ame     -34.177  11.125  25.018  0.00  0.00     0.036 H 
BRANCH  49  52
ATOM     52  C22 non d ame     -33.946   9.909  26.749  0.00  0.00     0.018 C 
ATOM     53  H33 non d ame     -32.912   9.881  27.090  0.00  0.00     0.048 H 
ATOM     54  H34 non d ame     -34.761   9.811  27.467  0.00  0.00     0.048 H 
BRANCH  52  55
ATOM     55  C23 non d ame     -34.103   8.723  25.758  0.00  0.00     0.259 C 
ATOM     56  O7  non d ame     -35.174   8.251  25.548  0.00  0.00    -0.265 OA
BRANCH  55  57
ATOM     57  O8  non d ame     -32.950   8.196  25.113  0.00  0.00    -0.317 OA
BRANCH  57  58
ATOM     58  C29 non d ame     -32.945   8.371  23.693  0.00  0.00     0.052 C 
ATOM     59  H47 non d ame     -33.414   7.476  23.284  0.00  0.00     0.082 H 
ATOM     60  H48 non d ame     -33.388   9.349  23.515  0.00  0.00     0.082 H 
BRANCH  58  61
ATOM     61  C35 non d ame     -31.466   8.409  23.221  0.00  0.00    -0.034 A 
ATOM     62  C30 non d ame     -30.894   9.614  22.823  0.00  0.00    -0.075 A 
ATOM     63  C31 non d ame     -29.567   9.649  22.399  0.00  0.00    -0.082 A 
ATOM     64  H49 non d ame     -31.485  10.529  22.842  0.00  0.00     0.084 H 
ATOM     65  C32 non d ame     -28.811   8.473  22.372  0.00  0.00    -0.083 A 
ATOM     66  H50 non d ame     -29.120  10.595  22.089  0.00  0.00     0.083 H 
ATOM     67  C33 non d ame     -29.388   7.274  22.767  0.00  0.00    -0.082 A 
ATOM     68  H51 non d ame     -27.772   8.492  22.042  0.00  0.00     0.083 H 
ATOM     69  C34 non d ame     -30.714   7.234  23.193  0.00  0.00    -0.075 A 
ATOM     70  H52 non d ame     -28.796   6.358  22.742  0.00  0.00     0.083 H 
ATOM     71  H53 non d ame     -31.159   6.289  23.503  0.00  0.00     0.084 H 
ENDBRANCH  58  61
ENDBRANCH  57  58
ENDBRANCH  55  57
ENDBRANCH  52  55
ENDBRANCH  49  52
ENDBRANCH  47  49
BRANCH  47  72
ATOM     72  C24 non d ame     -33.012  12.798  27.722  0.00  0.00    -0.039 C 
ATOM     73  H35 non d ame     -32.985  13.880  27.587  0.00  0.00     0.036 H 
ATOM     74  H36 non d ame     -33.876  12.329  28.193  0.00  0.00     0.036 H 
BRANCH  72  75
ATOM     75  C25 non d ame     -31.725  12.397  28.588  0.00  0.00    -0.001 C 
ATOM     76  C26 non d ame     -32.191  11.579  29.936  0.00  0.00    -0.035 C 
ATOM     77  C27 non d ame     -31.616  12.156  31.018  0.00  0.00     0.085 C 
ATOM     78  H38 non d ame     -33.257  11.719  30.109  0.00  0.00     0.036 H 
ATOM     79  H39 non d ame     -31.768  10.574  29.929  0.00  0.00     0.036 H 
ATOM     80  N5  non d ame     -31.066  13.488  30.567  0.00  0.00    -0.049 N 
ATOM     81  H40 non d ame     -32.429  12.328  31.723  0.00  0.00     0.075 H 
ATOM     82  H41 non d ame     -30.787  11.504  31.290  0.00  0.00     0.075 H 
ATOM     83  C28 non d ame     -31.064  13.444  28.953  0.00  0.00     0.193 C 
ATOM     84  H42 non d ame     -31.728  14.188  30.868  0.00  0.00     0.280 HD
ATOM     85  H43 non d ame     -30.109  13.525  30.889  0.00  0.00     0.280 HD
ATOM     86  H44 non d ame     -30.133  13.291  28.405  0.00  0.00     0.129 H 
ATOM     87  H37 non d ame     -30.942  11.946  27.979  0.00  0.00     0.046 H 
BRANCH  83  88
ATOM     88  O6  non d ame     -31.624  14.648  28.426  0.00  0.00    -0.369 OA
ATOM     89  H45 non d ame     -32.008  14.471  27.563  0.00  0.00     0.212 HD
ENDBRANCH  83  88
ENDBRANCH  72  75
ENDBRANCH  47  72
ENDBRANCH  45  47
ENDBRANCH   1  43
BRANCH   1  90
ATOM     90  C16 non d ame     -30.318  15.529  23.522  0.00  0.00    -0.035 C 
ATOM     91  H21 non d ame     -30.410  16.613  23.574  0.00  0.00     0.037 H 
ATOM     92  H22 non d ame     -29.703  14.998  24.250  0.00  0.00     0.037 H 
BRANCH  90  93
ATOM     93  C17 non d ame     -29.718  15.205  22.117  0.00  0.00    -0.059 C 
ATOM     94  H23 non d ame     -28.862  15.863  21.964  0.00  0.00     0.038 H 
BRANCH  93  95
ATOM     95  C18 non d ame     -29.209  13.732  22.018  0.00  0.00    -0.073 C 
ATOM     96  H24 non d ame     -28.653  13.477  22.920  0.00  0.00     0.028 H 
ATOM     97  H25 non d ame     -30.061  13.060  21.916  0.00  0.00     0.028 H 
ATOM     98  H26 non d ame     -28.559  13.629  21.149  0.00  0.00     0.028 H 
ENDBRANCH  93  95
BRANCH  93  99
ATOM     99  C19 non d ame     -30.728  15.508  21.007  0.00  0.00    -0.073 C 
ATOM    100  H27 non d ame     -30.314  16.259  20.334  0.00  0.00     0.028 H 
ATOM    101  H28 non d ame     -30.939  14.596  20.448  0.00  0.00     0.028 H 
ATOM    102  H29 non d ame     -31.651  15.885  21.449  0.00  0.00     0.028 H 
ENDBRANCH  93  99
ENDBRANCH  90  93
ENDBRANCH   1  90
TORSDOF 26
ENDMDL
MODEL 20
REMARK VINA RESULT:      -6.3      2.655      7.673
REMARK  26 active torsions:
REMARK  status: ('A' for Active; 'I' for Inactive)
REMARK    1  A    between atoms: C2_2  and  C3_3 
REMARK    2  A    between atoms: C4_6  and  C5_7 
REMARK       I    between atoms: C5_7  and  N2_9 
REMARK    3  A    between atoms: N2_9  and  C6_10 
REMARK    4  A    between atoms: C6_10  and  C7_11 
REMARK    5  A    between atoms: C6_10  and  C8_13 
REMARK       I    between atoms: C7_11  and  N3_14 
REMARK    6  A    between atoms: N3_14  and  C9_15 
REMARK    7  A    between atoms: C9_15  and  C10_16 
REMARK    8  A    between atoms: C9_15  and  C11_18 
REMARK       I    between atoms: C10_16  and  N4_21 
REMARK    9  A    between atoms: C11_18  and  C12_19 
REMARK   10  A    between atoms: C11_18  and  C13_20 
REMARK   11  A    between atoms: N4_21  and  C14_22 
REMARK   12  A    between atoms: C14_22  and  C15_23 
REMARK   13  A    between atoms: C14_22  and  C16_25 
REMARK       I    between atoms: C15_23  and  N6_40 
REMARK   14  A    between atoms: C16_25  and  C17_26 
REMARK   15  A    between atoms: C17_26  and  C18_27 
REMARK   16  A    between atoms: C17_26  and  C19_28 
REMARK   17  A    between atoms: C20_29  and  C21_30 
REMARK   18  A    between atoms: C20_29  and  C24_33 
REMARK   19  A    between atoms: C20_29  and  N6_40 
REMARK   20  A    between atoms: C21_30  and  C22_31 
REMARK   21  A    between atoms: C22_31  and  C23_32 
REMARK   22  A    between atoms: C23_32  and  O8_43 
REMARK   23  A    between atoms: C24_33  and  C25_34 
REMARK   24  A    between atoms: C28_38  and  O6_39 
REMARK   25  A    between atoms: C29_42  and  O8_43 
REMARK   26  A    between atoms: C29_42  and  C35_49 
ROOT
ATOM      1  C14 non d ame     -36.170   9.959  31.059  0.00  0.00     0.089 C 
ATOM      2  H20 non d ame     -36.613  10.784  31.616  0.00  0.00     0.087 H 
ENDROOT
BRANCH   1   3
ATOM      3  N4  non d ame     -36.816   9.911  29.756  0.00  0.00    -0.346 N 
ATOM      4  C10 non d ame     -38.098  10.666  29.514  0.00  0.00     0.241 C 
ATOM      5  O4  non d ame     -38.592  11.305  30.383  0.00  0.00    -0.271 OA
ATOM      6  H19 non d ame     -36.381   9.359  29.030  0.00  0.00     0.163 HD
BRANCH   4   7
ATOM      7  C9  non d ame     -38.751  10.610  28.157  0.00  0.00     0.092 C 
ATOM      8  H11 non d ame     -39.721  11.104  28.206  0.00  0.00     0.088 H 
BRANCH   7   9
ATOM      9  N3  non d ame     -37.935  11.350  27.190  0.00  0.00    -0.346 N 
ATOM     10  C7  non d ame     -38.313  12.686  26.803  0.00  0.00     0.240 C 
ATOM     11  O3  non d ame     -39.270  13.182  27.260  0.00  0.00    -0.271 OA
ATOM     12  H10 non d ame     -37.108  10.934  26.787  0.00  0.00     0.163 HD
BRANCH  10  13
ATOM     13  C6  non d ame     -37.443  13.468  25.770  0.00  0.00     0.086 C 
ATOM     14  H6  non d ame     -38.011  13.791  24.899  0.00  0.00     0.086 H 
BRANCH  13  15
ATOM     15  N2  non d ame     -36.929  14.673  26.402  0.00  0.00    -0.343 N 
ATOM     16  C5  non d ame     -37.589  15.956  26.151  0.00  0.00     0.273 C 
ATOM     17  O2  non d ame     -38.530  16.010  25.437  0.00  0.00    -0.266 OA
ATOM     18  H5  non d ame     -36.123  14.618  27.008  0.00  0.00     0.163 HD
BRANCH  16  19
ATOM     19  C4  non d ame     -37.057  17.237  26.813  0.00  0.00     0.154 A 
ATOM     20  C1  non d ame     -37.053  18.557  26.262  0.00  0.00    -0.017 A 
ATOM     21  C2  non d ame     -36.462  19.365  27.258  0.00  0.00     0.077 A 
ATOM     22  H1  non d ame     -37.423  18.879  25.288  0.00  0.00     0.091 H 
ATOM     23  O1  non d ame     -36.166  18.590  28.260  0.00  0.00    -0.218 OA
ATOM     24  N1  non d ame     -36.504  17.343  28.024  0.00  0.00    -0.123 NA
BRANCH  21  25
ATOM     25  C3  non d ame     -36.218  20.865  27.175  0.00  0.00    -0.029 C 
ATOM     26  H2  non d ame     -36.518  21.335  28.112  0.00  0.00     0.036 H 
ATOM     27  H3  non d ame     -35.158  21.053  27.001  0.00  0.00     0.036 H 
ATOM     28  H4  non d ame     -36.801  21.285  26.356  0.00  0.00     0.036 H 
ENDBRANCH  21  25
ENDBRANCH  16  19
ENDBRANCH  13  15
BRANCH  13  29
ATOM     29  C8  non d ame     -36.300  12.598  25.311  0.00  0.00    -0.049 C 
ATOM     30  H7  non d ame     -35.513  13.223  24.892  0.00  0.00     0.030 H 
ATOM     31  H8  non d ame     -35.906  12.038  26.159  0.00  0.00     0.030 H 
ATOM     32  H9  non d ame     -36.656  11.903  24.550  0.00  0.00     0.030 H 
ENDBRANCH  13  29
ENDBRANCH  10  13
ENDBRANCH   7   9
BRANCH   7  33
ATOM     33  C11 non d ame     -38.871   9.125  27.702  0.00  0.00    -0.033 C 
ATOM     34  H12 non d ame     -37.909   8.647  27.883  0.00  0.00     0.042 H 
BRANCH  33  35
ATOM     35  C12 non d ame     -39.941   8.359  28.541  0.00  0.00    -0.071 C 
ATOM     36  H13 non d ame     -39.609   7.334  28.704  0.00  0.00     0.028 H 
ATOM     37  H14 non d ame     -40.075   8.855  29.502  0.00  0.00     0.028 H 
ATOM     38  H15 non d ame     -40.889   8.351  28.001  0.00  0.00     0.028 H 
ENDBRANCH  33  35
BRANCH  33  39
ATOM     39  C13 non d ame     -39.177   9.032  26.173  0.00  0.00    -0.071 C 
ATOM     40  H16 non d ame     -38.301   8.648  25.650  0.00  0.00     0.028 H 
ATOM     41  H17 non d ame     -40.022   8.362  26.011  0.00  0.00     0.028 H 
ATOM     42  H18 non d ame     -39.422  10.023  25.790  0.00  0.00     0.028 H 
ENDBRANCH  33  39
ENDBRANCH   7  33
ENDBRANCH   4   7
ENDBRANCH   1   3
BRANCH   1  43
ATOM     43  C15 non d ame     -34.640  10.150  30.846  0.00  0.00     0.240 C 
ATOM     44  O5  non d ame     -33.870   9.576  31.545  0.00  0.00    -0.271 OA
ATOM     45  N6  non d ame     -34.136  11.041  29.763  0.00  0.00    -0.355 N 
ATOM     46  H46 non d ame     -34.781  11.531  29.158  0.00  0.00     0.162 HD
BRANCH  45  47
ATOM     47  C20 non d ame     -32.679  11.212  29.573  0.00  0.00     0.013 C 
ATOM     48  H30 non d ame     -32.180  10.354  30.024  0.00  0.00     0.072 H 
BRANCH  47  49
ATOM     49  C21 non d ame     -32.232  12.487  30.250  0.00  0.00    -0.038 C 
ATOM     50  H31 non d ame     -33.057  13.190  30.128  0.00  0.00     0.036 H 
ATOM     51  H32 non d ame     -31.911  12.192  31.250  0.00  0.00     0.036 H 
BRANCH  49  52
ATOM     52  C22 non d ame     -31.004  13.130  29.569  0.00  0.00     0.018 C 
ATOM     53  H33 non d ame     -30.166  12.950  30.241  0.00  0.00     0.048 H 
ATOM     54  H34 non d ame     -30.987  12.729  28.555  0.00  0.00     0.048 H 
BRANCH  52  55
ATOM     55  C23 non d ame     -31.108  14.672  29.417  0.00  0.00     0.259 C 
ATOM     56  O7  non d ame     -30.689  15.391  30.266  0.00  0.00    -0.265 OA
BRANCH  55  57
ATOM     57  O8  non d ame     -31.723  15.219  28.257  0.00  0.00    -0.317 OA
BRANCH  57  58
ATOM     58  C29 non d ame     -32.945  15.916  28.518  0.00  0.00     0.052 C 
ATOM     59  H47 non d ame     -33.739  15.267  28.148  0.00  0.00     0.082 H 
ATOM     60  H48 non d ame     -32.910  16.189  29.572  0.00  0.00     0.082 H 
BRANCH  58  61
ATOM     61  C35 non d ame     -32.943  17.219  27.674  0.00  0.00    -0.034 A 
ATOM     62  C30 non d ame     -33.309  17.180  26.332  0.00  0.00    -0.075 A 
ATOM     63  C31 non d ame     -33.306  18.350  25.574  0.00  0.00    -0.082 A 
ATOM     64  H49 non d ame     -33.597  16.234  25.874  0.00  0.00     0.084 H 
ATOM     65  C32 non d ame     -32.934  19.562  26.162  0.00  0.00    -0.083 A 
ATOM     66  H50 non d ame     -33.596  18.317  24.523  0.00  0.00     0.083 H 
ATOM     67  C33 non d ame     -32.565  19.594  27.500  0.00  0.00    -0.082 A 
ATOM     68  H51 non d ame     -32.929  20.482  25.576  0.00  0.00     0.083 H 
ATOM     69  C34 non d ame     -32.568  18.428  28.262  0.00  0.00    -0.075 A 
ATOM     70  H52 non d ame     -32.272  20.541  27.956  0.00  0.00     0.083 H 
ATOM     71  H53 non d ame     -32.279  18.462  29.313  0.00  0.00     0.084 H 
ENDBRANCH  58  61
ENDBRANCH  57  58
ENDBRANCH  55  57
ENDBRANCH  52  55
ENDBRANCH  49  52
ENDBRANCH  47  49
BRANCH  47  72
ATOM     72  C24 non d ame     -32.358  11.286  28.081  0.00  0.00    -0.039 C 
ATOM     73  H35 non d ame     -32.746  12.250  27.750  0.00  0.00     0.036 H 
ATOM     74  H36 non d ame     -31.292  11.072  28.003  0.00  0.00     0.036 H 
BRANCH  72  75
ATOM     75  C25 non d ame     -33.131  10.155  27.251  0.00  0.00    -0.001 C 
ATOM     76  C26 non d ame     -33.001   8.709  28.022  0.00  0.00    -0.035 C 
ATOM     77  C27 non d ame     -32.562   7.780  27.138  0.00  0.00     0.085 C 
ATOM     78  H38 non d ame     -32.203   8.750  28.763  0.00  0.00     0.036 H 
ATOM     79  H39 non d ame     -33.989   8.344  28.304  0.00  0.00     0.036 H 
ATOM     80  N5  non d ame     -32.070   8.528  25.921  0.00  0.00    -0.049 N 
ATOM     81  H40 non d ame     -31.717   7.293  27.623  0.00  0.00     0.075 H 
ATOM     82  H41 non d ame     -33.443   7.200  26.865  0.00  0.00     0.075 H 
ATOM     83  C28 non d ame     -32.641  10.031  26.063  0.00  0.00     0.193 C 
ATOM     84  H42 non d ame     -31.063   8.559  25.993  0.00  0.00     0.280 HD
ATOM     85  H43 non d ame     -32.507   8.091  25.122  0.00  0.00     0.280 HD
ATOM     86  H44 non d ame     -33.491  10.359  25.464  0.00  0.00     0.129 H 
ATOM     87  H37 non d ame     -34.131  10.471  26.955  0.00  0.00     0.046 H 
BRANCH  83  88
ATOM     88  O6  non d ame     -31.604  10.979  25.806  0.00  0.00    -0.369 OA
ATOM     89  H45 non d ame     -31.111  10.712  25.025  0.00  0.00     0.212 HD
ENDBRANCH  83  88
ENDBRANCH  72  75
ENDBRANCH  47  72
ENDBRANCH  45  47
ENDBRANCH   1  43
BRANCH   1  90
ATOM     90  C16 non d ame     -36.424   8.649  31.789  0.00  0.00    -0.035 C 
ATOM     91  H21 non d ame     -35.554   8.502  32.427  0.00  0.00     0.037 H 
ATOM     92  H22 non d ame     -37.415   8.753  32.231  0.00  0.00     0.037 H 
BRANCH  90  93
ATOM     93  C17 non d ame     -36.490   7.408  30.842  0.00  0.00    -0.059 C 
ATOM     94  H23 non d ame     -36.467   7.774  29.816  0.00  0.00     0.038 H 
BRANCH  93  95
ATOM     95  C18 non d ame     -35.268   6.455  31.034  0.00  0.00    -0.073 C 
ATOM     96  H24 non d ame     -34.533   6.643  30.252  0.00  0.00     0.028 H 
ATOM     97  H25 non d ame     -34.814   6.637  32.008  0.00  0.00     0.028 H 
ATOM     98  H26 non d ame     -35.602   5.419  30.978  0.00  0.00     0.028 H 
ENDBRANCH  93  95
BRANCH  93  99
ATOM     99  C19 non d ame     -37.807   6.649  31.027  0.00  0.00    -0.073 C 
ATOM    100  H27 non d ame     -38.216   6.868  32.014  0.00  0.00     0.028 H 
ATOM    101  H28 non d ame     -38.518   6.962  30.262  0.00  0.00     0.028 H 
ATOM    102  H29 non d ame     -37.625   5.579  30.938  0.00  0.00     0.028 H 
ENDBRANCH  93  99
ENDBRANCH  90  93
ENDBRANCH   1  90
TORSDOF 26
ENDMDL
