MODEL 1
REMARK VINA RESULT:      -6.6      0.000      0.000
REMARK  26 active torsions:
REMARK  status: ('A' for Active; 'I' for Inactive)
REMARK    1  A    between atoms: C2_2  and  C3_3 
REMARK    2  A    between atoms: C4_6  and  C5_7 
REMARK       I    between atoms: C5_7  and  N2_9 
REMARK    3  A    between atoms: N2_9  and  C6_10 
REMARK    4  A    between atoms: C6_10  and  C7_11 
REMARK    5  A    between atoms: C6_10  and  C8_13 
REMARK       I    between atoms: C7_11  and  N3_14 
REMARK    6  A    between atoms: N3_14  and  C9_15 
REMARK    7  A    between atoms: C9_15  and  C10_16 
REMARK    8  A    between atoms: C9_15  and  C11_18 
REMARK       I    between atoms: C10_16  and  N4_21 
REMARK    9  A    between atoms: C11_18  and  C12_19 
REMARK   10  A    between atoms: C11_18  and  C13_20 
REMARK   11  A    between atoms: N4_21  and  C14_22 
REMARK   12  A    between atoms: C14_22  and  C15_23 
REMARK   13  A    between atoms: C14_22  and  C16_25 
REMARK       I    between atoms: C15_23  and  N6_40 
REMARK   14  A    between atoms: C16_25  and  C17_26 
REMARK   15  A    between atoms: C17_26  and  C18_27 
REMARK   16  A    between atoms: C17_26  and  C19_28 
REMARK   17  A    between atoms: C20_29  and  C21_30 
REMARK   18  A    between atoms: C20_29  and  C24_33 
REMARK   19  A    between atoms: C20_29  and  N6_40 
REMARK   20  A    between atoms: C21_30  and  C22_31 
REMARK   21  A    between atoms: C22_31  and  C23_32 
REMARK   22  A    between atoms: C23_32  and  O8_43 
REMARK   23  A    between atoms: C24_33  and  C25_34 
REMARK   24  A    between atoms: C28_38  and  O6_39 
REMARK   25  A    between atoms: C29_42  and  O8_43 
REMARK   26  A    between atoms: C29_42  and  C35_49 
ROOT
ATOM      1  C14 non d ame     -35.018   7.935  30.873  0.00  0.00     0.089 C 
ATOM      2  H20 non d ame     -34.773   8.125  31.918  0.00  0.00     0.087 H 
ENDROOT
BRANCH   1   3
ATOM      3  N4  non d ame     -34.193   8.818  30.062  0.00  0.00    -0.346 N 
ATOM      4  C10 non d ame     -33.614  10.077  30.655  0.00  0.00     0.241 C 
ATOM      5  O4  non d ame     -33.827  10.361  31.788  0.00  0.00    -0.271 OA
ATOM      6  H19 non d ame     -34.026   8.560  29.100  0.00  0.00     0.163 HD
BRANCH   4   7
ATOM      7  C9  non d ame     -32.759  10.978  29.802  0.00  0.00     0.092 C 
ATOM      8  H11 non d ame     -31.991  10.382  29.310  0.00  0.00     0.088 H 
BRANCH   7   9
ATOM      9  N3  non d ame     -33.582  11.581  28.750  0.00  0.00    -0.346 N 
ATOM     10  C7  non d ame     -33.236  11.386  27.364  0.00  0.00     0.240 C 
ATOM     11  O3  non d ame     -32.298  10.746  27.077  0.00  0.00    -0.271 OA
ATOM     12  H10 non d ame     -34.393  12.137  28.982  0.00  0.00     0.163 HD
BRANCH  10  13
ATOM     13  C6  non d ame     -34.113  12.033  26.248  0.00  0.00     0.086 C 
ATOM     14  H6  non d ame     -34.803  12.782  26.635  0.00  0.00     0.086 H 
BRANCH  13  15
ATOM     15  N2  non d ame     -33.246  12.715  25.302  0.00  0.00    -0.343 N 
ATOM     16  C5  non d ame     -32.758  14.060  25.612  0.00  0.00     0.273 C 
ATOM     17  O2  non d ame     -33.071  14.587  26.623  0.00  0.00    -0.266 OA
ATOM     18  H5  non d ame     -32.986  12.259  24.439  0.00  0.00     0.163 HD
BRANCH  16  19
ATOM     19  C4  non d ame     -31.840  14.793  24.620  0.00  0.00     0.154 A 
ATOM     20  C1  non d ame     -30.675  14.273  23.974  0.00  0.00    -0.017 A 
ATOM     21  C2  non d ame     -30.199  15.334  23.173  0.00  0.00     0.077 A 
ATOM     22  H1  non d ame     -30.242  13.277  24.071  0.00  0.00     0.091 H 
ATOM     23  O1  non d ame     -31.004  16.341  23.345  0.00  0.00    -0.218 OA
ATOM     24  N1  non d ame     -31.970  16.050  24.186  0.00  0.00    -0.123 NA
BRANCH  21  25
ATOM     25  C3  non d ame     -28.971  15.304  22.273  0.00  0.00    -0.029 C 
ATOM     26  H2  non d ame     -29.241  14.888  21.303  0.00  0.00     0.036 H 
ATOM     27  H3  non d ame     -28.594  16.318  22.139  0.00  0.00     0.036 H 
ATOM     28  H4  non d ame     -28.199  14.687  22.731  0.00  0.00     0.036 H 
ENDBRANCH  21  25
ENDBRANCH  16  19
ENDBRANCH  13  15
BRANCH  13  29
ATOM     29  C8  non d ame     -34.905  10.961  25.543  0.00  0.00    -0.049 C 
ATOM     30  H7  non d ame     -34.916  11.161  24.472  0.00  0.00     0.030 H 
ATOM     31  H8  non d ame     -34.446   9.990  25.726  0.00  0.00     0.030 H 
ATOM     32  H9  non d ame     -35.928  10.957  25.922  0.00  0.00     0.030 H 
ENDBRANCH  13  29
ENDBRANCH  10  13
ENDBRANCH   7   9
BRANCH   7  33
ATOM     33  C11 non d ame     -32.149  12.104  30.689  0.00  0.00    -0.033 C 
ATOM     34  H12 non d ame     -32.673  12.091  31.644  0.00  0.00     0.042 H 
BRANCH  33  35
ATOM     35  C12 non d ame     -30.638  11.841  30.979  0.00  0.00    -0.071 C 
ATOM     36  H13 non d ame     -30.140  11.528  30.061  0.00  0.00     0.028 H 
ATOM     37  H14 non d ame     -30.175  12.754  31.350  0.00  0.00     0.028 H 
ATOM     38  H15 non d ame     -30.543  11.054  31.728  0.00  0.00     0.028 H 
ENDBRANCH  33  35
BRANCH  33  39
ATOM     39  C13 non d ame     -32.365  13.507  30.038  0.00  0.00    -0.071 C 
ATOM     40  H16 non d ame     -33.425  13.650  29.825  0.00  0.00     0.028 H 
ATOM     41  H17 non d ame     -32.023  14.283  30.723  0.00  0.00     0.028 H 
ATOM     42  H18 non d ame     -31.797  13.569  29.109  0.00  0.00     0.028 H 
ENDBRANCH  33  39
ENDBRANCH   7  33
ENDBRANCH   4   7
ENDBRANCH   1   3
BRANCH   1  43
ATOM     43  C15 non d ame     -34.723   6.464  30.460  0.00  0.00     0.240 C 
ATOM     44  O5  non d ame     -34.867   5.588  31.250  0.00  0.00    -0.271 OA
ATOM     45  N6  non d ame     -34.269   6.146  29.076  0.00  0.00    -0.355 N 
ATOM     46  H46 non d ame     -34.148   6.882  28.394  0.00  0.00     0.162 HD
BRANCH  45  47
ATOM     47  C20 non d ame     -33.994   4.743  28.699  0.00  0.00     0.013 C 
ATOM     48  H30 non d ame     -33.896   4.163  29.617  0.00  0.00     0.072 H 
BRANCH  47  49
ATOM     49  C21 non d ame     -32.707   4.681  27.909  0.00  0.00    -0.038 C 
ATOM     50  H31 non d ame     -31.906   4.797  28.640  0.00  0.00     0.036 H 
ATOM     51  H32 non d ame     -32.772   3.771  27.311  0.00  0.00     0.036 H 
BRANCH  49  52
ATOM     52  C22 non d ame     -32.560   5.849  26.910  0.00  0.00     0.018 C 
ATOM     53  H33 non d ame     -33.444   6.470  27.050  0.00  0.00     0.048 H 
ATOM     54  H34 non d ame     -31.568   6.264  27.086  0.00  0.00     0.048 H 
BRANCH  52  55
ATOM     55  C23 non d ame     -32.580   5.406  25.420  0.00  0.00     0.259 C 
ATOM     56  O7  non d ame     -33.091   4.380  25.104  0.00  0.00    -0.265 OA
BRANCH  55  57
ATOM     57  O8  non d ame     -31.967   6.233  24.438  0.00  0.00    -0.317 OA
BRANCH  57  58
ATOM     58  C29 non d ame     -32.644   7.474  24.217  0.00  0.00     0.052 C 
ATOM     59  H47 non d ame     -33.435   7.255  23.500  0.00  0.00     0.082 H 
ATOM     60  H48 non d ame     -32.895   7.854  25.207  0.00  0.00     0.082 H 
BRANCH  58  61
ATOM     61  C35 non d ame     -31.639   8.456  23.557  0.00  0.00    -0.034 A 
ATOM     62  C30 non d ame     -30.673   7.975  22.678  0.00  0.00    -0.075 A 
ATOM     63  C31 non d ame     -29.770   8.857  22.085  0.00  0.00    -0.082 A 
ATOM     64  H49 non d ame     -30.622   6.910  22.455  0.00  0.00     0.084 H 
ATOM     65  C32 non d ame     -29.835  10.223  22.374  0.00  0.00    -0.083 A 
ATOM     66  H50 non d ame     -29.015   8.478  21.395  0.00  0.00     0.083 H 
ATOM     67  C33 non d ame     -30.799  10.696  23.254  0.00  0.00    -0.082 A 
ATOM     68  H51 non d ame     -29.133  10.919  21.914  0.00  0.00     0.083 H 
ATOM     69  C34 non d ame     -31.704   9.819  23.848  0.00  0.00    -0.075 A 
ATOM     70  H52 non d ame     -30.845  11.762  23.480  0.00  0.00     0.083 H 
ATOM     71  H53 non d ame     -32.459  10.198  24.537  0.00  0.00     0.084 H 
ENDBRANCH  58  61
ENDBRANCH  57  58
ENDBRANCH  55  57
ENDBRANCH  52  55
ENDBRANCH  49  52
ENDBRANCH  47  49
BRANCH  47  72
ATOM     72  C24 non d ame     -35.142   4.202  27.850  0.00  0.00    -0.039 C 
ATOM     73  H35 non d ame     -34.706   3.997  26.871  0.00  0.00     0.036 H 
ATOM     74  H36 non d ame     -35.576   3.389  28.433  0.00  0.00     0.036 H 
BRANCH  72  75
ATOM     75  C25 non d ame     -36.290   5.298  27.637  0.00  0.00    -0.001 C 
ATOM     76  C26 non d ame     -37.594   4.930  28.567  0.00  0.00    -0.035 C 
ATOM     77  C27 non d ame     -38.703   4.937  27.788  0.00  0.00     0.085 C 
ATOM     78  H38 non d ame     -37.531   3.898  28.910  0.00  0.00     0.036 H 
ATOM     79  H39 non d ame     -37.782   5.731  29.283  0.00  0.00     0.036 H 
ATOM     80  N5  non d ame     -38.233   4.953  26.353  0.00  0.00    -0.049 N 
ATOM     81  H40 non d ame     -39.205   3.990  27.988  0.00  0.00     0.075 H 
ATOM     82  H41 non d ame     -39.207   5.877  28.007  0.00  0.00     0.075 H 
ATOM     83  C28 non d ame     -36.668   5.345  26.403  0.00  0.00     0.193 C 
ATOM     84  H42 non d ame     -38.316   4.005  26.015  0.00  0.00     0.280 HD
ATOM     85  H43 non d ame     -38.738   5.699  25.897  0.00  0.00     0.280 HD
ATOM     86  H44 non d ame     -36.341   6.351  26.135  0.00  0.00     0.129 H 
ATOM     87  H37 non d ame     -35.906   6.316  27.702  0.00  0.00     0.046 H 
BRANCH  83  88
ATOM     88  O6  non d ame     -35.911   4.462  25.573  0.00  0.00    -0.369 OA
ATOM     89  H45 non d ame     -35.167   4.938  25.195  0.00  0.00     0.212 HD
ENDBRANCH  83  88
ENDBRANCH  72  75
ENDBRANCH  47  72
ENDBRANCH  45  47
ENDBRANCH   1  43
BRANCH   1  90
ATOM     90  C16 non d ame     -36.483   8.252  30.621  0.00  0.00    -0.035 C 
ATOM     91  H21 non d ame     -36.922   7.321  30.266  0.00  0.00     0.037 H 
ATOM     92  H22 non d ame     -36.842   8.708  31.543  0.00  0.00     0.037 H 
BRANCH  90  93
ATOM     93  C17 non d ame     -36.710   9.305  29.489  0.00  0.00    -0.059 C 
ATOM     94  H23 non d ame     -35.733   9.689  29.195  0.00  0.00     0.038 H 
BRANCH  93  95
ATOM     95  C18 non d ame     -37.376   8.678  28.224  0.00  0.00    -0.073 C 
ATOM     96  H24 non d ame     -36.602   8.320  27.544  0.00  0.00     0.028 H 
ATOM     97  H25 non d ame     -38.009   7.842  28.523  0.00  0.00     0.028 H 
ATOM     98  H26 non d ame     -37.982   9.431  27.721  0.00  0.00     0.028 H 
ENDBRANCH  93  95
BRANCH  93  99
ATOM     99  C19 non d ame     -37.529  10.493  30.004  0.00  0.00    -0.073 C 
ATOM    100  H27 non d ame     -36.906  11.108  30.655  0.00  0.00     0.028 H 
ATOM    101  H28 non d ame     -37.872  11.091  29.160  0.00  0.00     0.028 H 
ATOM    102  H29 non d ame     -38.389  10.126  30.563  0.00  0.00     0.028 H 
ENDBRANCH  93  99
ENDBRANCH  90  93
ENDBRANCH   1  90
TORSDOF 26
ENDMDL
MODEL 2
REMARK VINA RESULT:      -6.5      1.523      2.291
REMARK  26 active torsions:
REMARK  status: ('A' for Active; 'I' for Inactive)
REMARK    1  A    between atoms: C2_2  and  C3_3 
REMARK    2  A    between atoms: C4_6  and  C5_7 
REMARK       I    between atoms: C5_7  and  N2_9 
REMARK    3  A    between atoms: N2_9  and  C6_10 
REMARK    4  A    between atoms: C6_10  and  C7_11 
REMARK    5  A    between atoms: C6_10  and  C8_13 
REMARK       I    between atoms: C7_11  and  N3_14 
REMARK    6  A    between atoms: N3_14  and  C9_15 
REMARK    7  A    between atoms: C9_15  and  C10_16 
REMARK    8  A    between atoms: C9_15  and  C11_18 
REMARK       I    between atoms: C10_16  and  N4_21 
REMARK    9  A    between atoms: C11_18  and  C12_19 
REMARK   10  A    between atoms: C11_18  and  C13_20 
REMARK   11  A    between atoms: N4_21  and  C14_22 
REMARK   12  A    between atoms: C14_22  and  C15_23 
REMARK   13  A    between atoms: C14_22  and  C16_25 
REMARK       I    between atoms: C15_23  and  N6_40 
REMARK   14  A    between atoms: C16_25  and  C17_26 
REMARK   15  A    between atoms: C17_26  and  C18_27 
REMARK   16  A    between atoms: C17_26  and  C19_28 
REMARK   17  A    between atoms: C20_29  and  C21_30 
REMARK   18  A    between atoms: C20_29  and  C24_33 
REMARK   19  A    between atoms: C20_29  and  N6_40 
REMARK   20  A    between atoms: C21_30  and  C22_31 
REMARK   21  A    between atoms: C22_31  and  C23_32 
REMARK   22  A    between atoms: C23_32  and  O8_43 
REMARK   23  A    between atoms: C24_33  and  C25_34 
REMARK   24  A    between atoms: C28_38  and  O6_39 
REMARK   25  A    between atoms: C29_42  and  O8_43 
REMARK   26  A    between atoms: C29_42  and  C35_49 
ROOT
ATOM      1  C14 non d ame     -34.925   8.930  31.123  0.00  0.00     0.089 C 
ATOM      2  H20 non d ame     -34.067   9.271  31.703  0.00  0.00     0.087 H 
ENDROOT
BRANCH   1   3
ATOM      3  N4  non d ame     -34.922   9.660  29.864  0.00  0.00    -0.346 N 
ATOM      4  C10 non d ame     -33.697  10.422  29.429  0.00  0.00     0.241 C 
ATOM      5  O4  non d ame     -32.724  10.436  30.109  0.00  0.00    -0.271 OA
ATOM      6  H19 non d ame     -35.760   9.638  29.301  0.00  0.00     0.163 HD
BRANCH   4   7
ATOM      7  C9  non d ame     -33.709  11.169  28.120  0.00  0.00     0.092 C 
ATOM      8  H11 non d ame     -34.666  11.677  28.006  0.00  0.00     0.088 H 
BRANCH   7   9
ATOM      9  N3  non d ame     -32.669  12.202  28.137  0.00  0.00    -0.346 N 
ATOM     10  C7  non d ame     -33.031  13.591  27.994  0.00  0.00     0.240 C 
ATOM     11  O3  non d ame     -34.154  13.895  27.865  0.00  0.00    -0.271 OA
ATOM     12  H10 non d ame     -31.696  11.955  28.246  0.00  0.00     0.163 HD
BRANCH  10  13
ATOM     13  C6  non d ame     -31.920  14.686  28.010  0.00  0.00     0.086 C 
ATOM     14  H6  non d ame     -30.938  14.287  28.260  0.00  0.00     0.086 H 
BRANCH  13  15
ATOM     15  N2  non d ame     -31.808  15.263  26.680  0.00  0.00    -0.343 N 
ATOM     16  C5  non d ame     -31.315  14.438  25.575  0.00  0.00     0.273 C 
ATOM     17  O2  non d ame     -31.008  13.313  25.766  0.00  0.00    -0.266 OA
ATOM     18  H5  non d ame     -32.070  16.226  26.527  0.00  0.00     0.163 HD
BRANCH  16  19
ATOM     19  C4  non d ame     -31.192  15.036  24.164  0.00  0.00     0.154 A 
ATOM     20  C1  non d ame     -30.783  14.359  22.972  0.00  0.00    -0.017 A 
ATOM     21  C2  non d ame     -30.838  15.343  21.960  0.00  0.00     0.077 A 
ATOM     22  H1  non d ame     -30.492  13.315  22.858  0.00  0.00     0.091 H 
ATOM     23  O1  non d ame     -31.235  16.450  22.515  0.00  0.00    -0.218 OA
ATOM     24  N1  non d ame     -31.448  16.295  23.802  0.00  0.00    -0.123 NA
BRANCH  21  25
ATOM     25  C3  non d ame     -30.498  15.143  20.489  0.00  0.00    -0.029 C 
ATOM     26  H2  non d ame     -29.952  14.209  20.366  0.00  0.00     0.036 H 
ATOM     27  H3  non d ame     -31.418  15.104  19.905  0.00  0.00     0.036 H 
ATOM     28  H4  non d ame     -29.882  15.972  20.141  0.00  0.00     0.036 H 
ENDBRANCH  21  25
ENDBRANCH  16  19
ENDBRANCH  13  15
BRANCH  13  29
ATOM     29  C8  non d ame     -32.279  15.756  29.009  0.00  0.00    -0.049 C 
ATOM     30  H7  non d ame     -33.346  15.710  29.224  0.00  0.00     0.030 H 
ATOM     31  H8  non d ame     -31.717  15.598  29.929  0.00  0.00     0.030 H 
ATOM     32  H9  non d ame     -32.034  16.736  28.596  0.00  0.00     0.030 H 
ENDBRANCH  13  29
ENDBRANCH  10  13
ENDBRANCH   7   9
BRANCH   7  33
ATOM     33  C11 non d ame     -33.430  10.175  26.954  0.00  0.00    -0.033 C 
ATOM     34  H12 non d ame     -33.736   9.183  27.287  0.00  0.00     0.042 H 
BRANCH  33  35
ATOM     35  C12 non d ame     -34.278  10.528  25.693  0.00  0.00    -0.071 C 
ATOM     36  H13 non d ame     -35.246  10.031  25.754  0.00  0.00     0.028 H 
ATOM     37  H14 non d ame     -34.426  11.606  25.644  0.00  0.00     0.028 H 
ATOM     38  H15 non d ame     -33.754  10.192  24.798  0.00  0.00     0.028 H 
ENDBRANCH  33  35
BRANCH  33  39
ATOM     39  C13 non d ame     -31.906  10.123  26.617  0.00  0.00    -0.071 C 
ATOM     40  H16 non d ame     -31.485  11.127  26.678  0.00  0.00     0.028 H 
ATOM     41  H17 non d ame     -31.397   9.471  27.329  0.00  0.00     0.028 H 
ATOM     42  H18 non d ame     -31.770   9.733  25.608  0.00  0.00     0.028 H 
ENDBRANCH  33  39
ENDBRANCH   7  33
ENDBRANCH   4   7
ENDBRANCH   1   3
BRANCH   1  43
ATOM     43  C15 non d ame     -34.855   7.407  30.813  0.00  0.00     0.240 C 
ATOM     44  O5  non d ame     -34.960   6.618  31.695  0.00  0.00    -0.271 OA
ATOM     45  N6  non d ame     -34.666   6.931  29.413  0.00  0.00    -0.355 N 
ATOM     46  H46 non d ame     -34.580   7.592  28.653  0.00  0.00     0.162 HD
BRANCH  45  47
ATOM     47  C20 non d ame     -34.603   5.480  29.134  0.00  0.00     0.013 C 
ATOM     48  H30 non d ame     -34.492   4.961  30.086  0.00  0.00     0.072 H 
BRANCH  47  49
ATOM     49  C21 non d ame     -33.413   5.192  28.247  0.00  0.00    -0.038 C 
ATOM     50  H31 non d ame     -32.628   4.832  28.914  0.00  0.00     0.036 H 
ATOM     51  H32 non d ame     -33.788   4.550  27.450  0.00  0.00     0.036 H 
BRANCH  49  52
ATOM     52  C22 non d ame     -32.857   6.459  27.561  0.00  0.00     0.018 C 
ATOM     53  H33 non d ame     -33.541   7.263  27.827  0.00  0.00     0.048 H 
ATOM     54  H34 non d ame     -31.808   6.516  27.852  0.00  0.00     0.048 H 
BRANCH  52  55
ATOM     55  C23 non d ame     -32.866   6.386  26.009  0.00  0.00     0.259 C 
ATOM     56  O7  non d ame     -33.889   6.460  25.408  0.00  0.00    -0.265 OA
BRANCH  55  57
ATOM     57  O8  non d ame     -31.638   6.213  25.312  0.00  0.00    -0.317 OA
BRANCH  57  58
ATOM     58  C29 non d ame     -31.775   6.186  23.888  0.00  0.00     0.052 C 
ATOM     59  H47 non d ame     -31.227   5.304  23.556  0.00  0.00     0.082 H 
ATOM     60  H48 non d ame     -32.843   6.271  23.692  0.00  0.00     0.082 H 
BRANCH  58  61
ATOM     61  C35 non d ame     -31.071   7.446  23.315  0.00  0.00    -0.034 A 
ATOM     62  C30 non d ame     -29.775   7.352  22.815  0.00  0.00    -0.075 A 
ATOM     63  C31 non d ame     -29.143   8.484  22.302  0.00  0.00    -0.082 A 
ATOM     64  H49 non d ame     -29.256   6.394  22.827  0.00  0.00     0.084 H 
ATOM     65  C32 non d ame     -29.810   9.712  22.290  0.00  0.00    -0.083 A 
ATOM     66  H50 non d ame     -28.128   8.407  21.908  0.00  0.00     0.083 H 
ATOM     67  C33 non d ame     -31.100   9.800  22.794  0.00  0.00    -0.082 A 
ATOM     68  H51 non d ame     -29.322  10.601  21.889  0.00  0.00     0.083 H 
ATOM     69  C34 non d ame     -31.737   8.672  23.307  0.00  0.00    -0.075 A 
ATOM     70  H52 non d ame     -31.617  10.761  22.786  0.00  0.00     0.083 H 
ATOM     71  H53 non d ame     -32.751   8.749  23.699  0.00  0.00     0.084 H 
ENDBRANCH  58  61
ENDBRANCH  57  58
ENDBRANCH  55  57
ENDBRANCH  52  55
ENDBRANCH  49  52
ENDBRANCH  47  49
BRANCH  47  72
ATOM     72  C24 non d ame     -35.883   5.032  28.432  0.00  0.00    -0.039 C 
ATOM     73  H35 non d ame     -35.564   4.656  27.459  0.00  0.00     0.036 H 
ATOM     74  H36 non d ame     -36.383   4.367  29.136  0.00  0.00     0.036 H 
BRANCH  72  75
ATOM     75  C25 non d ame     -36.872   6.263  28.162  0.00  0.00    -0.001 C 
ATOM     76  C26 non d ame     -38.300   6.013  28.936  0.00  0.00    -0.035 C 
ATOM     77  C27 non d ame     -39.313   6.180  28.051  0.00  0.00     0.085 C 
ATOM     78  H38 non d ame     -38.390   4.968  29.230  0.00  0.00     0.036 H 
ATOM     79  H39 non d ame     -38.472   6.802  29.670  0.00  0.00     0.036 H 
ATOM     80  N5  non d ame     -38.694   6.198  26.673  0.00  0.00    -0.049 N 
ATOM     81  H40 non d ame     -39.936   5.292  28.150  0.00  0.00     0.075 H 
ATOM     82  H41 non d ame     -39.728   7.164  28.266  0.00  0.00     0.075 H 
ATOM     83  C28 non d ame     -37.109   6.403  26.900  0.00  0.00     0.193 C 
ATOM     84  H42 non d ame     -38.847   5.281  26.280  0.00  0.00     0.280 HD
ATOM     85  H43 non d ame     -39.061   7.016  26.207  0.00  0.00     0.280 HD
ATOM     86  H44 non d ame     -36.645   7.373  26.718  0.00  0.00     0.129 H 
ATOM     87  H37 non d ame     -36.385   7.225  28.317  0.00  0.00     0.046 H 
BRANCH  83  88
ATOM     88  O6  non d ame     -36.373   5.471  26.106  0.00  0.00    -0.369 OA
ATOM     89  H45 non d ame     -36.685   5.508  25.198  0.00  0.00     0.212 HD
ENDBRANCH  83  88
ENDBRANCH  72  75
ENDBRANCH  47  72
ENDBRANCH  45  47
ENDBRANCH   1  43
BRANCH   1  90
ATOM     90  C16 non d ame     -36.210   9.239  31.875  0.00  0.00    -0.035 C 
ATOM     91  H21 non d ame     -36.340   8.415  32.574  0.00  0.00     0.037 H 
ATOM     92  H22 non d ame     -36.088  10.257  32.246  0.00  0.00     0.037 H 
BRANCH  90  93
ATOM     93  C17 non d ame     -37.479   9.250  30.965  0.00  0.00    -0.059 C 
ATOM     94  H23 non d ame     -37.179   8.908  29.975  0.00  0.00     0.038 H 
BRANCH  93  95
ATOM     95  C18 non d ame     -38.587   8.281  31.487  0.00  0.00    -0.073 C 
ATOM     96  H24 non d ame     -38.148   7.569  32.187  0.00  0.00     0.028 H 
ATOM     97  H25 non d ame     -39.363   8.855  31.994  0.00  0.00     0.028 H 
ATOM     98  H26 non d ame     -39.025   7.742  30.647  0.00  0.00     0.028 H 
ENDBRANCH  93  95
BRANCH  93  99
ATOM     99  C19 non d ame     -38.029  10.671  30.809  0.00  0.00    -0.073 C 
ATOM    100  H27 non d ame     -37.230  11.334  30.475  0.00  0.00     0.028 H 
ATOM    101  H28 non d ame     -38.832  10.672  30.072  0.00  0.00     0.028 H 
ATOM    102  H29 non d ame     -38.414  11.019  31.767  0.00  0.00     0.028 H 
ENDBRANCH  93  99
ENDBRANCH  90  93
ENDBRANCH   1  90
TORSDOF 26
ENDMDL
MODEL 3
REMARK VINA RESULT:      -6.5      3.531      6.432
REMARK  26 active torsions:
REMARK  status: ('A' for Active; 'I' for Inactive)
REMARK    1  A    between atoms: C2_2  and  C3_3 
REMARK    2  A    between atoms: C4_6  and  C5_7 
REMARK       I    between atoms: C5_7  and  N2_9 
REMARK    3  A    between atoms: N2_9  and  C6_10 
REMARK    4  A    between atoms: C6_10  and  C7_11 
REMARK    5  A    between atoms: C6_10  and  C8_13 
REMARK       I    between atoms: C7_11  and  N3_14 
REMARK    6  A    between atoms: N3_14  and  C9_15 
REMARK    7  A    between atoms: C9_15  and  C10_16 
REMARK    8  A    between atoms: C9_15  and  C11_18 
REMARK       I    between atoms: C10_16  and  N4_21 
REMARK    9  A    between atoms: C11_18  and  C12_19 
REMARK   10  A    between atoms: C11_18  and  C13_20 
REMARK   11  A    between atoms: N4_21  and  C14_22 
REMARK   12  A    between atoms: C14_22  and  C15_23 
REMARK   13  A    between atoms: C14_22  and  C16_25 
REMARK       I    between atoms: C15_23  and  N6_40 
REMARK   14  A    between atoms: C16_25  and  C17_26 
REMARK   15  A    between atoms: C17_26  and  C18_27 
REMARK   16  A    between atoms: C17_26  and  C19_28 
REMARK   17  A    between atoms: C20_29  and  C21_30 
REMARK   18  A    between atoms: C20_29  and  C24_33 
REMARK   19  A    between atoms: C20_29  and  N6_40 
REMARK   20  A    between atoms: C21_30  and  C22_31 
REMARK   21  A    between atoms: C22_31  and  C23_32 
REMARK   22  A    between atoms: C23_32  and  O8_43 
REMARK   23  A    between atoms: C24_33  and  C25_34 
REMARK   24  A    between atoms: C28_38  and  O6_39 
REMARK   25  A    between atoms: C29_42  and  O8_43 
REMARK   26  A    between atoms: C29_42  and  C35_49 
ROOT
ATOM      1  C14 non d ame     -36.265  13.458  25.926  0.00  0.00     0.089 C 
ATOM      2  H20 non d ame     -37.044  13.321  26.677  0.00  0.00     0.087 H 
ENDROOT
BRANCH   1   3
ATOM      3  N4  non d ame     -35.998  14.885  25.826  0.00  0.00    -0.346 N 
ATOM      4  C10 non d ame     -36.858  15.874  26.569  0.00  0.00     0.241 C 
ATOM      5  O4  non d ame     -37.762  15.500  27.242  0.00  0.00    -0.271 OA
ATOM      6  H19 non d ame     -35.227  15.184  25.246  0.00  0.00     0.163 HD
BRANCH   4   7
ATOM      7  C9  non d ame     -36.565  17.348  26.458  0.00  0.00     0.092 C 
ATOM      8  H11 non d ame     -36.834  17.839  27.393  0.00  0.00     0.088 H 
BRANCH   7   9
ATOM      9  N3  non d ame     -35.126  17.547  26.262  0.00  0.00    -0.346 N 
ATOM     10  C7  non d ame     -34.266  17.755  27.401  0.00  0.00     0.240 C 
ATOM     11  O3  non d ame     -34.715  17.765  28.482  0.00  0.00    -0.271 OA
ATOM     12  H10 non d ame     -34.725  17.542  25.335  0.00  0.00     0.163 HD
BRANCH  10  13
ATOM     13  C6  non d ame     -32.736  17.969  27.187  0.00  0.00     0.086 C 
ATOM     14  H6  non d ame     -32.130  17.470  27.942  0.00  0.00     0.086 H 
BRANCH  13  15
ATOM     15  N2  non d ame     -32.354  17.399  25.905  0.00  0.00    -0.343 N 
ATOM     16  C5  non d ame     -31.875  16.017  25.845  0.00  0.00     0.273 C 
ATOM     17  O2  non d ame     -31.796  15.372  26.832  0.00  0.00    -0.266 OA
ATOM     18  H5  non d ame     -32.422  17.958  25.067  0.00  0.00     0.163 HD
BRANCH  16  19
ATOM     19  C4  non d ame     -31.469  15.401  24.496  0.00  0.00     0.154 A 
ATOM     20  C1  non d ame     -30.426  14.451  24.258  0.00  0.00    -0.017 A 
ATOM     21  C2  non d ame     -30.464  14.211  22.867  0.00  0.00     0.077 A 
ATOM     22  H1  non d ame     -29.748  14.003  24.984  0.00  0.00     0.091 H 
ATOM     23  O1  non d ame     -31.419  14.942  22.373  0.00  0.00    -0.218 OA
ATOM     24  N1  non d ame     -32.021  15.646  23.305  0.00  0.00    -0.123 NA
BRANCH  21  25
ATOM     25  C3  non d ame     -29.554  13.270  22.089  0.00  0.00    -0.029 C 
ATOM     26  H2  non d ame     -30.052  12.959  21.171  0.00  0.00     0.036 H 
ATOM     27  H3  non d ame     -28.626  13.785  21.840  0.00  0.00     0.036 H 
ATOM     28  H4  non d ame     -29.331  12.394  22.697  0.00  0.00     0.036 H 
ENDBRANCH  21  25
ENDBRANCH  16  19
ENDBRANCH  13  15
BRANCH  13  29
ATOM     29  C8  non d ame     -32.424  19.444  27.210  0.00  0.00    -0.049 C 
ATOM     30  H7  non d ame     -33.349  20.010  27.311  0.00  0.00     0.030 H 
ATOM     31  H8  non d ame     -31.770  19.664  28.053  0.00  0.00     0.030 H 
ATOM     32  H9  non d ame     -31.926  19.724  26.280  0.00  0.00     0.030 H 
ENDBRANCH  13  29
ENDBRANCH  10  13
ENDBRANCH   7   9
BRANCH   7  33
ATOM     33  C11 non d ame     -37.338  17.939  25.241  0.00  0.00    -0.033 C 
ATOM     34  H12 non d ame     -37.285  17.210  24.433  0.00  0.00     0.042 H 
BRANCH  33  35
ATOM     35  C12 non d ame     -38.846  18.157  25.578  0.00  0.00    -0.071 C 
ATOM     36  H13 non d ame     -39.002  19.188  25.896  0.00  0.00     0.028 H 
ATOM     37  H14 non d ame     -39.449  17.954  24.694  0.00  0.00     0.028 H 
ATOM     38  H15 non d ame     -39.140  17.482  26.383  0.00  0.00     0.028 H 
ENDBRANCH  33  35
BRANCH  33  39
ATOM     39  C13 non d ame     -36.671  19.261  24.745  0.00  0.00    -0.071 C 
ATOM     40  H16 non d ame     -37.376  20.086  24.851  0.00  0.00     0.028 H 
ATOM     41  H17 non d ame     -35.779  19.465  25.339  0.00  0.00     0.028 H 
ATOM     42  H18 non d ame     -36.391  19.156  23.697  0.00  0.00     0.028 H 
ENDBRANCH  33  39
ENDBRANCH   7  33
ENDBRANCH   4   7
ENDBRANCH   1   3
BRANCH   1  43
ATOM     43  C15 non d ame     -34.943  12.733  26.313  0.00  0.00     0.240 C 
ATOM     44  O5  non d ame     -33.907  13.122  25.880  0.00  0.00    -0.271 OA
ATOM     45  N6  non d ame     -34.968  11.559  27.231  0.00  0.00    -0.355 N 
ATOM     46  H46 non d ame     -35.842  11.222  27.609  0.00  0.00     0.162 HD
BRANCH  45  47
ATOM     47  C20 non d ame     -33.703  10.882  27.590  0.00  0.00     0.013 C 
ATOM     48  H30 non d ame     -32.881  11.478  27.194  0.00  0.00     0.072 H 
BRANCH  47  49
ATOM     49  C21 non d ame     -33.684   9.501  26.976  0.00  0.00    -0.038 C 
ATOM     50  H31 non d ame     -33.110   8.880  27.665  0.00  0.00     0.036 H 
ATOM     51  H32 non d ame     -34.726   9.259  26.763  0.00  0.00     0.036 H 
BRANCH  49  52
ATOM     52  C22 non d ame     -32.940   9.456  25.623  0.00  0.00     0.018 C 
ATOM     53  H33 non d ame     -32.343  10.366  25.585  0.00  0.00     0.048 H 
ATOM     54  H34 non d ame     -32.452   8.482  25.587  0.00  0.00     0.048 H 
BRANCH  52  55
ATOM     55  C23 non d ame     -33.882   9.509  24.389  0.00  0.00     0.259 C 
ATOM     56  O7  non d ame     -35.040   9.742  24.523  0.00  0.00    -0.265 OA
BRANCH  55  57
ATOM     57  O8  non d ame     -33.347   9.263  23.093  0.00  0.00    -0.317 OA
BRANCH  57  58
ATOM     58  C29 non d ame     -32.817   7.946  22.922  0.00  0.00     0.052 C 
ATOM     59  H47 non d ame     -32.996   7.431  23.866  0.00  0.00     0.082 H 
ATOM     60  H48 non d ame     -33.259   7.567  22.001  0.00  0.00     0.082 H 
BRANCH  58  61
ATOM     61  C35 non d ame     -31.284   8.071  22.714  0.00  0.00    -0.034 A 
ATOM     62  C30 non d ame     -30.733   9.283  22.311  0.00  0.00    -0.075 A 
ATOM     63  C31 non d ame     -29.356   9.395  22.123  0.00  0.00    -0.082 A 
ATOM     64  H49 non d ame     -31.378  10.145  22.141  0.00  0.00     0.084 H 
ATOM     65  C32 non d ame     -28.529   8.289  22.339  0.00  0.00    -0.083 A 
ATOM     66  H50 non d ame     -28.926  10.348  21.809  0.00  0.00     0.083 H 
ATOM     67  C33 non d ame     -29.085   7.081  22.737  0.00  0.00    -0.082 A 
ATOM     68  H51 non d ame     -27.451   8.369  22.195  0.00  0.00     0.083 H 
ATOM     69  C34 non d ame     -30.460   6.965  22.927  0.00  0.00    -0.075 A 
ATOM     70  H52 non d ame     -28.437   6.219  22.902  0.00  0.00     0.083 H 
ATOM     71  H53 non d ame     -30.888   6.013  23.242  0.00  0.00     0.084 H 
ENDBRANCH  58  61
ENDBRANCH  57  58
ENDBRANCH  55  57
ENDBRANCH  52  55
ENDBRANCH  49  52
ENDBRANCH  47  49
BRANCH  47  72
ATOM     72  C24 non d ame     -33.592  10.768  29.109  0.00  0.00    -0.039 C 
ATOM     73  H35 non d ame     -34.619  10.767  29.475  0.00  0.00     0.036 H 
ATOM     74  H36 non d ame     -32.949   9.906  29.288  0.00  0.00     0.036 H 
BRANCH  72  75
ATOM     75  C25 non d ame     -32.863  12.043  29.747  0.00  0.00    -0.001 C 
ATOM     76  C26 non d ame     -31.565  12.463  28.831  0.00  0.00    -0.035 C 
ATOM     77  C27 non d ame     -30.479  12.574  29.634  0.00  0.00     0.085 C 
ATOM     78  H38 non d ame     -31.301  11.647  28.158  0.00  0.00     0.036 H 
ATOM     79  H39 non d ame     -31.694  13.472  28.438  0.00  0.00     0.036 H 
ATOM     80  N5  non d ame     -30.847  11.950  30.960  0.00  0.00    -0.049 N 
ATOM     81  H40 non d ame     -29.704  11.972  29.160  0.00  0.00     0.075 H 
ATOM     82  H41 non d ame     -30.329  13.643  29.775  0.00  0.00     0.075 H 
ATOM     83  C28 non d ame     -32.454  11.795  30.947  0.00  0.00     0.193 C 
ATOM     84  H42 non d ame     -30.435  11.028  30.966  0.00  0.00     0.280 HD
ATOM     85  H43 non d ame     -30.594  12.621  31.670  0.00  0.00     0.280 HD
ATOM     86  H44 non d ame     -33.080  12.483  31.516  0.00  0.00     0.129 H 
ATOM     87  H37 non d ame     -33.566  12.835  30.004  0.00  0.00     0.046 H 
BRANCH  83  88
ATOM     88  O6  non d ame     -32.826  10.487  31.384  0.00  0.00    -0.369 OA
ATOM     89  H45 non d ame     -33.003   9.932  30.620  0.00  0.00     0.212 HD
ENDBRANCH  83  88
ENDBRANCH  72  75
ENDBRANCH  47  72
ENDBRANCH  45  47
ENDBRANCH   1  43
BRANCH   1  90
ATOM     90  C16 non d ame     -36.753  12.947  24.580  0.00  0.00    -0.035 C 
ATOM     91  H21 non d ame     -36.787  13.823  23.934  0.00  0.00     0.037 H 
ATOM     92  H22 non d ame     -36.097  12.112  24.334  0.00  0.00     0.037 H 
BRANCH  90  93
ATOM     93  C17 non d ame     -38.205  12.372  24.618  0.00  0.00    -0.059 C 
ATOM     94  H23 non d ame     -38.873  13.137  24.224  0.00  0.00     0.038 H 
BRANCH  93  95
ATOM     95  C18 non d ame     -38.359  11.100  23.723  0.00  0.00    -0.073 C 
ATOM     96  H24 non d ame     -39.008  10.381  24.222  0.00  0.00     0.028 H 
ATOM     97  H25 non d ame     -38.797  11.381  22.766  0.00  0.00     0.028 H 
ATOM     98  H26 non d ame     -37.379  10.652  23.558  0.00  0.00     0.028 H 
ENDBRANCH  93  95
BRANCH  93  99
ATOM     99  C19 non d ame     -38.641  12.081  26.056  0.00  0.00    -0.073 C 
ATOM    100  H27 non d ame     -38.329  12.902  26.703  0.00  0.00     0.028 H 
ATOM    101  H28 non d ame     -39.726  11.981  26.095  0.00  0.00     0.028 H 
ATOM    102  H29 non d ame     -38.178  11.155  26.396  0.00  0.00     0.028 H 
ENDBRANCH  93  99
ENDBRANCH  90  93
ENDBRANCH   1  90
TORSDOF 26
ENDMDL
MODEL 4
REMARK VINA RESULT:      -6.3      3.689      7.184
REMARK  26 active torsions:
REMARK  status: ('A' for Active; 'I' for Inactive)
REMARK    1  A    between atoms: C2_2  and  C3_3 
REMARK    2  A    between atoms: C4_6  and  C5_7 
REMARK       I    between atoms: C5_7  and  N2_9 
REMARK    3  A    between atoms: N2_9  and  C6_10 
REMARK    4  A    between atoms: C6_10  and  C7_11 
REMARK    5  A    between atoms: C6_10  and  C8_13 
REMARK       I    between atoms: C7_11  and  N3_14 
REMARK    6  A    between atoms: N3_14  and  C9_15 
REMARK    7  A    between atoms: C9_15  and  C10_16 
REMARK    8  A    between atoms: C9_15  and  C11_18 
REMARK       I    between atoms: C10_16  and  N4_21 
REMARK    9  A    between atoms: C11_18  and  C12_19 
REMARK   10  A    between atoms: C11_18  and  C13_20 
REMARK   11  A    between atoms: N4_21  and  C14_22 
REMARK   12  A    between atoms: C14_22  and  C15_23 
REMARK   13  A    between atoms: C14_22  and  C16_25 
REMARK       I    between atoms: C15_23  and  N6_40 
REMARK   14  A    between atoms: C16_25  and  C17_26 
REMARK   15  A    between atoms: C17_26  and  C18_27 
REMARK   16  A    between atoms: C17_26  and  C19_28 
REMARK   17  A    between atoms: C20_29  and  C21_30 
REMARK   18  A    between atoms: C20_29  and  C24_33 
REMARK   19  A    between atoms: C20_29  and  N6_40 
REMARK   20  A    between atoms: C21_30  and  C22_31 
REMARK   21  A    between atoms: C22_31  and  C23_32 
REMARK   22  A    between atoms: C23_32  and  O8_43 
REMARK   23  A    between atoms: C24_33  and  C25_34 
REMARK   24  A    between atoms: C28_38  and  O6_39 
REMARK   25  A    between atoms: C29_42  and  O8_43 
REMARK   26  A    between atoms: C29_42  and  C35_49 
ROOT
ATOM      1  C14 non d ame     -37.538  14.000  25.174  0.00  0.00     0.089 C 
ATOM      2  H20 non d ame     -38.618  14.133  25.252  0.00  0.00     0.087 H 
ENDROOT
BRANCH   1   3
ATOM      3  N4  non d ame     -36.916  15.285  25.461  0.00  0.00    -0.346 N 
ATOM      4  C10 non d ame     -37.678  16.350  26.207  0.00  0.00     0.241 C 
ATOM      5  O4  non d ame     -38.792  16.152  26.566  0.00  0.00    -0.271 OA
ATOM      6  H19 non d ame     -35.969  15.434  25.145  0.00  0.00     0.163 HD
BRANCH   4   7
ATOM      7  C9  non d ame     -37.018  17.672  26.500  0.00  0.00     0.092 C 
ATOM      8  H11 non d ame     -37.268  17.981  27.514  0.00  0.00     0.088 H 
BRANCH   7   9
ATOM      9  N3  non d ame     -35.561  17.514  26.441  0.00  0.00    -0.346 N 
ATOM     10  C7  non d ame     -34.757  17.809  27.601  0.00  0.00     0.240 C 
ATOM     11  O3  non d ame     -35.266  18.173  28.590  0.00  0.00    -0.271 OA
ATOM     12  H10 non d ame     -35.109  17.202  25.593  0.00  0.00     0.163 HD
BRANCH  10  13
ATOM     13  C6  non d ame     -33.208  17.642  27.532  0.00  0.00     0.086 C 
ATOM     14  H6  non d ame     -32.683  18.277  28.245  0.00  0.00     0.086 H 
BRANCH  13  15
ATOM     15  N2  non d ame     -32.865  16.270  27.865  0.00  0.00    -0.343 N 
ATOM     16  C5  non d ame     -32.166  15.986  29.120  0.00  0.00     0.273 C 
ATOM     17  O2  non d ame     -31.881  16.868  29.854  0.00  0.00    -0.266 OA
ATOM     18  H5  non d ame     -33.109  15.523  27.232  0.00  0.00     0.163 HD
BRANCH  16  19
ATOM     19  C4  non d ame     -31.798  14.539  29.486  0.00  0.00     0.154 A 
ATOM     20  C1  non d ame     -32.697  13.470  29.794  0.00  0.00    -0.017 A 
ATOM     21  C2  non d ame     -31.864  12.360  30.057  0.00  0.00     0.077 A 
ATOM     22  H1  non d ame     -33.787  13.495  29.821  0.00  0.00     0.091 H 
ATOM     23  O1  non d ame     -30.634  12.755  29.913  0.00  0.00    -0.218 OA
ATOM     24  N1  non d ame     -30.570  14.024  29.580  0.00  0.00    -0.123 NA
BRANCH  21  25
ATOM     25  C3  non d ame     -32.323  10.958  30.437  0.00  0.00    -0.029 C 
ATOM     26  H2  non d ame     -33.356  10.816  30.121  0.00  0.00     0.036 H 
ATOM     27  H3  non d ame     -31.690  10.221  29.943  0.00  0.00     0.036 H 
ATOM     28  H4  non d ame     -32.253  10.832  31.517  0.00  0.00     0.036 H 
ENDBRANCH  21  25
ENDBRANCH  16  19
ENDBRANCH  13  15
BRANCH  13  29
ATOM     29  C8  non d ame     -32.726  17.972  26.142  0.00  0.00    -0.049 C 
ATOM     30  H7  non d ame     -33.116  17.238  25.438  0.00  0.00     0.030 H 
ATOM     31  H8  non d ame     -33.077  18.965  25.861  0.00  0.00     0.030 H 
ATOM     32  H9  non d ame     -31.635  17.952  26.121  0.00  0.00     0.030 H 
ENDBRANCH  13  29
ENDBRANCH  10  13
ENDBRANCH   7   9
BRANCH   7  33
ATOM     33  C11 non d ame     -37.466  18.721  25.440  0.00  0.00    -0.033 C 
ATOM     34  H12 non d ame     -36.644  19.423  25.304  0.00  0.00     0.042 H 
BRANCH  33  35
ATOM     35  C12 non d ame     -37.742  18.049  24.058  0.00  0.00    -0.071 C 
ATOM     36  H13 non d ame     -37.573  16.975  24.136  0.00  0.00     0.028 H 
ATOM     37  H14 non d ame     -38.775  18.234  23.764  0.00  0.00     0.028 H 
ATOM     38  H15 non d ame     -37.070  18.468  23.310  0.00  0.00     0.028 H 
ENDBRANCH  33  35
BRANCH  33  39
ATOM     39  C13 non d ame     -38.710  19.523  25.939  0.00  0.00    -0.071 C 
ATOM     40  H16 non d ame     -38.557  20.586  25.750  0.00  0.00     0.028 H 
ATOM     41  H17 non d ame     -39.600  19.183  25.407  0.00  0.00     0.028 H 
ATOM     42  H18 non d ame     -38.843  19.360  27.008  0.00  0.00     0.028 H 
ENDBRANCH  33  39
ENDBRANCH   7  33
ENDBRANCH   4   7
ENDBRANCH   1   3
BRANCH   1  43
ATOM     43  C15 non d ame     -37.001  12.952  26.191  0.00  0.00     0.240 C 
ATOM     44  O5  non d ame     -37.588  12.758  27.206  0.00  0.00    -0.271 OA
ATOM     45  N6  non d ame     -35.760  12.182  25.894  0.00  0.00    -0.355 N 
ATOM     46  H46 non d ame     -35.255  12.334  25.032  0.00  0.00     0.162 HD
BRANCH  45  47
ATOM     47  C20 non d ame     -35.263  11.188  26.870  0.00  0.00     0.013 C 
ATOM     48  H30 non d ame     -35.824  11.319  27.796  0.00  0.00     0.072 H 
BRANCH  47  49
ATOM     49  C21 non d ame     -33.790  11.424  27.119  0.00  0.00    -0.038 C 
ATOM     50  H31 non d ame     -33.734  11.954  28.070  0.00  0.00     0.036 H 
ATOM     51  H32 non d ame     -33.314  10.450  27.009  0.00  0.00     0.036 H 
BRANCH  49  52
ATOM     52  C22 non d ame     -33.145  12.349  26.064  0.00  0.00     0.018 C 
ATOM     53  H33 non d ame     -33.340  11.878  25.101  0.00  0.00     0.048 H 
ATOM     54  H34 non d ame     -33.530  13.347  26.272  0.00  0.00     0.048 H 
BRANCH  52  55
ATOM     55  C23 non d ame     -31.599  12.452  26.184  0.00  0.00     0.259 C 
ATOM     56  O7  non d ame     -30.983  11.619  26.767  0.00  0.00    -0.265 OA
BRANCH  55  57
ATOM     57  O8  non d ame     -30.927  13.562  25.601  0.00  0.00    -0.317 OA
BRANCH  57  58
ATOM     58  C29 non d ame     -31.785  14.444  24.870  0.00  0.00     0.052 C 
ATOM     59  H47 non d ame     -32.716  13.897  24.726  0.00  0.00     0.082 H 
ATOM     60  H48 non d ame     -31.783  15.383  25.422  0.00  0.00     0.082 H 
BRANCH  58  61
ATOM     61  C35 non d ame     -31.141  14.693  23.479  0.00  0.00    -0.034 A 
ATOM     62  C30 non d ame     -31.393  15.881  22.799  0.00  0.00    -0.075 A 
ATOM     63  C31 non d ame     -30.815  16.104  21.549  0.00  0.00    -0.082 A 
ATOM     64  H49 non d ame     -32.042  16.635  23.243  0.00  0.00     0.084 H 
ATOM     65  C32 non d ame     -29.985  15.135  20.980  0.00  0.00    -0.083 A 
ATOM     66  H50 non d ame     -31.013  17.037  21.019  0.00  0.00     0.083 H 
ATOM     67  C33 non d ame     -29.741  13.950  21.662  0.00  0.00    -0.082 A 
ATOM     68  H51 non d ame     -29.529  15.302  20.004  0.00  0.00     0.083 H 
ATOM     69  C34 non d ame     -30.314  13.723  22.911  0.00  0.00    -0.075 A 
ATOM     70  H52 non d ame     -29.094  13.194  21.214  0.00  0.00     0.083 H 
ATOM     71  H53 non d ame     -30.116  12.791  23.441  0.00  0.00     0.084 H 
ENDBRANCH  58  61
ENDBRANCH  57  58
ENDBRANCH  55  57
ENDBRANCH  52  55
ENDBRANCH  49  52
ENDBRANCH  47  49
BRANCH  47  72
ATOM     72  C24 non d ame     -35.469   9.778  26.321  0.00  0.00    -0.039 C 
ATOM     73  H35 non d ame     -36.311   9.855  25.633  0.00  0.00     0.036 H 
ATOM     74  H36 non d ame     -34.492   9.465  25.953  0.00  0.00     0.036 H 
BRANCH  72  75
ATOM     75  C25 non d ame     -35.891   8.749  27.474  0.00  0.00    -0.001 C 
ATOM     76  C26 non d ame     -36.090   9.551  28.895  0.00  0.00    -0.035 C 
ATOM     77  C27 non d ame     -35.368   8.925  29.855  0.00  0.00     0.085 C 
ATOM     78  H38 non d ame     -35.633  10.538  28.835  0.00  0.00     0.036 H 
ATOM     79  H39 non d ame     -37.119   9.448  29.242  0.00  0.00     0.036 H 
ATOM     80  N5  non d ame     -34.438   7.966  29.151  0.00  0.00    -0.049 N 
ATOM     81  H40 non d ame     -34.779   9.708  30.332  0.00  0.00     0.075 H 
ATOM     82  H41 non d ame     -36.091   8.355  30.438  0.00  0.00     0.075 H 
ATOM     83  C28 non d ame     -34.990   7.839  27.640  0.00  0.00     0.193 C 
ATOM     84  H42 non d ame     -33.533   8.413  29.126  0.00  0.00     0.280 HD
ATOM     85  H43 non d ame     -34.548   7.073  29.611  0.00  0.00     0.280 HD
ATOM     86  H44 non d ame     -35.544   6.953  27.327  0.00  0.00     0.129 H 
ATOM     87  H37 non d ame     -36.698   8.087  27.160  0.00  0.00     0.046 H 
BRANCH  83  88
ATOM     88  O6  non d ame     -33.915   7.968  26.709  0.00  0.00    -0.369 OA
ATOM     89  H45 non d ame     -33.078   7.913  27.177  0.00  0.00     0.212 HD
ENDBRANCH  83  88
ENDBRANCH  72  75
ENDBRANCH  47  72
ENDBRANCH  45  47
ENDBRANCH   1  43
BRANCH   1  90
ATOM     90  C16 non d ame     -37.173  13.576  23.761  0.00  0.00    -0.035 C 
ATOM     91  H21 non d ame     -36.410  14.281  23.436  0.00  0.00     0.037 H 
ATOM     92  H22 non d ame     -36.940  12.513  23.831  0.00  0.00     0.037 H 
BRANCH  90  93
ATOM     93  C17 non d ame     -38.352  13.703  22.744  0.00  0.00    -0.059 C 
ATOM     94  H23 non d ame     -38.765  12.706  22.590  0.00  0.00     0.038 H 
BRANCH  93  95
ATOM     95  C18 non d ame     -39.500  14.615  23.284  0.00  0.00    -0.073 C 
ATOM     96  H24 non d ame     -40.356  14.559  22.613  0.00  0.00     0.028 H 
ATOM     97  H25 non d ame     -39.796  14.277  24.277  0.00  0.00     0.028 H 
ATOM     98  H26 non d ame     -39.149  15.646  23.340  0.00  0.00     0.028 H 
ENDBRANCH  93  95
BRANCH  93  99
ATOM     99  C19 non d ame     -37.852  14.204  21.387  0.00  0.00    -0.073 C 
ATOM    100  H27 non d ame     -37.272  13.418  20.901  0.00  0.00     0.028 H 
ATOM    101  H28 non d ame     -38.704  14.466  20.759  0.00  0.00     0.028 H 
ATOM    102  H29 non d ame     -37.224  15.083  21.532  0.00  0.00     0.028 H 
ENDBRANCH  93  99
ENDBRANCH  90  93
ENDBRANCH   1  90
TORSDOF 26
ENDMDL
MODEL 5
REMARK VINA RESULT:      -6.3      2.545      9.161
REMARK  26 active torsions:
REMARK  status: ('A' for Active; 'I' for Inactive)
REMARK    1  A    between atoms: C2_2  and  C3_3 
REMARK    2  A    between atoms: C4_6  and  C5_7 
REMARK       I    between atoms: C5_7  and  N2_9 
REMARK    3  A    between atoms: N2_9  and  C6_10 
REMARK    4  A    between atoms: C6_10  and  C7_11 
REMARK    5  A    between atoms: C6_10  and  C8_13 
REMARK       I    between atoms: C7_11  and  N3_14 
REMARK    6  A    between atoms: N3_14  and  C9_15 
REMARK    7  A    between atoms: C9_15  and  C10_16 
REMARK    8  A    between atoms: C9_15  and  C11_18 
REMARK       I    between atoms: C10_16  and  N4_21 
REMARK    9  A    between atoms: C11_18  and  C12_19 
REMARK   10  A    between atoms: C11_18  and  C13_20 
REMARK   11  A    between atoms: N4_21  and  C14_22 
REMARK   12  A    between atoms: C14_22  and  C15_23 
REMARK   13  A    between atoms: C14_22  and  C16_25 
REMARK       I    between atoms: C15_23  and  N6_40 
REMARK   14  A    between atoms: C16_25  and  C17_26 
REMARK   15  A    between atoms: C17_26  and  C18_27 
REMARK   16  A    between atoms: C17_26  and  C19_28 
REMARK   17  A    between atoms: C20_29  and  C21_30 
REMARK   18  A    between atoms: C20_29  and  C24_33 
REMARK   19  A    between atoms: C20_29  and  N6_40 
REMARK   20  A    between atoms: C21_30  and  C22_31 
REMARK   21  A    between atoms: C22_31  and  C23_32 
REMARK   22  A    between atoms: C23_32  and  O8_43 
REMARK   23  A    between atoms: C24_33  and  C25_34 
REMARK   24  A    between atoms: C28_38  and  O6_39 
REMARK   25  A    between atoms: C29_42  and  O8_43 
REMARK   26  A    between atoms: C29_42  and  C35_49 
ROOT
ATOM      1  C14 non d ame     -32.229   9.153  24.608  0.00  0.00     0.089 C 
ATOM      2  H20 non d ame     -31.417   8.427  24.656  0.00  0.00     0.087 H 
ENDROOT
BRANCH   1   3
ATOM      3  N4  non d ame     -33.412   8.525  25.177  0.00  0.00    -0.346 N 
ATOM      4  C10 non d ame     -33.607   7.034  25.074  0.00  0.00     0.241 C 
ATOM      5  O4  non d ame     -32.798   6.359  24.527  0.00  0.00    -0.271 OA
ATOM      6  H19 non d ame     -34.090   9.118  25.635  0.00  0.00     0.163 HD
BRANCH   4   7
ATOM      7  C9  non d ame     -34.835   6.400  25.672  0.00  0.00     0.092 C 
ATOM      8  H11 non d ame     -34.547   5.498  26.211  0.00  0.00     0.088 H 
BRANCH   7   9
ATOM      9  N3  non d ame     -35.433   7.317  26.648  0.00  0.00    -0.346 N 
ATOM     10  C7  non d ame     -35.423   6.982  28.050  0.00  0.00     0.240 C 
ATOM     11  O3  non d ame     -34.939   5.979  28.412  0.00  0.00    -0.271 OA
ATOM     12  H10 non d ame     -35.856   8.184  26.351  0.00  0.00     0.163 HD
BRANCH  10  13
ATOM     13  C6  non d ame     -36.064   7.960  29.084  0.00  0.00     0.086 C 
ATOM     14  H6  non d ame     -36.108   7.541  30.089  0.00  0.00     0.086 H 
BRANCH  13  15
ATOM     15  N2  non d ame     -35.247   9.158  29.169  0.00  0.00    -0.343 N 
ATOM     16  C5  non d ame     -34.296   9.307  30.273  0.00  0.00     0.273 C 
ATOM     17  O2  non d ame     -34.199   8.458  31.090  0.00  0.00    -0.266 OA
ATOM     18  H5  non d ame     -35.339   9.880  28.468  0.00  0.00     0.163 HD
BRANCH  16  19
ATOM     19  C4  non d ame     -33.425  10.569  30.374  0.00  0.00     0.154 A 
ATOM     20  C1  non d ame     -32.683  11.194  29.323  0.00  0.00    -0.017 A 
ATOM     21  C2  non d ame     -32.061  12.307  29.930  0.00  0.00     0.077 A 
ATOM     22  H1  non d ame     -32.608  10.887  28.280  0.00  0.00     0.091 H 
ATOM     23  O1  non d ame     -32.412  12.313  31.182  0.00  0.00    -0.218 OA
ATOM     24  N1  non d ame     -33.208  11.308  31.466  0.00  0.00    -0.123 NA
BRANCH  21  25
ATOM     25  C3  non d ame     -31.149  13.316  29.244  0.00  0.00    -0.029 C 
ATOM     26  H2  non d ame     -31.750  14.115  28.813  0.00  0.00     0.036 H 
ATOM     27  H3  non d ame     -30.458  13.737  29.975  0.00  0.00     0.036 H 
ATOM     28  H4  non d ame     -30.584  12.819  28.456  0.00  0.00     0.036 H 
ENDBRANCH  21  25
ENDBRANCH  16  19
ENDBRANCH  13  15
BRANCH  13  29
ATOM     29  C8  non d ame     -37.461   8.316  28.644  0.00  0.00    -0.049 C 
ATOM     30  H7  non d ame     -38.148   8.197  29.481  0.00  0.00     0.030 H 
ATOM     31  H8  non d ame     -37.481   9.351  28.302  0.00  0.00     0.030 H 
ATOM     32  H9  non d ame     -37.764   7.658  27.828  0.00  0.00     0.030 H 
ENDBRANCH  13  29
ENDBRANCH  10  13
ENDBRANCH   7   9
BRANCH   7  33
ATOM     33  C11 non d ame     -35.867   6.104  24.544  0.00  0.00    -0.033 C 
ATOM     34  H12 non d ame     -35.320   5.682  23.701  0.00  0.00     0.042 H 
BRANCH  33  35
ATOM     35  C12 non d ame     -36.917   5.043  24.999  0.00  0.00    -0.071 C 
ATOM     36  H13 non d ame     -36.487   4.045  24.913  0.00  0.00     0.028 H 
ATOM     37  H14 non d ame     -37.197   5.230  26.035  0.00  0.00     0.028 H 
ATOM     38  H15 non d ame     -37.801   5.112  24.365  0.00  0.00     0.028 H 
ENDBRANCH  33  35
BRANCH  33  39
ATOM     39  C13 non d ame     -36.560   7.418  24.061  0.00  0.00    -0.071 C 
ATOM     40  H16 non d ame     -36.783   8.048  24.922  0.00  0.00     0.028 H 
ATOM     41  H17 non d ame     -35.896   7.951  23.381  0.00  0.00     0.028 H 
ATOM     42  H18 non d ame     -37.486   7.171  23.542  0.00  0.00     0.028 H 
ENDBRANCH  33  39
ENDBRANCH   7  33
ENDBRANCH   4   7
ENDBRANCH   1   3
BRANCH   1  43
ATOM     43  C15 non d ame     -31.912  10.441  25.423  0.00  0.00     0.240 C 
ATOM     44  O5  non d ame     -31.207  10.378  26.377  0.00  0.00    -0.271 OA
ATOM     45  N6  non d ame     -32.480  11.755  25.006  0.00  0.00    -0.355 N 
ATOM     46  H46 non d ame     -33.076  11.822  24.193  0.00  0.00     0.162 HD
BRANCH  45  47
ATOM     47  C20 non d ame     -32.168  12.970  25.790  0.00  0.00     0.013 C 
ATOM     48  H30 non d ame     -32.011  12.668  26.825  0.00  0.00     0.072 H 
BRANCH  47  49
ATOM     49  C21 non d ame     -33.330  13.933  25.702  0.00  0.00    -0.038 C 
ATOM     50  H31 non d ame     -32.886  14.916  25.544  0.00  0.00     0.036 H 
ATOM     51  H32 non d ame     -34.005  13.513  24.956  0.00  0.00     0.036 H 
BRANCH  49  52
ATOM     52  C22 non d ame     -34.135  14.023  27.018  0.00  0.00     0.018 C 
ATOM     53  H33 non d ame     -34.276  12.995  27.347  0.00  0.00     0.048 H 
ATOM     54  H34 non d ame     -33.592  14.729  27.647  0.00  0.00     0.048 H 
BRANCH  52  55
ATOM     55  C23 non d ame     -35.560  14.616  26.840  0.00  0.00     0.259 C 
ATOM     56  O7  non d ame     -36.479  13.909  26.577  0.00  0.00    -0.265 OA
BRANCH  55  57
ATOM     57  O8  non d ame     -35.754  16.019  26.981  0.00  0.00    -0.317 OA
BRANCH  57  58
ATOM     58  C29 non d ame     -35.275  16.788  25.874  0.00  0.00     0.052 C 
ATOM     59  H47 non d ame     -34.752  16.082  25.229  0.00  0.00     0.082 H 
ATOM     60  H48 non d ame     -36.138  17.334  25.498  0.00  0.00     0.082 H 
BRANCH  58  61
ATOM     61  C35 non d ame     -34.244  17.815  26.415  0.00  0.00    -0.034 A 
ATOM     62  C30 non d ame     -33.996  18.989  25.711  0.00  0.00    -0.075 A 
ATOM     63  C31 non d ame     -33.070  19.911  26.197  0.00  0.00    -0.082 A 
ATOM     64  H49 non d ame     -34.526  19.187  24.779  0.00  0.00     0.084 H 
ATOM     65  C32 non d ame     -32.390  19.655  27.391  0.00  0.00    -0.083 A 
ATOM     66  H50 non d ame     -32.879  20.832  25.644  0.00  0.00     0.083 H 
ATOM     67  C33 non d ame     -32.638  18.480  28.087  0.00  0.00    -0.082 A 
ATOM     68  H51 non d ame     -31.665  20.372  27.778  0.00  0.00     0.083 H 
ATOM     69  C34 non d ame     -33.564  17.557  27.606  0.00  0.00    -0.075 A 
ATOM     70  H52 non d ame     -32.104  18.282  29.017  0.00  0.00     0.083 H 
ATOM     71  H53 non d ame     -33.754  16.637  28.160  0.00  0.00     0.084 H 
ENDBRANCH  58  61
ENDBRANCH  57  58
ENDBRANCH  55  57
ENDBRANCH  52  55
ENDBRANCH  49  52
ENDBRANCH  47  49
BRANCH  47  72
ATOM     72  C24 non d ame     -30.911  13.634  25.234  0.00  0.00    -0.039 C 
ATOM     73  H35 non d ame     -30.719  14.485  25.890  0.00  0.00     0.036 H 
ATOM     74  H36 non d ame     -30.174  12.836  25.149  0.00  0.00     0.036 H 
BRANCH  72  75
ATOM     75  C25 non d ame     -31.149  14.216  23.761  0.00  0.00    -0.001 C 
ATOM     76  C26 non d ame     -30.139  13.476  22.697  0.00  0.00    -0.035 C 
ATOM     77  C27 non d ame     -29.484  14.424  21.984  0.00  0.00     0.085 C 
ATOM     78  H38 non d ame     -29.340  12.964  23.233  0.00  0.00     0.036 H 
ATOM     79  H39 non d ame     -30.716  12.943  21.941  0.00  0.00     0.036 H 
ATOM     80  N5  non d ame     -29.712  15.741  22.688  0.00  0.00    -0.049 N 
ATOM     81  H40 non d ame     -28.428  14.162  22.052  0.00  0.00     0.075 H 
ATOM     82  H41 non d ame     -29.977  14.451  21.013  0.00  0.00     0.075 H 
ATOM     83  C28 non d ame     -30.927  15.488  23.720  0.00  0.00     0.193 C 
ATOM     84  H42 non d ame     -28.874  15.930  23.219  0.00  0.00     0.280 HD
ATOM     85  H43 non d ame     -30.020  16.393  21.981  0.00  0.00     0.280 HD
ATOM     86  H44 non d ame     -31.929  15.856  23.496  0.00  0.00     0.129 H 
ATOM     87  H37 non d ame     -32.206  14.254  23.498  0.00  0.00     0.046 H 
BRANCH  83  88
ATOM     88  O6  non d ame     -30.602  16.021  25.005  0.00  0.00    -0.369 OA
ATOM     89  H45 non d ame     -31.337  16.548  25.328  0.00  0.00     0.212 HD
ENDBRANCH  83  88
ENDBRANCH  72  75
ENDBRANCH  47  72
ENDBRANCH  45  47
ENDBRANCH   1  43
BRANCH   1  90
ATOM     90  C16 non d ame     -32.508   9.521  23.160  0.00  0.00    -0.035 C 
ATOM     91  H21 non d ame     -33.519   9.168  22.963  0.00  0.00     0.037 H 
ATOM     92  H22 non d ame     -32.275  10.583  23.082  0.00  0.00     0.037 H 
BRANCH  90  93
ATOM     93  C17 non d ame     -31.579   8.789  22.139  0.00  0.00    -0.059 C 
ATOM     94  H23 non d ame     -31.217   9.533  21.429  0.00  0.00     0.038 H 
BRANCH  93  95
ATOM     95  C18 non d ame     -30.335   8.146  22.830  0.00  0.00    -0.073 C 
ATOM     96  H24 non d ame     -30.596   7.156  23.204  0.00  0.00     0.028 H 
ATOM     97  H25 non d ame     -29.524   8.056  22.107  0.00  0.00     0.028 H 
ATOM     98  H26 non d ame     -30.014   8.775  23.660  0.00  0.00     0.028 H 
ENDBRANCH  93  95
BRANCH  93  99
ATOM     99  C19 non d ame     -32.361   7.741  21.342  0.00  0.00    -0.073 C 
ATOM    100  H27 non d ame     -31.957   7.679  20.330  0.00  0.00     0.028 H 
ATOM    101  H28 non d ame     -32.270   6.770  21.829  0.00  0.00     0.028 H 
ATOM    102  H29 non d ame     -33.411   8.028  21.296  0.00  0.00     0.028 H 
ENDBRANCH  93  99
ENDBRANCH  90  93
ENDBRANCH   1  90
TORSDOF 26
ENDMDL
MODEL 6
REMARK VINA RESULT:      -6.3      2.311      8.803
REMARK  26 active torsions:
REMARK  status: ('A' for Active; 'I' for Inactive)
REMARK    1  A    between atoms: C2_2  and  C3_3 
REMARK    2  A    between atoms: C4_6  and  C5_7 
REMARK       I    between atoms: C5_7  and  N2_9 
REMARK    3  A    between atoms: N2_9  and  C6_10 
REMARK    4  A    between atoms: C6_10  and  C7_11 
REMARK    5  A    between atoms: C6_10  and  C8_13 
REMARK       I    between atoms: C7_11  and  N3_14 
REMARK    6  A    between atoms: N3_14  and  C9_15 
REMARK    7  A    between atoms: C9_15  and  C10_16 
REMARK    8  A    between atoms: C9_15  and  C11_18 
REMARK       I    between atoms: C10_16  and  N4_21 
REMARK    9  A    between atoms: C11_18  and  C12_19 
REMARK   10  A    between atoms: C11_18  and  C13_20 
REMARK   11  A    between atoms: N4_21  and  C14_22 
REMARK   12  A    between atoms: C14_22  and  C15_23 
REMARK   13  A    between atoms: C14_22  and  C16_25 
REMARK       I    between atoms: C15_23  and  N6_40 
REMARK   14  A    between atoms: C16_25  and  C17_26 
REMARK   15  A    between atoms: C17_26  and  C18_27 
REMARK   16  A    between atoms: C17_26  and  C19_28 
REMARK   17  A    between atoms: C20_29  and  C21_30 
REMARK   18  A    between atoms: C20_29  and  C24_33 
REMARK   19  A    between atoms: C20_29  and  N6_40 
REMARK   20  A    between atoms: C21_30  and  C22_31 
REMARK   21  A    between atoms: C22_31  and  C23_32 
REMARK   22  A    between atoms: C23_32  and  O8_43 
REMARK   23  A    between atoms: C24_33  and  C25_34 
REMARK   24  A    between atoms: C28_38  and  O6_39 
REMARK   25  A    between atoms: C29_42  and  O8_43 
REMARK   26  A    between atoms: C29_42  and  C35_49 
ROOT
ATOM      1  C14 non d ame     -34.686  10.133  24.640  0.00  0.00     0.089 C 
ATOM      2  H20 non d ame     -34.156  10.570  23.793  0.00  0.00     0.087 H 
ENDROOT
BRANCH   1   3
ATOM      3  N4  non d ame     -34.238   8.754  24.773  0.00  0.00    -0.346 N 
ATOM      4  C10 non d ame     -32.793   8.396  24.538  0.00  0.00     0.241 C 
ATOM      5  O4  non d ame     -32.007   9.234  24.241  0.00  0.00    -0.271 OA
ATOM      6  H19 non d ame     -34.923   8.055  25.023  0.00  0.00     0.163 HD
BRANCH   4   7
ATOM      7  C9  non d ame     -32.347   6.965  24.683  0.00  0.00     0.092 C 
ATOM      8  H11 non d ame     -31.337   6.944  25.092  0.00  0.00     0.088 H 
BRANCH   7   9
ATOM      9  N3  non d ame     -33.217   6.276  25.642  0.00  0.00    -0.346 N 
ATOM     10  C7  non d ame     -32.819   6.163  27.023  0.00  0.00     0.240 C 
ATOM     11  O3  non d ame     -31.803   6.620  27.381  0.00  0.00    -0.271 OA
ATOM     12  H10 non d ame     -34.096   5.876  25.347  0.00  0.00     0.163 HD
BRANCH  10  13
ATOM     13  C6  non d ame     -33.748   5.426  28.038  0.00  0.00     0.086 C 
ATOM     14  H6  non d ame     -33.194   4.950  28.847  0.00  0.00     0.086 H 
BRANCH  13  15
ATOM     15  N2  non d ame     -34.635   6.397  28.657  0.00  0.00    -0.343 N 
ATOM     16  C5  non d ame     -34.983   6.257  30.072  0.00  0.00     0.273 C 
ATOM     17  O2  non d ame     -34.547   5.359  30.704  0.00  0.00    -0.266 OA
ATOM     18  H5  non d ame     -35.005   7.160  28.108  0.00  0.00     0.163 HD
BRANCH  16  19
ATOM     19  C4  non d ame     -35.919   7.277  30.739  0.00  0.00     0.154 A 
ATOM     20  C1  non d ame     -37.328   7.421  30.533  0.00  0.00    -0.017 A 
ATOM     21  C2  non d ame     -37.710   8.491  31.373  0.00  0.00     0.077 A 
ATOM     22  H1  non d ame     -37.973   6.839  29.876  0.00  0.00     0.091 H 
ATOM     23  O1  non d ame     -36.640   8.904  31.986  0.00  0.00    -0.218 OA
ATOM     24  N1  non d ame     -35.582   8.211  31.632  0.00  0.00    -0.123 NA
BRANCH  21  25
ATOM     25  C3  non d ame     -39.115   9.054  31.533  0.00  0.00    -0.029 C 
ATOM     26  H2  non d ame     -39.735   8.727  30.699  0.00  0.00     0.036 H 
ATOM     27  H3  non d ame     -39.547   8.694  32.467  0.00  0.00     0.036 H 
ATOM     28  H4  non d ame     -39.072  10.143  31.549  0.00  0.00     0.036 H 
ENDBRANCH  21  25
ENDBRANCH  16  19
ENDBRANCH  13  15
BRANCH  13  29
ATOM     29  C8  non d ame     -34.553   4.377  27.316  0.00  0.00    -0.049 C 
ATOM     30  H7  non d ame     -33.881   3.701  26.788  0.00  0.00     0.030 H 
ATOM     31  H8  non d ame     -35.142   3.811  28.037  0.00  0.00     0.030 H 
ATOM     32  H9  non d ame     -35.220   4.859  26.600  0.00  0.00     0.030 H 
ENDBRANCH  13  29
ENDBRANCH  10  13
ENDBRANCH   7   9
BRANCH   7  33
ATOM     33  C11 non d ame     -32.435   6.251  23.302  0.00  0.00    -0.033 C 
ATOM     34  H12 non d ame     -33.173   6.784  22.703  0.00  0.00     0.042 H 
BRANCH  33  35
ATOM     35  C12 non d ame     -31.075   6.321  22.539  0.00  0.00    -0.071 C 
ATOM     36  H13 non d ame     -30.711   5.311  22.352  0.00  0.00     0.028 H 
ATOM     37  H14 non d ame     -31.215   6.839  21.591  0.00  0.00     0.028 H 
ATOM     38  H15 non d ame     -30.346   6.861  23.145  0.00  0.00     0.028 H 
ENDBRANCH  33  35
BRANCH  33  39
ATOM     39  C13 non d ame     -32.918   4.775  23.465  0.00  0.00    -0.071 C 
ATOM     40  H16 non d ame     -33.373   4.437  22.533  0.00  0.00     0.028 H 
ATOM     41  H17 non d ame     -32.067   4.138  23.708  0.00  0.00     0.028 H 
ATOM     42  H18 non d ame     -33.653   4.720  24.268  0.00  0.00     0.028 H 
ENDBRANCH  33  39
ENDBRANCH   7  33
ENDBRANCH   4   7
ENDBRANCH   1   3
BRANCH   1  43
ATOM     43  C15 non d ame     -34.383  10.881  25.971  0.00  0.00     0.240 C 
ATOM     44  O5  non d ame     -34.621  10.358  27.011  0.00  0.00    -0.271 OA
ATOM     45  N6  non d ame     -33.787  12.247  25.948  0.00  0.00    -0.355 N 
ATOM     46  H46 non d ame     -33.576  12.701  25.070  0.00  0.00     0.162 HD
BRANCH  45  47
ATOM     47  C20 non d ame     -33.504  12.945  27.221  0.00  0.00     0.013 C 
ATOM     48  H30 non d ame     -34.021  12.409  28.018  0.00  0.00     0.072 H 
BRANCH  47  49
ATOM     49  C21 non d ame     -34.014  14.366  27.137  0.00  0.00    -0.038 C 
ATOM     50  H31 non d ame     -34.387  14.485  26.119  0.00  0.00     0.036 H 
ATOM     51  H32 non d ame     -34.691  14.486  27.983  0.00  0.00     0.036 H 
BRANCH  49  52
ATOM     52  C22 non d ame     -32.896  15.415  27.319  0.00  0.00     0.018 C 
ATOM     53  H33 non d ame     -33.124  15.930  28.252  0.00  0.00     0.048 H 
ATOM     54  H34 non d ame     -31.959  14.869  27.213  0.00  0.00     0.048 H 
BRANCH  52  55
ATOM     55  C23 non d ame     -32.881  16.511  26.218  0.00  0.00     0.259 C 
ATOM     56  O7  non d ame     -33.838  17.190  26.029  0.00  0.00    -0.265 OA
BRANCH  55  57
ATOM     57  O8  non d ame     -31.712  16.686  25.425  0.00  0.00    -0.317 OA
BRANCH  57  58
ATOM     58  C29 non d ame     -31.051  15.464  25.084  0.00  0.00     0.052 C 
ATOM     59  H47 non d ame     -30.179  15.410  25.735  0.00  0.00     0.082 H 
ATOM     60  H48 non d ame     -31.817  14.691  25.132  0.00  0.00     0.082 H 
BRANCH  58  61
ATOM     61  C35 non d ame     -30.562  15.579  23.615  0.00  0.00    -0.034 A 
ATOM     62  C30 non d ame     -31.402  16.111  22.642  0.00  0.00    -0.075 A 
ATOM     63  C31 non d ame     -30.963  16.214  21.322  0.00  0.00    -0.082 A 
ATOM     64  H49 non d ame     -32.403  16.446  22.911  0.00  0.00     0.084 H 
ATOM     65  C32 non d ame     -29.679  15.781  20.978  0.00  0.00    -0.083 A 
ATOM     66  H50 non d ame     -31.622  16.633  20.561  0.00  0.00     0.083 H 
ATOM     67  C33 non d ame     -28.847  15.247  21.952  0.00  0.00    -0.082 A 
ATOM     68  H51 non d ame     -29.328  15.859  19.948  0.00  0.00     0.083 H 
ATOM     69  C34 non d ame     -29.281  15.144  23.272  0.00  0.00    -0.075 A 
ATOM     70  H52 non d ame     -27.847  14.908  21.680  0.00  0.00     0.083 H 
ATOM     71  H53 non d ame     -28.621  14.726  24.032  0.00  0.00     0.084 H 
ENDBRANCH  58  61
ENDBRANCH  57  58
ENDBRANCH  55  57
ENDBRANCH  52  55
ENDBRANCH  49  52
ENDBRANCH  47  49
BRANCH  47  72
ATOM     72  C24 non d ame     -31.999  12.957  27.480  0.00  0.00    -0.039 C 
ATOM     73  H35 non d ame     -31.548  12.525  26.586  0.00  0.00     0.036 H 
ATOM     74  H36 non d ame     -31.762  13.981  27.769  0.00  0.00     0.036 H 
BRANCH  72  75
ATOM     75  C25 non d ame     -31.602  12.014  28.713  0.00  0.00    -0.001 C 
ATOM     76  C26 non d ame     -32.939  11.664  29.603  0.00  0.00    -0.035 C 
ATOM     77  C27 non d ame     -32.682  11.940  30.904  0.00  0.00     0.085 C 
ATOM     78  H38 non d ame     -33.747  12.351  29.351  0.00  0.00     0.036 H 
ATOM     79  H39 non d ame     -33.119  10.588  29.602  0.00  0.00     0.036 H 
ATOM     80  N5  non d ame     -31.410  12.753  30.939  0.00  0.00    -0.049 N 
ATOM     81  H40 non d ame     -33.512  12.563  31.239  0.00  0.00     0.075 H 
ATOM     82  H41 non d ame     -32.501  10.975  31.376  0.00  0.00     0.075 H 
ATOM     83  C28 non d ame     -30.738  12.589  29.481  0.00  0.00     0.193 C 
ATOM     84  H42 non d ame     -31.689  13.715  31.059  0.00  0.00     0.280 HD
ATOM     85  H43 non d ame     -30.809  12.312  31.622  0.00  0.00     0.280 HD
ATOM     86  H44 non d ame     -29.879  11.933  29.338  0.00  0.00     0.129 H 
ATOM     87  H37 non d ame     -30.977  11.176  28.406  0.00  0.00     0.046 H 
BRANCH  83  88
ATOM     88  O6  non d ame     -30.334  13.864  28.978  0.00  0.00    -0.369 OA
ATOM     89  H45 non d ame     -30.750  14.019  28.127  0.00  0.00     0.212 HD
ENDBRANCH  83  88
ENDBRANCH  72  75
ENDBRANCH  47  72
ENDBRANCH  45  47
ENDBRANCH   1  43
BRANCH   1  90
ATOM     90  C16 non d ame     -36.182  10.147  24.376  0.00  0.00    -0.035 C 
ATOM     91  H21 non d ame     -36.283  10.178  23.292  0.00  0.00     0.037 H 
ATOM     92  H22 non d ame     -36.583   9.302  24.937  0.00  0.00     0.037 H 
BRANCH  90  93
ATOM     93  C17 non d ame     -36.902  11.421  24.922  0.00  0.00    -0.059 C 
ATOM     94  H23 non d ame     -36.208  11.933  25.587  0.00  0.00     0.038 H 
BRANCH  93  95
ATOM     95  C18 non d ame     -37.288  12.415  23.780  0.00  0.00    -0.073 C 
ATOM     96  H24 non d ame     -37.321  11.883  22.829  0.00  0.00     0.028 H 
ATOM     97  H25 non d ame     -38.267  12.845  23.989  0.00  0.00     0.028 H 
ATOM     98  H26 non d ame     -36.545  13.211  23.726  0.00  0.00     0.028 H 
ENDBRANCH  93  95
BRANCH  93  99
ATOM     99  C19 non d ame     -38.132  11.041  25.751  0.00  0.00    -0.073 C 
ATOM    100  H27 non d ame     -38.914  11.788  25.603  0.00  0.00     0.028 H 
ATOM    101  H28 non d ame     -38.499  10.065  25.433  0.00  0.00     0.028 H 
ATOM    102  H29 non d ame     -37.861  11.002  26.806  0.00  0.00     0.028 H 
ENDBRANCH  93  99
ENDBRANCH  90  93
ENDBRANCH   1  90
TORSDOF 26
ENDMDL
MODEL 7
REMARK VINA RESULT:      -6.3      2.497      9.069
REMARK  26 active torsions:
REMARK  status: ('A' for Active; 'I' for Inactive)
REMARK    1  A    between atoms: C2_2  and  C3_3 
REMARK    2  A    between atoms: C4_6  and  C5_7 
REMARK       I    between atoms: C5_7  and  N2_9 
REMARK    3  A    between atoms: N2_9  and  C6_10 
REMARK    4  A    between atoms: C6_10  and  C7_11 
REMARK    5  A    between atoms: C6_10  and  C8_13 
REMARK       I    between atoms: C7_11  and  N3_14 
REMARK    6  A    between atoms: N3_14  and  C9_15 
REMARK    7  A    between atoms: C9_15  and  C10_16 
REMARK    8  A    between atoms: C9_15  and  C11_18 
REMARK       I    between atoms: C10_16  and  N4_21 
REMARK    9  A    between atoms: C11_18  and  C12_19 
REMARK   10  A    between atoms: C11_18  and  C13_20 
REMARK   11  A    between atoms: N4_21  and  C14_22 
REMARK   12  A    between atoms: C14_22  and  C15_23 
REMARK   13  A    between atoms: C14_22  and  C16_25 
REMARK       I    between atoms: C15_23  and  N6_40 
REMARK   14  A    between atoms: C16_25  and  C17_26 
REMARK   15  A    between atoms: C17_26  and  C18_27 
REMARK   16  A    between atoms: C17_26  and  C19_28 
REMARK   17  A    between atoms: C20_29  and  C21_30 
REMARK   18  A    between atoms: C20_29  and  C24_33 
REMARK   19  A    between atoms: C20_29  and  N6_40 
REMARK   20  A    between atoms: C21_30  and  C22_31 
REMARK   21  A    between atoms: C22_31  and  C23_32 
REMARK   22  A    between atoms: C23_32  and  O8_43 
REMARK   23  A    between atoms: C24_33  and  C25_34 
REMARK   24  A    between atoms: C28_38  and  O6_39 
REMARK   25  A    between atoms: C29_42  and  O8_43 
REMARK   26  A    between atoms: C29_42  and  C35_49 
ROOT
ATOM      1  C14 non d ame     -32.141   9.338  24.486  0.00  0.00     0.089 C 
ATOM      2  H20 non d ame     -31.572   8.494  24.876  0.00  0.00     0.087 H 
ENDROOT
BRANCH   1   3
ATOM      3  N4  non d ame     -33.470   9.283  25.078  0.00  0.00    -0.346 N 
ATOM      4  C10 non d ame     -34.040   7.969  25.548  0.00  0.00     0.241 C 
ATOM      5  O4  non d ame     -33.413   6.968  25.438  0.00  0.00    -0.271 OA
ATOM      6  H19 non d ame     -33.989  10.146  25.161  0.00  0.00     0.163 HD
BRANCH   4   7
ATOM      7  C9  non d ame     -35.415   7.931  26.163  0.00  0.00     0.092 C 
ATOM      8  H11 non d ame     -35.572   6.959  26.629  0.00  0.00     0.088 H 
BRANCH   7   9
ATOM      9  N3  non d ame     -35.505   8.940  27.223  0.00  0.00    -0.346 N 
ATOM     10  C7  non d ame     -36.131   8.610  28.479  0.00  0.00     0.240 C 
ATOM     11  O3  non d ame     -36.568   7.538  28.655  0.00  0.00    -0.271 OA
ATOM     12  H10 non d ame     -35.134   9.869  27.085  0.00  0.00     0.163 HD
BRANCH  10  13
ATOM     13  C6  non d ame     -36.227   9.689  29.603  0.00  0.00     0.086 C 
ATOM     14  H6  non d ame     -36.206   9.258  30.604  0.00  0.00     0.086 H 
BRANCH  13  15
ATOM     15  N2  non d ame     -35.078  10.573  29.507  0.00  0.00    -0.343 N 
ATOM     16  C5  non d ame     -33.904  10.324  30.346  0.00  0.00     0.273 C 
ATOM     17  O2  non d ame     -33.894   9.412  31.098  0.00  0.00    -0.266 OA
ATOM     18  H5  non d ame     -35.095  11.352  28.865  0.00  0.00     0.163 HD
BRANCH  16  19
ATOM     19  C4  non d ame     -32.681  11.251  30.255  0.00  0.00     0.154 A 
ATOM     20  C1  non d ame     -32.328  12.111  29.167  0.00  0.00    -0.017 A 
ATOM     21  C2  non d ame     -31.131  12.740  29.576  0.00  0.00     0.077 A 
ATOM     22  H1  non d ame     -32.858  12.256  28.226  0.00  0.00     0.091 H 
ATOM     23  O1  non d ame     -30.841  12.290  30.761  0.00  0.00    -0.218 OA
ATOM     24  N1  non d ame     -31.731  11.419  31.178  0.00  0.00    -0.123 NA
BRANCH  21  25
ATOM     25  C3  non d ame     -30.330  13.760  28.778  0.00  0.00    -0.029 C 
ATOM     26  H2  non d ame     -29.275  13.491  28.800  0.00  0.00     0.036 H 
ATOM     27  H3  non d ame     -30.679  13.769  27.745  0.00  0.00     0.036 H 
ATOM     28  H4  non d ame     -30.463  14.750  29.214  0.00  0.00     0.036 H 
ENDBRANCH  21  25
ENDBRANCH  16  19
ENDBRANCH  13  15
BRANCH  13  29
ATOM     29  C8  non d ame     -37.501  10.477  29.439  0.00  0.00    -0.049 C 
ATOM     30  H7  non d ame     -37.302  11.533  29.618  0.00  0.00     0.030 H 
ATOM     31  H8  non d ame     -37.881  10.347  28.426  0.00  0.00     0.030 H 
ATOM     32  H9  non d ame     -38.243  10.121  30.155  0.00  0.00     0.030 H 
ENDBRANCH  13  29
ENDBRANCH  10  13
ENDBRANCH   7   9
BRANCH   7  33
ATOM     33  C11 non d ame     -36.480   8.236  25.069  0.00  0.00    -0.033 C 
ATOM     34  H12 non d ame     -37.420   7.790  25.391  0.00  0.00     0.042 H 
BRANCH  33  35
ATOM     35  C12 non d ame     -36.717   9.772  24.920  0.00  0.00    -0.071 C 
ATOM     36  H13 non d ame     -35.880  10.313  25.361  0.00  0.00     0.028 H 
ATOM     37  H14 non d ame     -36.798  10.027  23.864  0.00  0.00     0.028 H 
ATOM     38  H15 non d ame     -37.638  10.049  25.433  0.00  0.00     0.028 H 
ENDBRANCH  33  35
BRANCH  33  39
ATOM     39  C13 non d ame     -36.081   7.589  23.704  0.00  0.00    -0.071 C 
ATOM     40  H16 non d ame     -35.163   8.048  23.339  0.00  0.00     0.028 H 
ATOM     41  H17 non d ame     -35.925   6.518  23.841  0.00  0.00     0.028 H 
ATOM     42  H18 non d ame     -36.880   7.748  22.979  0.00  0.00     0.028 H 
ENDBRANCH  33  39
ENDBRANCH   7  33
ENDBRANCH   4   7
ENDBRANCH   1   3
BRANCH   1  43
ATOM     43  C15 non d ame     -31.492  10.704  24.855  0.00  0.00     0.240 C 
ATOM     44  O5  non d ame     -31.066  10.879  25.950  0.00  0.00    -0.271 OA
ATOM     45  N6  non d ame     -31.391  11.789  23.838  0.00  0.00    -0.355 N 
ATOM     46  H46 non d ame     -31.746  11.650  22.902  0.00  0.00     0.162 HD
BRANCH  45  47
ATOM     47  C20 non d ame     -30.770  13.081  24.204  0.00  0.00     0.013 C 
ATOM     48  H30 non d ame     -30.162  12.919  25.094  0.00  0.00     0.072 H 
BRANCH  47  49
ATOM     49  C21 non d ame     -31.855  14.093  24.496  0.00  0.00    -0.038 C 
ATOM     50  H31 non d ame     -31.857  14.775  23.645  0.00  0.00     0.036 H 
ATOM     51  H32 non d ame     -32.746  13.510  24.730  0.00  0.00     0.036 H 
BRANCH  49  52
ATOM     52  C22 non d ame     -31.554  14.951  25.744  0.00  0.00     0.018 C 
ATOM     53  H33 non d ame     -31.810  14.326  26.599  0.00  0.00     0.048 H 
ATOM     54  H34 non d ame     -30.533  15.309  25.616  0.00  0.00     0.048 H 
BRANCH  52  55
ATOM     55  C23 non d ame     -32.442  16.220  25.860  0.00  0.00     0.259 C 
ATOM     56  O7  non d ame     -32.011  17.287  25.560  0.00  0.00    -0.265 OA
BRANCH  55  57
ATOM     57  O8  non d ame     -33.775  16.097  26.342  0.00  0.00    -0.317 OA
BRANCH  57  58
ATOM     58  C29 non d ame     -34.759  15.980  25.310  0.00  0.00     0.052 C 
ATOM     59  H47 non d ame     -35.265  16.944  25.274  0.00  0.00     0.082 H 
ATOM     60  H48 non d ame     -34.227  15.610  24.435  0.00  0.00     0.082 H 
BRANCH  58  61
ATOM     61  C35 non d ame     -35.787  14.902  25.749  0.00  0.00    -0.034 A 
ATOM     62  C30 non d ame     -37.131  15.047  25.419  0.00  0.00    -0.075 A 
ATOM     63  C31 non d ame     -38.054  14.079  25.814  0.00  0.00    -0.082 A 
ATOM     64  H49 non d ame     -37.462  15.917  24.853  0.00  0.00     0.084 H 
ATOM     65  C32 non d ame     -37.629  12.965  26.543  0.00  0.00    -0.083 A 
ATOM     66  H50 non d ame     -39.107  14.194  25.552  0.00  0.00     0.083 H 
ATOM     67  C33 non d ame     -36.288  12.828  26.873  0.00  0.00    -0.082 A 
ATOM     68  H51 non d ame     -38.345  12.204  26.855  0.00  0.00     0.083 H 
ATOM     69  C34 non d ame     -35.362  13.791  26.479  0.00  0.00    -0.075 A 
ATOM     70  H52 non d ame     -35.960  11.958  27.444  0.00  0.00     0.083 H 
ATOM     71  H53 non d ame     -34.310  13.675  26.740  0.00  0.00     0.084 H 
ENDBRANCH  58  61
ENDBRANCH  57  58
ENDBRANCH  55  57
ENDBRANCH  52  55
ENDBRANCH  49  52
ENDBRANCH  47  49
BRANCH  47  72
ATOM     72  C24 non d ame     -29.902  13.580  23.052  0.00  0.00    -0.039 C 
ATOM     73  H35 non d ame     -28.936  13.818  23.499  0.00  0.00     0.036 H 
ATOM     74  H36 non d ame     -29.971  12.812  22.282  0.00  0.00     0.036 H 
BRANCH  72  75
ATOM     75  C25 non d ame     -30.477  14.935  22.420  0.00  0.00    -0.001 C 
ATOM     76  C26 non d ame     -31.055  14.647  20.909  0.00  0.00    -0.035 C 
ATOM     77  C27 non d ame     -30.511  15.546  20.054  0.00  0.00     0.085 C 
ATOM     78  H38 non d ame     -30.684  13.691  20.542  0.00  0.00     0.036 H 
ATOM     79  H39 non d ame     -32.122  14.869  20.867  0.00  0.00     0.036 H 
ATOM     80  N5  non d ame     -29.367  16.211  20.782  0.00  0.00    -0.049 N 
ATOM     81  H40 non d ame     -30.113  14.958  19.227  0.00  0.00     0.075 H 
ATOM     82  H41 non d ame     -31.292  16.283  19.871  0.00  0.00     0.075 H 
ATOM     83  C28 non d ame     -29.559  15.840  22.342  0.00  0.00     0.193 C 
ATOM     84  H42 non d ame     -28.522  15.772  20.449  0.00  0.00     0.280 HD
ATOM     85  H43 non d ame     -29.498  17.206  20.669  0.00  0.00     0.280 HD
ATOM     86  H44 non d ame     -29.950  16.579  23.042  0.00  0.00     0.129 H 
ATOM     87  H37 non d ame     -31.133  15.466  23.109  0.00  0.00     0.046 H 
BRANCH  83  88
ATOM     88  O6  non d ame     -28.319  15.401  22.900  0.00  0.00    -0.369 OA
ATOM     89  H45 non d ame     -27.730  16.153  23.001  0.00  0.00     0.212 HD
ENDBRANCH  83  88
ENDBRANCH  72  75
ENDBRANCH  47  72
ENDBRANCH  45  47
ENDBRANCH   1  43
BRANCH   1  90
ATOM     90  C16 non d ame     -32.265   9.223  22.976  0.00  0.00    -0.035 C 
ATOM     91  H21 non d ame     -33.217   8.724  22.802  0.00  0.00     0.037 H 
ATOM     92  H22 non d ame     -32.098  10.230  22.595  0.00  0.00     0.037 H 
BRANCH  90  93
ATOM     93  C17 non d ame     -31.170   8.318  22.326  0.00  0.00    -0.059 C 
ATOM     94  H23 non d ame     -31.564   7.952  21.378  0.00  0.00     0.038 H 
BRANCH  93  95
ATOM     95  C18 non d ame     -29.857   9.107  22.022  0.00  0.00    -0.073 C 
ATOM     96  H24 non d ame     -29.326   9.304  22.954  0.00  0.00     0.028 H 
ATOM     97  H25 non d ame     -29.222   8.516  21.362  0.00  0.00     0.028 H 
ATOM     98  H26 non d ame     -30.104  10.052  21.539  0.00  0.00     0.028 H 
ENDBRANCH  93  95
BRANCH  93  99
ATOM     99  C19 non d ame     -30.880   7.096  23.202  0.00  0.00    -0.073 C 
ATOM    100  H27 non d ame     -31.611   6.315  22.988  0.00  0.00     0.028 H 
ATOM    101  H28 non d ame     -29.878   6.723  22.987  0.00  0.00     0.028 H 
ATOM    102  H29 non d ame     -30.945   7.377  24.252  0.00  0.00     0.028 H 
ENDBRANCH  93  99
ENDBRANCH  90  93
ENDBRANCH   1  90
TORSDOF 26
ENDMDL
MODEL 8
REMARK VINA RESULT:      -6.2      3.534      6.760
REMARK  26 active torsions:
REMARK  status: ('A' for Active; 'I' for Inactive)
REMARK    1  A    between atoms: C2_2  and  C3_3 
REMARK    2  A    between atoms: C4_6  and  C5_7 
REMARK       I    between atoms: C5_7  and  N2_9 
REMARK    3  A    between atoms: N2_9  and  C6_10 
REMARK    4  A    between atoms: C6_10  and  C7_11 
REMARK    5  A    between atoms: C6_10  and  C8_13 
REMARK       I    between atoms: C7_11  and  N3_14 
REMARK    6  A    between atoms: N3_14  and  C9_15 
REMARK    7  A    between atoms: C9_15  and  C10_16 
REMARK    8  A    between atoms: C9_15  and  C11_18 
REMARK       I    between atoms: C10_16  and  N4_21 
REMARK    9  A    between atoms: C11_18  and  C12_19 
REMARK   10  A    between atoms: C11_18  and  C13_20 
REMARK   11  A    between atoms: N4_21  and  C14_22 
REMARK   12  A    between atoms: C14_22  and  C15_23 
REMARK   13  A    between atoms: C14_22  and  C16_25 
REMARK       I    between atoms: C15_23  and  N6_40 
REMARK   14  A    between atoms: C16_25  and  C17_26 
REMARK   15  A    between atoms: C17_26  and  C18_27 
REMARK   16  A    between atoms: C17_26  and  C19_28 
REMARK   17  A    between atoms: C20_29  and  C21_30 
REMARK   18  A    between atoms: C20_29  and  C24_33 
REMARK   19  A    between atoms: C20_29  and  N6_40 
REMARK   20  A    between atoms: C21_30  and  C22_31 
REMARK   21  A    between atoms: C22_31  and  C23_32 
REMARK   22  A    between atoms: C23_32  and  O8_43 
REMARK   23  A    between atoms: C24_33  and  C25_34 
REMARK   24  A    between atoms: C28_38  and  O6_39 
REMARK   25  A    between atoms: C29_42  and  O8_43 
REMARK   26  A    between atoms: C29_42  and  C35_49 
ROOT
ATOM      1  C14 non d ame     -33.013  10.230  28.273  0.00  0.00     0.089 C 
ATOM      2  H20 non d ame     -31.989  10.237  28.647  0.00  0.00     0.087 H 
ENDROOT
BRANCH   1   3
ATOM      3  N4  non d ame     -33.136  11.318  27.313  0.00  0.00    -0.346 N 
ATOM      4  C10 non d ame     -31.966  12.228  27.040  0.00  0.00     0.241 C 
ATOM      5  O4  non d ame     -30.935  12.068  27.605  0.00  0.00    -0.271 OA
ATOM      6  H19 non d ame     -34.022  11.439  26.845  0.00  0.00     0.163 HD
BRANCH   4   7
ATOM      7  C9  non d ame     -32.109  13.346  26.040  0.00  0.00     0.092 C 
ATOM      8  H11 non d ame     -33.134  13.368  25.671  0.00  0.00     0.088 H 
BRANCH   7   9
ATOM      9  N3  non d ame     -31.859  14.630  26.703  0.00  0.00    -0.346 N 
ATOM     10  C7  non d ame     -32.956  15.523  26.979  0.00  0.00     0.240 C 
ATOM     11  O3  non d ame     -34.047  15.226  26.675  0.00  0.00    -0.271 OA
ATOM     12  H10 non d ame     -30.923  14.900  26.969  0.00  0.00     0.163 HD
BRANCH  10  13
ATOM     13  C6  non d ame     -32.684  16.890  27.681  0.00  0.00     0.086 C 
ATOM     14  H6  non d ame     -31.948  17.495  27.154  0.00  0.00     0.086 H 
BRANCH  13  15
ATOM     15  N2  non d ame     -33.916  17.661  27.707  0.00  0.00    -0.343 N 
ATOM     16  C5  non d ame     -33.853  19.122  27.645  0.00  0.00     0.273 C 
ATOM     17  O2  non d ame     -32.807  19.669  27.579  0.00  0.00    -0.266 OA
ATOM     18  H5  non d ame     -34.805  17.186  27.767  0.00  0.00     0.163 HD
BRANCH  16  19
ATOM     19  C4  non d ame     -35.148  19.950  27.671  0.00  0.00     0.154 A 
ATOM     20  C1  non d ame     -36.264  19.783  28.549  0.00  0.00    -0.017 A 
ATOM     21  C2  non d ame     -37.183  20.784  28.164  0.00  0.00     0.077 A 
ATOM     22  H1  non d ame     -36.388  19.048  29.345  0.00  0.00     0.091 H 
ATOM     23  O1  non d ame     -36.647  21.445  27.181  0.00  0.00    -0.218 OA
ATOM     24  N1  non d ame     -35.459  20.976  26.874  0.00  0.00    -0.123 NA
BRANCH  21  25
ATOM     25  C3  non d ame     -38.547  21.044  28.788  0.00  0.00    -0.029 C 
ATOM     26  H2  non d ame     -39.324  20.902  28.036  0.00  0.00     0.036 H 
ATOM     27  H3  non d ame     -38.710  20.347  29.611  0.00  0.00     0.036 H 
ATOM     28  H4  non d ame     -38.588  22.066  29.164  0.00  0.00     0.036 H 
ENDBRANCH  21  25
ENDBRANCH  16  19
ENDBRANCH  13  15
BRANCH  13  29
ATOM     29  C8  non d ame     -32.197  16.647  29.087  0.00  0.00    -0.049 C 
ATOM     30  H7  non d ame     -32.876  17.122  29.795  0.00  0.00     0.030 H 
ATOM     31  H8  non d ame     -32.165  15.575  29.281  0.00  0.00     0.030 H 
ATOM     32  H9  non d ame     -31.198  17.068  29.203  0.00  0.00     0.030 H 
ENDBRANCH  13  29
ENDBRANCH  10  13
ENDBRANCH   7   9
BRANCH   7  33
ATOM     33  C11 non d ame     -31.076  13.149  24.891  0.00  0.00    -0.033 C 
ATOM     34  H12 non d ame     -30.082  13.165  25.337  0.00  0.00     0.042 H 
BRANCH  33  35
ATOM     35  C12 non d ame     -31.257  11.763  24.197  0.00  0.00    -0.071 C 
ATOM     36  H13 non d ame     -32.063  11.825  23.465  0.00  0.00     0.028 H 
ATOM     37  H14 non d ame     -30.331  11.483  23.696  0.00  0.00     0.028 H 
ATOM     38  H15 non d ame     -31.507  11.011  24.946  0.00  0.00     0.028 H 
ENDBRANCH  33  35
BRANCH  33  39
ATOM     39  C13 non d ame     -31.162  14.316  23.857  0.00  0.00    -0.071 C 
ATOM     40  H16 non d ame     -31.912  15.036  24.182  0.00  0.00     0.028 H 
ATOM     41  H17 non d ame     -30.192  14.809  23.783  0.00  0.00     0.028 H 
ATOM     42  H18 non d ame     -31.440  13.918  22.881  0.00  0.00     0.028 H 
ENDBRANCH  33  39
ENDBRANCH   7  33
ENDBRANCH   4   7
ENDBRANCH   1   3
BRANCH   1  43
ATOM     43  C15 non d ame     -33.366   8.895  27.556  0.00  0.00     0.240 C 
ATOM     44  O5  non d ame     -34.504   8.573  27.435  0.00  0.00    -0.271 OA
ATOM     45  N6  non d ame     -32.287   8.023  27.011  0.00  0.00    -0.355 N 
ATOM     46  H46 non d ame     -31.317   8.289  27.103  0.00  0.00     0.162 HD
BRANCH  45  47
ATOM     47  C20 non d ame     -32.640   6.758  26.332  0.00  0.00     0.013 C 
ATOM     48  H30 non d ame     -33.722   6.737  26.205  0.00  0.00     0.072 H 
BRANCH  47  49
ATOM     49  C21 non d ame     -32.196   5.591  27.185  0.00  0.00    -0.038 C 
ATOM     50  H31 non d ame     -31.579   4.970  26.535  0.00  0.00     0.036 H 
ATOM     51  H32 non d ame     -31.768   6.032  28.085  0.00  0.00     0.036 H 
BRANCH  49  52
ATOM     52  C22 non d ame     -33.374   4.706  27.649  0.00  0.00     0.018 C 
ATOM     53  H33 non d ame     -34.276   5.274  27.424  0.00  0.00     0.048 H 
ATOM     54  H34 non d ame     -33.211   3.733  27.186  0.00  0.00     0.048 H 
BRANCH  52  55
ATOM     55  C23 non d ame     -33.398   4.452  29.182  0.00  0.00     0.259 C 
ATOM     56  O7  non d ame     -32.553   3.794  29.697  0.00  0.00    -0.265 OA
BRANCH  55  57
ATOM     57  O8  non d ame     -34.452   5.002  29.963  0.00  0.00    -0.317 OA
BRANCH  57  58
ATOM     58  C29 non d ame     -35.573   5.452  29.195  0.00  0.00     0.052 C 
ATOM     59  H47 non d ame     -35.151   5.955  28.325  0.00  0.00     0.082 H 
ATOM     60  H48 non d ame     -36.211   4.579  29.065  0.00  0.00     0.082 H 
BRANCH  58  61
ATOM     61  C35 non d ame     -36.344   6.499  30.043  0.00  0.00    -0.034 A 
ATOM     62  C30 non d ame     -35.644   7.467  30.758  0.00  0.00    -0.075 A 
ATOM     63  C31 non d ame     -36.336   8.408  31.520  0.00  0.00    -0.082 A 
ATOM     64  H49 non d ame     -34.555   7.488  30.723  0.00  0.00     0.084 H 
ATOM     65  C32 non d ame     -37.732   8.377  31.567  0.00  0.00    -0.083 A 
ATOM     66  H50 non d ame     -35.785   9.166  32.078  0.00  0.00     0.083 H 
ATOM     67  C33 non d ame     -38.425   7.408  30.855  0.00  0.00    -0.082 A 
ATOM     68  H51 non d ame     -38.281   9.110  32.159  0.00  0.00     0.083 H 
ATOM     69  C34 non d ame     -37.738   6.467  30.091  0.00  0.00    -0.075 A 
ATOM     70  H52 non d ame     -39.515   7.385  30.895  0.00  0.00     0.083 H 
ATOM     71  H53 non d ame     -38.289   5.710  29.533  0.00  0.00     0.084 H 
ENDBRANCH  58  61
ENDBRANCH  57  58
ENDBRANCH  55  57
ENDBRANCH  52  55
ENDBRANCH  49  52
ENDBRANCH  47  49
BRANCH  47  72
ATOM     72  C24 non d ame     -31.946   6.691  24.973  0.00  0.00    -0.039 C 
ATOM     73  H35 non d ame     -30.886   6.563  25.196  0.00  0.00     0.036 H 
ATOM     74  H36 non d ame     -32.480   5.924  24.412  0.00  0.00     0.036 H 
BRANCH  72  75
ATOM     75  C25 non d ame     -32.097   8.063  24.161  0.00  0.00    -0.001 C 
ATOM     76  C26 non d ame     -33.534   8.087  23.365  0.00  0.00    -0.035 C 
ATOM     77  C27 non d ame     -33.309   8.396  22.065  0.00  0.00     0.085 C 
ATOM     78  H38 non d ame     -33.953   7.082  23.318  0.00  0.00     0.036 H 
ATOM     79  H39 non d ame     -34.147   8.916  23.721  0.00  0.00     0.036 H 
ATOM     80  N5  non d ame     -31.823   8.263  21.832  0.00  0.00    -0.049 N 
ATOM     81  H40 non d ame     -33.830   7.630  21.489  0.00  0.00     0.075 H 
ATOM     82  H41 non d ame     -33.593   9.442  21.961  0.00  0.00     0.075 H 
ATOM     83  C28 non d ame     -31.147   8.201  23.296  0.00  0.00     0.193 C 
ATOM     84  H42 non d ame     -31.684   7.374  21.375  0.00  0.00     0.280 HD
ATOM     85  H43 non d ame     -31.529   9.116  21.377  0.00  0.00     0.280 HD
ATOM     86  H44 non d ame     -30.632   9.071  23.705  0.00  0.00     0.129 H 
ATOM     87  H37 non d ame     -31.853   8.932  24.771  0.00  0.00     0.046 H 
BRANCH  83  88
ATOM     88  O6  non d ame     -30.202   7.132  23.358  0.00  0.00    -0.369 OA
ATOM     89  H45 non d ame     -30.570   6.354  22.931  0.00  0.00     0.212 HD
ENDBRANCH  83  88
ENDBRANCH  72  75
ENDBRANCH  47  72
ENDBRANCH  45  47
ENDBRANCH   1  43
BRANCH   1  90
ATOM     90  C16 non d ame     -33.982  10.467  29.419  0.00  0.00    -0.035 C 
ATOM     91  H21 non d ame     -34.433  11.438  29.220  0.00  0.00     0.037 H 
ATOM     92  H22 non d ame     -34.605   9.573  29.459  0.00  0.00     0.037 H 
BRANCH  90  93
ATOM     93  C17 non d ame     -33.286  10.583  30.813  0.00  0.00    -0.059 C 
ATOM     94  H23 non d ame     -33.024   9.575  31.136  0.00  0.00     0.038 H 
BRANCH  93  95
ATOM     95  C18 non d ame     -31.969  11.419  30.747  0.00  0.00    -0.073 C 
ATOM     96  H24 non d ame     -32.069  12.307  31.371  0.00  0.00     0.028 H 
ATOM     97  H25 non d ame     -31.137  10.815  31.108  0.00  0.00     0.028 H 
ATOM     98  H26 non d ame     -31.780  11.719  29.716  0.00  0.00     0.028 H 
ENDBRANCH  93  95
BRANCH  93  99
ATOM     99  C19 non d ame     -34.246  11.160  31.857  0.00  0.00    -0.073 C 
ATOM    100  H27 non d ame     -34.845  10.355  32.284  0.00  0.00     0.028 H 
ATOM    101  H28 non d ame     -33.674  11.645  32.649  0.00  0.00     0.028 H 
ATOM    102  H29 non d ame     -34.902  11.890  31.384  0.00  0.00     0.028 H 
ENDBRANCH  93  99
ENDBRANCH  90  93
ENDBRANCH   1  90
TORSDOF 26
ENDMDL
MODEL 9
REMARK VINA RESULT:      -6.1      3.039      9.285
REMARK  26 active torsions:
REMARK  status: ('A' for Active; 'I' for Inactive)
REMARK    1  A    between atoms: C2_2  and  C3_3 
REMARK    2  A    between atoms: C4_6  and  C5_7 
REMARK       I    between atoms: C5_7  and  N2_9 
REMARK    3  A    between atoms: N2_9  and  C6_10 
REMARK    4  A    between atoms: C6_10  and  C7_11 
REMARK    5  A    between atoms: C6_10  and  C8_13 
REMARK       I    between atoms: C7_11  and  N3_14 
REMARK    6  A    between atoms: N3_14  and  C9_15 
REMARK    7  A    between atoms: C9_15  and  C10_16 
REMARK    8  A    between atoms: C9_15  and  C11_18 
REMARK       I    between atoms: C10_16  and  N4_21 
REMARK    9  A    between atoms: C11_18  and  C12_19 
REMARK   10  A    between atoms: C11_18  and  C13_20 
REMARK   11  A    between atoms: N4_21  and  C14_22 
REMARK   12  A    between atoms: C14_22  and  C15_23 
REMARK   13  A    between atoms: C14_22  and  C16_25 
REMARK       I    between atoms: C15_23  and  N6_40 
REMARK   14  A    between atoms: C16_25  and  C17_26 
REMARK   15  A    between atoms: C17_26  and  C18_27 
REMARK   16  A    between atoms: C17_26  and  C19_28 
REMARK   17  A    between atoms: C20_29  and  C21_30 
REMARK   18  A    between atoms: C20_29  and  C24_33 
REMARK   19  A    between atoms: C20_29  and  N6_40 
REMARK   20  A    between atoms: C21_30  and  C22_31 
REMARK   21  A    between atoms: C22_31  and  C23_32 
REMARK   22  A    between atoms: C23_32  and  O8_43 
REMARK   23  A    between atoms: C24_33  and  C25_34 
REMARK   24  A    between atoms: C28_38  and  O6_39 
REMARK   25  A    between atoms: C29_42  and  O8_43 
REMARK   26  A    between atoms: C29_42  and  C35_49 
ROOT
ATOM      1  C14 non d ame     -32.207   9.246  25.120  0.00  0.00     0.089 C 
ATOM      2  H20 non d ame     -31.603   8.454  25.562  0.00  0.00     0.087 H 
ENDROOT
BRANCH   1   3
ATOM      3  N4  non d ame     -33.475   9.281  25.833  0.00  0.00    -0.346 N 
ATOM      4  C10 non d ame     -34.737   9.700  25.123  0.00  0.00     0.241 C 
ATOM      5  O4  non d ame     -34.708  10.008  23.977  0.00  0.00    -0.271 OA
ATOM      6  H19 non d ame     -33.479   9.018  26.808  0.00  0.00     0.163 HD
BRANCH   4   7
ATOM      7  C9  non d ame     -36.042   9.726  25.875  0.00  0.00     0.092 C 
ATOM      8  H11 non d ame     -36.452   8.717  25.916  0.00  0.00     0.088 H 
BRANCH   7   9
ATOM      9  N3  non d ame     -35.802  10.152  27.257  0.00  0.00    -0.346 N 
ATOM     10  C7  non d ame     -36.375   9.407  28.351  0.00  0.00     0.240 C 
ATOM     11  O3  non d ame     -37.032   8.462  28.137  0.00  0.00    -0.271 OA
ATOM     12  H10 non d ame     -35.238  10.966  27.456  0.00  0.00     0.163 HD
BRANCH  10  13
ATOM     13  C6  non d ame     -36.119   9.867  29.819  0.00  0.00     0.086 C 
ATOM     14  H6  non d ame     -35.819   9.048  30.472  0.00  0.00     0.086 H 
BRANCH  13  15
ATOM     15  N2  non d ame     -35.027  10.827  29.829  0.00  0.00    -0.343 N 
ATOM     16  C5  non d ame     -33.793  10.508  30.549  0.00  0.00     0.273 C 
ATOM     17  O2  non d ame     -33.688   9.478  31.119  0.00  0.00    -0.266 OA
ATOM     18  H5  non d ame     -35.127  11.706  29.342  0.00  0.00     0.163 HD
BRANCH  16  19
ATOM     19  C4  non d ame     -32.630  11.514  30.567  0.00  0.00     0.154 A 
ATOM     20  C1  non d ame     -32.556  12.762  29.872  0.00  0.00    -0.017 A 
ATOM     21  C2  non d ame     -31.296  13.297  30.218  0.00  0.00     0.077 A 
ATOM     22  H1  non d ame     -33.303  13.212  29.217  0.00  0.00     0.091 H 
ATOM     23  O1  non d ame     -30.722  12.448  31.020  0.00  0.00    -0.218 OA
ATOM     24  N1  non d ame     -31.481  11.399  31.238  0.00  0.00    -0.123 NA
BRANCH  21  25
ATOM     25  C3  non d ame     -30.717  14.622  29.743  0.00  0.00    -0.029 C 
ATOM     26  H2  non d ame     -30.106  14.455  28.856  0.00  0.00     0.036 H 
ATOM     27  H3  non d ame     -31.529  15.307  29.499  0.00  0.00     0.036 H 
ATOM     28  H4  non d ame     -30.101  15.055  30.532  0.00  0.00     0.036 H 
ENDBRANCH  21  25
ENDBRANCH  16  19
ENDBRANCH  13  15
BRANCH  13  29
ATOM     29  C8  non d ame     -37.368  10.500  30.376  0.00  0.00    -0.049 C 
ATOM     30  H7  non d ame     -37.226  11.577  30.457  0.00  0.00     0.030 H 
ATOM     31  H8  non d ame     -38.207  10.294  29.711  0.00  0.00     0.030 H 
ATOM     32  H9  non d ame     -37.577  10.086  31.363  0.00  0.00     0.030 H 
ENDBRANCH  13  29
ENDBRANCH  10  13
ENDBRANCH   7   9
BRANCH   7  33
ATOM     33  C11 non d ame     -37.016  10.728  25.188  0.00  0.00    -0.033 C 
ATOM     34  H12 non d ame     -36.608  10.962  24.205  0.00  0.00     0.042 H 
BRANCH  33  35
ATOM     35  C12 non d ame     -38.425  10.092  24.972  0.00  0.00    -0.071 C 
ATOM     36  H13 non d ame     -39.185  10.732  25.419  0.00  0.00     0.028 H 
ATOM     37  H14 non d ame     -38.618   9.990  23.904  0.00  0.00     0.028 H 
ATOM     38  H15 non d ame     -38.456   9.109  25.443  0.00  0.00     0.028 H 
ENDBRANCH  33  35
BRANCH  33  39
ATOM     39  C13 non d ame     -37.114  12.058  26.000  0.00  0.00    -0.071 C 
ATOM     40  H16 non d ame     -36.251  12.146  26.660  0.00  0.00     0.028 H 
ATOM     41  H17 non d ame     -37.133  12.904  25.312  0.00  0.00     0.028 H 
ATOM     42  H18 non d ame     -38.027  12.055  26.595  0.00  0.00     0.028 H 
ENDBRANCH  33  39
ENDBRANCH   7  33
ENDBRANCH   4   7
ENDBRANCH   1   3
BRANCH   1  43
ATOM     43  C15 non d ame     -31.529  10.641  25.249  0.00  0.00     0.240 C 
ATOM     44  O5  non d ame     -31.063  10.978  26.289  0.00  0.00    -0.271 OA
ATOM     45  N6  non d ame     -31.452  11.553  24.072  0.00  0.00    -0.355 N 
ATOM     46  H46 non d ame     -31.840  11.276  23.182  0.00  0.00     0.162 HD
BRANCH  45  47
ATOM     47  C20 non d ame     -30.803  12.875  24.211  0.00  0.00     0.013 C 
ATOM     48  H30 non d ame     -30.023  12.787  24.967  0.00  0.00     0.072 H 
BRANCH  47  49
ATOM     49  C21 non d ame     -31.832  13.894  24.645  0.00  0.00    -0.038 C 
ATOM     50  H31 non d ame     -31.697  14.750  23.983  0.00  0.00     0.036 H 
ATOM     51  H32 non d ame     -32.784  13.362  24.662  0.00  0.00     0.036 H 
BRANCH  49  52
ATOM     52  C22 non d ame     -31.596  14.410  26.081  0.00  0.00     0.018 C 
ATOM     53  H33 non d ame     -32.354  13.928  26.697  0.00  0.00     0.048 H 
ATOM     54  H34 non d ame     -30.538  14.241  26.285  0.00  0.00     0.048 H 
BRANCH  52  55
ATOM     55  C23 non d ame     -31.822  15.939  26.242  0.00  0.00     0.259 C 
ATOM     56  O7  non d ame     -31.448  16.696  25.404  0.00  0.00    -0.265 OA
BRANCH  55  57
ATOM     57  O8  non d ame     -32.471  16.429  27.410  0.00  0.00    -0.317 OA
BRANCH  57  58
ATOM     58  C29 non d ame     -33.894  16.278  27.392  0.00  0.00     0.052 C 
ATOM     59  H47 non d ame     -34.101  15.524  26.633  0.00  0.00     0.082 H 
ATOM     60  H48 non d ame     -34.185  16.104  28.427  0.00  0.00     0.082 H 
BRANCH  58  61
ATOM     61  C35 non d ame     -34.512  17.624  26.929  0.00  0.00    -0.034 A 
ATOM     62  C30 non d ame     -34.245  18.792  27.637  0.00  0.00    -0.075 A 
ATOM     63  C31 non d ame     -34.801  20.002  27.222  0.00  0.00    -0.082 A 
ATOM     64  H49 non d ame     -33.603  18.761  28.517  0.00  0.00     0.084 H 
ATOM     65  C32 non d ame     -35.627  20.040  26.096  0.00  0.00    -0.083 A 
ATOM     66  H50 non d ame     -34.589  20.916  27.778  0.00  0.00     0.083 H 
ATOM     67  C33 non d ame     -35.893  18.872  25.396  0.00  0.00    -0.082 A 
ATOM     68  H51 non d ame     -36.065  20.983  25.764  0.00  0.00     0.083 H 
ATOM     69  C34 non d ame     -35.339  17.661  25.806  0.00  0.00    -0.075 A 
ATOM     70  H52 non d ame     -36.541  18.905  24.518  0.00  0.00     0.083 H 
ATOM     71  H53 non d ame     -35.551  16.748  25.250  0.00  0.00     0.084 H 
ENDBRANCH  58  61
ENDBRANCH  57  58
ENDBRANCH  55  57
ENDBRANCH  52  55
ENDBRANCH  49  52
ENDBRANCH  47  49
BRANCH  47  72
ATOM     72  C24 non d ame     -30.200  13.297  22.873  0.00  0.00    -0.039 C 
ATOM     73  H35 non d ame     -29.146  13.019  22.930  0.00  0.00     0.036 H 
ATOM     74  H36 non d ame     -30.840  12.850  22.112  0.00  0.00     0.036 H 
BRANCH  72  75
ATOM     75  C25 non d ame     -30.260  14.884  22.669  0.00  0.00    -0.001 C 
ATOM     76  C26 non d ame     -31.293  15.252  21.445  0.00  0.00    -0.035 C 
ATOM     77  C27 non d ame     -30.662  16.075  20.573  0.00  0.00     0.085 C 
ATOM     78  H38 non d ame     -31.501  14.363  20.850  0.00  0.00     0.036 H 
ATOM     79  H39 non d ame     -32.116  15.862  21.819  0.00  0.00     0.036 H 
ATOM     80  N5  non d ame     -29.192  16.039  20.918  0.00  0.00    -0.049 N 
ATOM     81  H40 non d ame     -30.808  15.626  19.590  0.00  0.00     0.075 H 
ATOM     82  H41 non d ame     -31.050  17.071  20.779  0.00  0.00     0.075 H 
ATOM     83  C28 non d ame     -29.096  15.363  22.380  0.00  0.00     0.193 C 
ATOM     84  H42 non d ame     -28.757  15.420  20.249  0.00  0.00     0.280 HD
ATOM     85  H43 non d ame     -28.892  17.001  20.987  0.00  0.00     0.280 HD
ATOM     86  H44 non d ame     -28.910  15.977  23.262  0.00  0.00     0.129 H 
ATOM     87  H37 non d ame     -30.397  15.416  23.610  0.00  0.00     0.046 H 
BRANCH  83  88
ATOM     88  O6  non d ame     -28.081  14.357  22.393  0.00  0.00    -0.369 OA
ATOM     89  H45 non d ame     -27.237  14.752  22.161  0.00  0.00     0.212 HD
ENDBRANCH  83  88
ENDBRANCH  72  75
ENDBRANCH  47  72
ENDBRANCH  45  47
ENDBRANCH   1  43
BRANCH   1  90
ATOM     90  C16 non d ame     -32.468   8.939  23.654  0.00  0.00    -0.035 C 
ATOM     91  H21 non d ame     -33.457   8.483  23.627  0.00  0.00     0.037 H 
ATOM     92  H22 non d ame     -32.284   9.874  23.126  0.00  0.00     0.037 H 
BRANCH  90  93
ATOM     93  C17 non d ame     -31.482   7.888  23.050  0.00  0.00    -0.059 C 
ATOM     94  H23 non d ame     -30.480   8.314  23.093  0.00  0.00     0.038 H 
BRANCH  93  95
ATOM     95  C18 non d ame     -31.468   6.556  23.865  0.00  0.00    -0.073 C 
ATOM     96  H24 non d ame     -31.225   5.726  23.202  0.00  0.00     0.028 H 
ATOM     97  H25 non d ame     -30.719   6.620  24.654  0.00  0.00     0.028 H 
ATOM     98  H26 non d ame     -32.450   6.391  24.309  0.00  0.00     0.028 H 
ENDBRANCH  93  95
BRANCH  93  99
ATOM     99  C19 non d ame     -31.802   7.622  21.577  0.00  0.00    -0.073 C 
ATOM    100  H27 non d ame     -32.754   8.090  21.322  0.00  0.00     0.028 H 
ATOM    101  H28 non d ame     -31.014   8.041  20.951  0.00  0.00     0.028 H 
ATOM    102  H29 non d ame     -31.868   6.547  21.408  0.00  0.00     0.028 H 
ENDBRANCH  93  99
ENDBRANCH  90  93
ENDBRANCH   1  90
TORSDOF 26
ENDMDL
MODEL 10
REMARK VINA RESULT:      -6.1      2.530      6.224
REMARK  26 active torsions:
REMARK  status: ('A' for Active; 'I' for Inactive)
REMARK    1  A    between atoms: C2_2  and  C3_3 
REMARK    2  A    between atoms: C4_6  and  C5_7 
REMARK       I    between atoms: C5_7  and  N2_9 
REMARK    3  A    between atoms: N2_9  and  C6_10 
REMARK    4  A    between atoms: C6_10  and  C7_11 
REMARK    5  A    between atoms: C6_10  and  C8_13 
REMARK       I    between atoms: C7_11  and  N3_14 
REMARK    6  A    between atoms: N3_14  and  C9_15 
REMARK    7  A    between atoms: C9_15  and  C10_16 
REMARK    8  A    between atoms: C9_15  and  C11_18 
REMARK       I    between atoms: C10_16  and  N4_21 
REMARK    9  A    between atoms: C11_18  and  C12_19 
REMARK   10  A    between atoms: C11_18  and  C13_20 
REMARK   11  A    between atoms: N4_21  and  C14_22 
REMARK   12  A    between atoms: C14_22  and  C15_23 
REMARK   13  A    between atoms: C14_22  and  C16_25 
REMARK       I    between atoms: C15_23  and  N6_40 
REMARK   14  A    between atoms: C16_25  and  C17_26 
REMARK   15  A    between atoms: C17_26  and  C18_27 
REMARK   16  A    between atoms: C17_26  and  C19_28 
REMARK   17  A    between atoms: C20_29  and  C21_30 
REMARK   18  A    between atoms: C20_29  and  C24_33 
REMARK   19  A    between atoms: C20_29  and  N6_40 
REMARK   20  A    between atoms: C21_30  and  C22_31 
REMARK   21  A    between atoms: C22_31  and  C23_32 
REMARK   22  A    between atoms: C23_32  and  O8_43 
REMARK   23  A    between atoms: C24_33  and  C25_34 
REMARK   24  A    between atoms: C28_38  and  O6_39 
REMARK   25  A    between atoms: C29_42  and  O8_43 
REMARK   26  A    between atoms: C29_42  and  C35_49 
ROOT
ATOM      1  C14 non d ame     -34.467   9.465  27.429  0.00  0.00     0.089 C 
ATOM      2  H20 non d ame     -33.518   9.910  27.728  0.00  0.00     0.087 H 
ENDROOT
BRANCH   1   3
ATOM      3  N4  non d ame     -35.379  10.553  27.109  0.00  0.00    -0.346 N 
ATOM      4  C10 non d ame     -35.039  11.537  26.019  0.00  0.00     0.241 C 
ATOM      5  O4  non d ame     -34.023  11.434  25.413  0.00  0.00    -0.271 OA
ATOM      6  H19 non d ame     -36.237  10.624  27.638  0.00  0.00     0.163 HD
BRANCH   4   7
ATOM      7  C9  non d ame     -35.997  12.654  25.697  0.00  0.00     0.092 C 
ATOM      8  H11 non d ame     -36.623  12.851  26.567  0.00  0.00     0.088 H 
BRANCH   7   9
ATOM      9  N3  non d ame     -35.242  13.880  25.419  0.00  0.00    -0.346 N 
ATOM     10  C7  non d ame     -35.337  15.003  26.318  0.00  0.00     0.240 C 
ATOM     11  O3  non d ame     -36.016  14.939  27.269  0.00  0.00    -0.271 OA
ATOM     12  H10 non d ame     -34.654  13.951  24.602  0.00  0.00     0.163 HD
BRANCH  10  13
ATOM     13  C6  non d ame     -34.535  16.307  26.016  0.00  0.00     0.086 C 
ATOM     14  H6  non d ame     -33.899  16.612  26.846  0.00  0.00     0.086 H 
BRANCH  13  15
ATOM     15  N2  non d ame     -33.655  16.068  24.884  0.00  0.00    -0.343 N 
ATOM     16  C5  non d ame     -32.217  15.909  25.109  0.00  0.00     0.273 C 
ATOM     17  O2  non d ame     -31.776  15.979  26.204  0.00  0.00    -0.266 OA
ATOM     18  H5  non d ame     -34.039  16.012  23.952  0.00  0.00     0.163 HD
BRANCH  16  19
ATOM     19  C4  non d ame     -31.275  15.655  23.921  0.00  0.00     0.154 A 
ATOM     20  C1  non d ame     -31.389  16.186  22.598  0.00  0.00    -0.017 A 
ATOM     21  C2  non d ame     -30.286  15.653  21.896  0.00  0.00     0.077 A 
ATOM     22  H1  non d ame     -32.155  16.857  22.208  0.00  0.00     0.091 H 
ATOM     23  O1  non d ame     -29.622  14.905  22.727  0.00  0.00    -0.218 OA
ATOM     24  N1  non d ame     -30.180  14.890  23.916  0.00  0.00    -0.123 NA
BRANCH  21  25
ATOM     25  C3  non d ame     -29.938  15.908  20.436  0.00  0.00    -0.029 C 
ATOM     26  H2  non d ame     -29.899  16.981  20.253  0.00  0.00     0.036 H 
ATOM     27  H3  non d ame     -28.966  15.467  20.211  0.00  0.00     0.036 H 
ATOM     28  H4  non d ame     -30.697  15.458  19.796  0.00  0.00     0.036 H 
ENDBRANCH  21  25
ENDBRANCH  16  19
ENDBRANCH  13  15
BRANCH  13  29
ATOM     29  C8  non d ame     -35.492  17.427  25.699  0.00  0.00    -0.049 C 
ATOM     30  H7  non d ame     -35.897  17.833  26.625  0.00  0.00     0.030 H 
ATOM     31  H8  non d ame     -34.965  18.214  25.158  0.00  0.00     0.030 H 
ATOM     32  H9  non d ame     -36.307  17.045  25.082  0.00  0.00     0.030 H 
ENDBRANCH  13  29
ENDBRANCH  10  13
ENDBRANCH   7   9
BRANCH   7  33
ATOM     33  C11 non d ame     -36.837  12.271  24.444  0.00  0.00    -0.033 C 
ATOM     34  H12 non d ame     -36.147  12.146  23.610  0.00  0.00     0.042 H 
BRANCH  33  35
ATOM     35  C12 non d ame     -37.575  10.911  24.649  0.00  0.00    -0.071 C 
ATOM     36  H13 non d ame     -38.521  10.925  24.106  0.00  0.00     0.028 H 
ATOM     37  H14 non d ame     -36.953  10.099  24.275  0.00  0.00     0.028 H 
ATOM     38  H15 non d ame     -37.771  10.761  25.711  0.00  0.00     0.028 H 
ENDBRANCH  33  35
BRANCH  33  39
ATOM     39  C13 non d ame     -37.840  13.410  24.073  0.00  0.00    -0.071 C 
ATOM     40  H16 non d ame     -37.453  13.973  23.224  0.00  0.00     0.028 H 
ATOM     41  H17 non d ame     -38.805  12.974  23.812  0.00  0.00     0.028 H 
ATOM     42  H18 non d ame     -37.963  14.077  24.926  0.00  0.00     0.028 H 
ENDBRANCH  33  39
ENDBRANCH   7  33
ENDBRANCH   4   7
ENDBRANCH   1   3
BRANCH   1  43
ATOM     43  C15 non d ame     -34.320   8.557  26.174  0.00  0.00     0.240 C 
ATOM     44  O5  non d ame     -35.221   7.858  25.842  0.00  0.00    -0.271 OA
ATOM     45  N6  non d ame     -33.058   8.566  25.381  0.00  0.00    -0.355 N 
ATOM     46  H46 non d ame     -32.286   9.160  25.651  0.00  0.00     0.162 HD
BRANCH  45  47
ATOM     47  C20 non d ame     -32.934   7.697  24.190  0.00  0.00     0.013 C 
ATOM     48  H30 non d ame     -33.924   7.306  23.958  0.00  0.00     0.072 H 
BRANCH  47  49
ATOM     49  C21 non d ame     -31.986   6.560  24.497  0.00  0.00    -0.038 C 
ATOM     50  H31 non d ame     -31.677   6.166  23.529  0.00  0.00     0.036 H 
ATOM     51  H32 non d ame     -31.243   6.973  25.180  0.00  0.00     0.036 H 
BRANCH  49  52
ATOM     52  C22 non d ame     -32.669   5.396  25.247  0.00  0.00     0.018 C 
ATOM     53  H33 non d ame     -33.734   5.497  25.041  0.00  0.00     0.048 H 
ATOM     54  H34 non d ame     -32.138   4.495  24.939  0.00  0.00     0.048 H 
BRANCH  52  55
ATOM     55  C23 non d ame     -32.521   5.473  26.791  0.00  0.00     0.259 C 
ATOM     56  O7  non d ame     -31.807   6.283  27.289  0.00  0.00    -0.265 OA
BRANCH  55  57
ATOM     57  O8  non d ame     -33.240   4.555  27.607  0.00  0.00    -0.317 OA
BRANCH  57  58
ATOM     58  C29 non d ame     -34.662   4.664  27.494  0.00  0.00     0.052 C 
ATOM     59  H47 non d ame     -34.840   5.486  26.801  0.00  0.00     0.082 H 
ATOM     60  H48 non d ame     -35.017   3.663  27.256  0.00  0.00     0.082 H 
BRANCH  58  61
ATOM     61  C35 non d ame     -35.223   5.064  28.885  0.00  0.00    -0.034 A 
ATOM     62  C30 non d ame     -34.389   5.062  29.999  0.00  0.00    -0.075 A 
ATOM     63  C31 non d ame     -34.893   5.421  31.248  0.00  0.00    -0.082 A 
ATOM     64  H49 non d ame     -33.342   4.779  29.894  0.00  0.00     0.084 H 
ATOM     65  C32 non d ame     -36.237   5.781  31.382  0.00  0.00    -0.083 A 
ATOM     66  H50 non d ame     -34.236   5.420  32.120  0.00  0.00     0.083 H 
ATOM     67  C33 non d ame     -37.065   5.778  30.268  0.00  0.00    -0.082 A 
ATOM     68  H51 non d ame     -36.638   6.064  32.355  0.00  0.00     0.083 H 
ATOM     69  C34 non d ame     -36.566   5.422  29.017  0.00  0.00    -0.075 A 
ATOM     70  H52 non d ame     -38.114   6.057  30.376  0.00  0.00     0.083 H 
ATOM     71  H53 non d ame     -37.222   5.424  28.147  0.00  0.00     0.084 H 
ENDBRANCH  58  61
ENDBRANCH  57  58
ENDBRANCH  55  57
ENDBRANCH  52  55
ENDBRANCH  49  52
ENDBRANCH  47  49
BRANCH  47  72
ATOM     72  C24 non d ame     -32.395   8.508  23.014  0.00  0.00    -0.039 C 
ATOM     73  H35 non d ame     -32.365   7.814  22.173  0.00  0.00     0.036 H 
ATOM     74  H36 non d ame     -33.024   9.398  22.962  0.00  0.00     0.036 H 
BRANCH  72  75
ATOM     75  C25 non d ame     -30.895   9.004  23.273  0.00  0.00    -0.001 C 
ATOM     76  C26 non d ame     -30.874  10.633  23.496  0.00  0.00    -0.035 C 
ATOM     77  C27 non d ame     -29.948  11.176  22.670  0.00  0.00     0.085 C 
ATOM     78  H38 non d ame     -31.811  11.070  23.151  0.00  0.00     0.036 H 
ATOM     79  H39 non d ame     -30.497  10.870  24.492  0.00  0.00     0.036 H 
ATOM     80  N5  non d ame     -29.567  10.108  21.672  0.00  0.00    -0.049 N 
ATOM     81  H40 non d ame     -30.461  11.984  22.148  0.00  0.00     0.075 H 
ATOM     82  H41 non d ame     -29.088  11.395  23.301  0.00  0.00     0.075 H 
ATOM     83  C28 non d ame     -30.129   8.719  22.273  0.00  0.00     0.193 C 
ATOM     84  H42 non d ame     -30.070  10.318  20.823  0.00  0.00     0.280 HD
ATOM     85  H43 non d ame     -28.558  10.071  21.666  0.00  0.00     0.280 HD
ATOM     86  H44 non d ame     -29.451   8.004  22.741  0.00  0.00     0.129 H 
ATOM     87  H37 non d ame     -30.381   8.395  24.016  0.00  0.00     0.046 H 
BRANCH  83  88
ATOM     88  O6  non d ame     -30.818   7.986  21.258  0.00  0.00    -0.369 OA
ATOM     89  H45 non d ame     -30.463   8.220  20.397  0.00  0.00     0.212 HD
ENDBRANCH  83  88
ENDBRANCH  72  75
ENDBRANCH  47  72
ENDBRANCH  45  47
ENDBRANCH   1  43
BRANCH   1  90
ATOM     90  C16 non d ame     -35.042   8.656  28.581  0.00  0.00    -0.035 C 
ATOM     91  H21 non d ame     -35.997   8.278  28.218  0.00  0.00     0.037 H 
ATOM     92  H22 non d ame     -34.253   7.961  28.867  0.00  0.00     0.037 H 
BRANCH  90  93
ATOM     93  C17 non d ame     -35.360   9.511  29.849  0.00  0.00    -0.059 C 
ATOM     94  H23 non d ame     -35.145  10.552  29.607  0.00  0.00     0.038 H 
BRANCH  93  95
ATOM     95  C18 non d ame     -36.864   9.419  30.260  0.00  0.00    -0.073 C 
ATOM     96  H24 non d ame     -37.351   8.631  29.686  0.00  0.00     0.028 H 
ATOM     97  H25 non d ame     -36.936   9.191  31.323  0.00  0.00     0.028 H 
ATOM     98  H26 non d ame     -37.355  10.372  30.059  0.00  0.00     0.028 H 
ENDBRANCH  93  95
BRANCH  93  99
ATOM     99  C19 non d ame     -34.451   9.117  31.016  0.00  0.00    -0.073 C 
ATOM    100  H27 non d ame     -34.681   8.097  31.326  0.00  0.00     0.028 H 
ATOM    101  H28 non d ame     -33.409   9.174  30.702  0.00  0.00     0.028 H 
ATOM    102  H29 non d ame     -34.617   9.797  31.852  0.00  0.00     0.028 H 
ENDBRANCH  93  99
ENDBRANCH  90  93
ENDBRANCH   1  90
TORSDOF 26
ENDMDL
MODEL 11
REMARK VINA RESULT:      -6.0      1.789      2.215
REMARK  26 active torsions:
REMARK  status: ('A' for Active; 'I' for Inactive)
REMARK    1  A    between atoms: C2_2  and  C3_3 
REMARK    2  A    between atoms: C4_6  and  C5_7 
REMARK       I    between atoms: C5_7  and  N2_9 
REMARK    3  A    between atoms: N2_9  and  C6_10 
REMARK    4  A    between atoms: C6_10  and  C7_11 
REMARK    5  A    between atoms: C6_10  and  C8_13 
REMARK       I    between atoms: C7_11  and  N3_14 
REMARK    6  A    between atoms: N3_14  and  C9_15 
REMARK    7  A    between atoms: C9_15  and  C10_16 
REMARK    8  A    between atoms: C9_15  and  C11_18 
REMARK       I    between atoms: C10_16  and  N4_21 
REMARK    9  A    between atoms: C11_18  and  C12_19 
REMARK   10  A    between atoms: C11_18  and  C13_20 
REMARK   11  A    between atoms: N4_21  and  C14_22 
REMARK   12  A    between atoms: C14_22  and  C15_23 
REMARK   13  A    between atoms: C14_22  and  C16_25 
REMARK       I    between atoms: C15_23  and  N6_40 
REMARK   14  A    between atoms: C16_25  and  C17_26 
REMARK   15  A    between atoms: C17_26  and  C18_27 
REMARK   16  A    between atoms: C17_26  and  C19_28 
REMARK   17  A    between atoms: C20_29  and  C21_30 
REMARK   18  A    between atoms: C20_29  and  C24_33 
REMARK   19  A    between atoms: C20_29  and  N6_40 
REMARK   20  A    between atoms: C21_30  and  C22_31 
REMARK   21  A    between atoms: C22_31  and  C23_32 
REMARK   22  A    between atoms: C23_32  and  O8_43 
REMARK   23  A    between atoms: C24_33  and  C25_34 
REMARK   24  A    between atoms: C28_38  and  O6_39 
REMARK   25  A    between atoms: C29_42  and  O8_43 
REMARK   26  A    between atoms: C29_42  and  C35_49 
ROOT
ATOM      1  C14 non d ame     -34.863   8.937  30.013  0.00  0.00     0.089 C 
ATOM      2  H20 non d ame     -35.000   9.334  31.019  0.00  0.00     0.087 H 
ENDROOT
BRANCH   1   3
ATOM      3  N4  non d ame     -33.677   9.567  29.452  0.00  0.00    -0.346 N 
ATOM      4  C10 non d ame     -33.206  10.902  29.970  0.00  0.00     0.241 C 
ATOM      5  O4  non d ame     -33.798  11.452  30.839  0.00  0.00    -0.271 OA
ATOM      6  H19 non d ame     -33.189   9.084  28.711  0.00  0.00     0.163 HD
BRANCH   4   7
ATOM      7  C9  non d ame     -31.974  11.537  29.380  0.00  0.00     0.092 C 
ATOM      8  H11 non d ame     -31.284  10.756  29.063  0.00  0.00     0.088 H 
BRANCH   7   9
ATOM      9  N3  non d ame     -32.342  12.301  28.184  0.00  0.00    -0.346 N 
ATOM     10  C7  non d ame     -31.800  11.934  26.899  0.00  0.00     0.240 C 
ATOM     11  O3  non d ame     -31.065  11.027  26.810  0.00  0.00    -0.271 OA
ATOM     12  H10 non d ame     -32.974  13.086  28.246  0.00  0.00     0.163 HD
BRANCH  10  13
ATOM     13  C6  non d ame     -32.193  12.752  25.630  0.00  0.00     0.086 C 
ATOM     14  H6  non d ame     -33.231  12.600  25.336  0.00  0.00     0.086 H 
BRANCH  13  15
ATOM     15  N2  non d ame     -32.046  14.169  25.918  0.00  0.00    -0.343 N 
ATOM     16  C5  non d ame     -33.206  15.054  25.796  0.00  0.00     0.273 C 
ATOM     17  O2  non d ame     -34.252  14.618  25.462  0.00  0.00    -0.266 OA
ATOM     18  H5  non d ame     -31.147  14.534  26.200  0.00  0.00     0.163 HD
BRANCH  16  19
ATOM     19  C4  non d ame     -33.064  16.555  26.098  0.00  0.00     0.154 A 
ATOM     20  C1  non d ame     -34.117  17.485  26.370  0.00  0.00    -0.017 A 
ATOM     21  C2  non d ame     -33.464  18.720  26.579  0.00  0.00     0.077 A 
ATOM     22  H1  non d ame     -35.189  17.293  26.411  0.00  0.00     0.091 H 
ATOM     23  O1  non d ame     -32.188  18.513  26.442  0.00  0.00    -0.218 OA
ATOM     24  N1  non d ame     -31.930  17.256  26.161  0.00  0.00    -0.123 NA
BRANCH  21  25
ATOM     25  C3  non d ame     -34.133  20.049  26.906  0.00  0.00    -0.029 C 
ATOM     26  H2  non d ame     -35.183  19.879  27.141  0.00  0.00     0.036 H 
ATOM     27  H3  non d ame     -33.639  20.503  27.765  0.00  0.00     0.036 H 
ATOM     28  H4  non d ame     -34.056  20.716  26.048  0.00  0.00     0.036 H 
ENDBRANCH  21  25
ENDBRANCH  16  19
ENDBRANCH  13  15
BRANCH  13  29
ATOM     29  C8  non d ame     -31.299  12.363  24.481  0.00  0.00    -0.049 C 
ATOM     30  H7  non d ame     -31.073  13.243  23.881  0.00  0.00     0.030 H 
ATOM     31  H8  non d ame     -30.372  11.940  24.868  0.00  0.00     0.030 H 
ATOM     32  H9  non d ame     -31.806  11.621  23.862  0.00  0.00     0.030 H 
ENDBRANCH  13  29
ENDBRANCH  10  13
ENDBRANCH   7   9
BRANCH   7  33
ATOM     33  C11 non d ame     -31.334  12.496  30.427  0.00  0.00    -0.033 C 
ATOM     34  H12 non d ame     -32.039  12.601  31.251  0.00  0.00     0.042 H 
BRANCH  33  35
ATOM     35  C12 non d ame     -30.015  11.900  31.011  0.00  0.00    -0.071 C 
ATOM     36  H13 non d ame     -29.160  12.434  30.596  0.00  0.00     0.028 H 
ATOM     37  H14 non d ame     -30.017  12.004  32.095  0.00  0.00     0.028 H 
ATOM     38  H15 non d ame     -29.945  10.845  30.746  0.00  0.00     0.028 H 
ENDBRANCH  33  35
BRANCH  33  39
ATOM     39  C13 non d ame     -31.093  13.913  29.814  0.00  0.00    -0.071 C 
ATOM     40  H16 non d ame     -31.944  14.189  29.192  0.00  0.00     0.028 H 
ATOM     41  H17 non d ame     -30.977  14.642  30.617  0.00  0.00     0.028 H 
ATOM     42  H18 non d ame     -30.189  13.897  29.206  0.00  0.00     0.028 H 
ENDBRANCH  33  39
ENDBRANCH   7  33
ENDBRANCH   4   7
ENDBRANCH   1   3
BRANCH   1  43
ATOM     43  C15 non d ame     -34.651   7.396  30.015  0.00  0.00     0.240 C 
ATOM     44  O5  non d ame     -34.821   6.777  31.016  0.00  0.00    -0.271 OA
ATOM     45  N6  non d ame     -34.246   6.689  28.767  0.00  0.00    -0.355 N 
ATOM     46  H46 non d ame     -34.104   7.204  27.909  0.00  0.00     0.162 HD
BRANCH  45  47
ATOM     47  C20 non d ame     -34.050   5.223  28.785  0.00  0.00     0.013 C 
ATOM     48  H30 non d ame     -33.879   4.922  29.819  0.00  0.00     0.072 H 
BRANCH  47  49
ATOM     49  C21 non d ame     -32.849   4.869  27.937  0.00  0.00    -0.038 C 
ATOM     50  H31 non d ame     -31.990   4.927  28.605  0.00  0.00     0.036 H 
ATOM     51  H32 non d ame     -33.100   3.925  27.452  0.00  0.00     0.036 H 
BRANCH  49  52
ATOM     52  C22 non d ame     -32.593   5.887  26.805  0.00  0.00     0.018 C 
ATOM     53  H33 non d ame     -33.333   6.675  26.944  0.00  0.00     0.048 H 
ATOM     54  H34 non d ame     -31.530   6.122  26.855  0.00  0.00     0.048 H 
BRANCH  52  55
ATOM     55  C23 non d ame     -32.839   5.315  25.381  0.00  0.00     0.259 C 
ATOM     56  O7  non d ame     -33.688   4.503  25.196  0.00  0.00    -0.265 OA
BRANCH  55  57
ATOM     57  O8  non d ame     -32.029   5.762  24.301  0.00  0.00    -0.317 OA
BRANCH  57  58
ATOM     58  C29 non d ame     -32.355   7.074  23.832  0.00  0.00     0.052 C 
ATOM     59  H47 non d ame     -33.103   6.930  23.052  0.00  0.00     0.082 H 
ATOM     60  H48 non d ame     -32.598   7.654  24.721  0.00  0.00     0.082 H 
BRANCH  58  61
ATOM     61  C35 non d ame     -31.081   7.681  23.184  0.00  0.00    -0.034 A 
ATOM     62  C30 non d ame     -29.934   6.905  23.047  0.00  0.00    -0.075 A 
ATOM     63  C31 non d ame     -28.789   7.450  22.467  0.00  0.00    -0.082 A 
ATOM     64  H49 non d ame     -29.930   5.872  23.395  0.00  0.00     0.084 H 
ATOM     65  C32 non d ame     -28.794   8.776  22.024  0.00  0.00    -0.083 A 
ATOM     66  H50 non d ame     -27.891   6.840  22.359  0.00  0.00     0.083 H 
ATOM     67  C33 non d ame     -29.941   9.546  22.166  0.00  0.00    -0.082 A 
ATOM     68  H51 non d ame     -27.904   9.209  21.568  0.00  0.00     0.083 H 
ATOM     69  C34 non d ame     -31.087   9.005  22.745  0.00  0.00    -0.075 A 
ATOM     70  H52 non d ame     -29.941  10.581  21.822  0.00  0.00     0.083 H 
ATOM     71  H53 non d ame     -31.984   9.615  22.851  0.00  0.00     0.084 H 
ENDBRANCH  58  61
ENDBRANCH  57  58
ENDBRANCH  55  57
ENDBRANCH  52  55
ENDBRANCH  49  52
ENDBRANCH  47  49
BRANCH  47  72
ATOM     72  C24 non d ame     -35.291   4.530  28.228  0.00  0.00    -0.039 C 
ATOM     73  H35 non d ame     -35.017   4.210  27.222  0.00  0.00     0.036 H 
ATOM     74  H36 non d ame     -35.570   3.788  28.978  0.00  0.00     0.036 H 
BRANCH  72  75
ATOM     75  C25 non d ame     -36.523   5.543  28.085  0.00  0.00    -0.001 C 
ATOM     76  C26 non d ame     -37.592   5.303  29.310  0.00  0.00    -0.035 C 
ATOM     77  C27 non d ame     -38.831   5.148  28.785  0.00  0.00     0.085 C 
ATOM     78  H38 non d ame     -37.399   4.345  29.793  0.00  0.00     0.036 H 
ATOM     79  H39 non d ame     -37.681   6.208  29.912  0.00  0.00     0.036 H 
ATOM     80  N5  non d ame     -38.657   4.935  27.300  0.00  0.00    -0.049 N 
ATOM     81  H40 non d ame     -39.225   4.236  29.233  0.00  0.00     0.075 H 
ATOM     82  H41 non d ame     -39.338   6.098  28.950  0.00  0.00     0.075 H 
ATOM     83  C28 non d ame     -37.140   5.372  26.964  0.00  0.00     0.193 C 
ATOM     84  H42 non d ame     -38.748   3.942  27.142  0.00  0.00     0.280 HD
ATOM     85  H43 non d ame     -39.287   5.579  26.845  0.00  0.00     0.280 HD
ATOM     86  H44 non d ame     -36.935   6.326  26.477  0.00  0.00     0.129 H 
ATOM     87  H37 non d ame     -36.196   6.567  27.905  0.00  0.00     0.046 H 
BRANCH  83  88
ATOM     88  O6  non d ame     -36.512   4.382  26.147  0.00  0.00    -0.369 OA
ATOM     89  H45 non d ame     -37.145   3.691  25.937  0.00  0.00     0.212 HD
ENDBRANCH  83  88
ENDBRANCH  72  75
ENDBRANCH  47  72
ENDBRANCH  45  47
ENDBRANCH   1  43
BRANCH   1  90
ATOM     90  C16 non d ame     -36.067   9.287  29.153  0.00  0.00    -0.035 C 
ATOM     91  H21 non d ame     -35.754  10.138  28.552  0.00  0.00     0.037 H 
ATOM     92  H22 non d ame     -36.356   8.353  28.669  0.00  0.00     0.037 H 
BRANCH  90  93
ATOM     93  C17 non d ame     -37.307   9.761  29.976  0.00  0.00    -0.059 C 
ATOM     94  H23 non d ame     -37.579  10.755  29.620  0.00  0.00     0.038 H 
BRANCH  93  95
ATOM     95  C18 non d ame     -38.543   8.828  29.770  0.00  0.00    -0.073 C 
ATOM     96  H24 non d ame     -38.321   8.096  28.992  0.00  0.00     0.028 H 
ATOM     97  H25 non d ame     -38.766   8.309  30.702  0.00  0.00     0.028 H 
ATOM     98  H26 non d ame     -39.404   9.425  29.471  0.00  0.00     0.028 H 
ENDBRANCH  93  95
BRANCH  93  99
ATOM     99  C19 non d ame     -36.962   9.887  31.462  0.00  0.00    -0.073 C 
ATOM    100  H27 non d ame     -36.432   8.991  31.789  0.00  0.00     0.028 H 
ATOM    101  H28 non d ame     -36.328  10.760  31.616  0.00  0.00     0.028 H 
ATOM    102  H29 non d ame     -37.880   9.997  32.040  0.00  0.00     0.028 H 
ENDBRANCH  93  99
ENDBRANCH  90  93
ENDBRANCH   1  90
TORSDOF 26
ENDMDL
MODEL 12
REMARK VINA RESULT:      -5.9      2.769      8.553
REMARK  26 active torsions:
REMARK  status: ('A' for Active; 'I' for Inactive)
REMARK    1  A    between atoms: C2_2  and  C3_3 
REMARK    2  A    between atoms: C4_6  and  C5_7 
REMARK       I    between atoms: C5_7  and  N2_9 
REMARK    3  A    between atoms: N2_9  and  C6_10 
REMARK    4  A    between atoms: C6_10  and  C7_11 
REMARK    5  A    between atoms: C6_10  and  C8_13 
REMARK       I    between atoms: C7_11  and  N3_14 
REMARK    6  A    between atoms: N3_14  and  C9_15 
REMARK    7  A    between atoms: C9_15  and  C10_16 
REMARK    8  A    between atoms: C9_15  and  C11_18 
REMARK       I    between atoms: C10_16  and  N4_21 
REMARK    9  A    between atoms: C11_18  and  C12_19 
REMARK   10  A    between atoms: C11_18  and  C13_20 
REMARK   11  A    between atoms: N4_21  and  C14_22 
REMARK   12  A    between atoms: C14_22  and  C15_23 
REMARK   13  A    between atoms: C14_22  and  C16_25 
REMARK       I    between atoms: C15_23  and  N6_40 
REMARK   14  A    between atoms: C16_25  and  C17_26 
REMARK   15  A    between atoms: C17_26  and  C18_27 
REMARK   16  A    between atoms: C17_26  and  C19_28 
REMARK   17  A    between atoms: C20_29  and  C21_30 
REMARK   18  A    between atoms: C20_29  and  C24_33 
REMARK   19  A    between atoms: C20_29  and  N6_40 
REMARK   20  A    between atoms: C21_30  and  C22_31 
REMARK   21  A    between atoms: C22_31  and  C23_32 
REMARK   22  A    between atoms: C23_32  and  O8_43 
REMARK   23  A    between atoms: C24_33  and  C25_34 
REMARK   24  A    between atoms: C28_38  and  O6_39 
REMARK   25  A    between atoms: C29_42  and  O8_43 
REMARK   26  A    between atoms: C29_42  and  C35_49 
ROOT
ATOM      1  C14 non d ame     -33.328  11.662  28.951  0.00  0.00     0.089 C 
ATOM      2  H20 non d ame     -33.400  11.948  30.001  0.00  0.00     0.087 H 
ENDROOT
BRANCH   1   3
ATOM      3  N4  non d ame     -34.040  10.403  28.790  0.00  0.00    -0.346 N 
ATOM      4  C10 non d ame     -34.238   9.484  29.968  0.00  0.00     0.241 C 
ATOM      5  O4  non d ame     -33.814   9.777  31.037  0.00  0.00    -0.271 OA
ATOM      6  H19 non d ame     -34.391  10.171  27.872  0.00  0.00     0.163 HD
BRANCH   4   7
ATOM      7  C9  non d ame     -34.982   8.187  29.784  0.00  0.00     0.092 C 
ATOM      8  H11 non d ame     -35.847   8.357  29.144  0.00  0.00     0.088 H 
BRANCH   7   9
ATOM      9  N3  non d ame     -34.118   7.221  29.098  0.00  0.00    -0.346 N 
ATOM     10  C7  non d ame     -34.497   6.706  27.806  0.00  0.00     0.240 C 
ATOM     11  O3  non d ame     -35.494   7.058  27.303  0.00  0.00    -0.271 OA
ATOM     12  H10 non d ame     -33.256   6.908  29.520  0.00  0.00     0.163 HD
BRANCH  10  13
ATOM     13  C6  non d ame     -33.576   5.676  27.082  0.00  0.00     0.086 C 
ATOM     14  H6  non d ame     -33.927   4.650  27.186  0.00  0.00     0.086 H 
BRANCH  13  15
ATOM     15  N2  non d ame     -33.567   5.970  25.658  0.00  0.00    -0.343 N 
ATOM     16  C5  non d ame     -34.015   4.950  24.708  0.00  0.00     0.273 C 
ATOM     17  O2  non d ame     -34.377   3.895  25.098  0.00  0.00    -0.266 OA
ATOM     18  H5  non d ame     -33.253   6.874  25.334  0.00  0.00     0.163 HD
BRANCH  16  19
ATOM     19  C4  non d ame     -34.011   5.248  23.200  0.00  0.00     0.154 A 
ATOM     20  C1  non d ame     -32.901   5.154  22.303  0.00  0.00    -0.017 A 
ATOM     21  C2  non d ame     -33.418   5.531  21.044  0.00  0.00     0.077 A 
ATOM     22  H1  non d ame     -31.876   4.858  22.531  0.00  0.00     0.091 H 
ATOM     23  O1  non d ame     -34.679   5.805  21.209  0.00  0.00    -0.218 OA
ATOM     24  N1  non d ame     -35.048   5.647  22.460  0.00  0.00    -0.123 NA
BRANCH  21  25
ATOM     25  C3  non d ame     -32.644   5.600  19.735  0.00  0.00    -0.029 C 
ATOM     26  H2  non d ame     -31.581   5.711  19.947  0.00  0.00     0.036 H 
ATOM     27  H3  non d ame     -32.805   4.683  19.167  0.00  0.00     0.036 H 
ATOM     28  H4  non d ame     -32.989   6.454  19.152  0.00  0.00     0.036 H 
ENDBRANCH  21  25
ENDBRANCH  16  19
ENDBRANCH  13  15
BRANCH  13  29
ATOM     29  C8  non d ame     -32.178   5.771  27.638  0.00  0.00    -0.049 C 
ATOM     30  H7  non d ame     -32.210   6.223  28.628  0.00  0.00     0.030 H 
ATOM     31  H8  non d ame     -31.747   4.773  27.709  0.00  0.00     0.030 H 
ATOM     32  H9  non d ame     -31.565   6.386  26.977  0.00  0.00     0.030 H 
ENDBRANCH  13  29
ENDBRANCH  10  13
ENDBRANCH   7   9
BRANCH   7  33
ATOM     33  C11 non d ame     -35.385   7.619  31.177  0.00  0.00    -0.033 C 
ATOM     34  H12 non d ame     -34.956   8.273  31.936  0.00  0.00     0.042 H 
BRANCH  33  35
ATOM     35  C12 non d ame     -36.934   7.632  31.369  0.00  0.00    -0.071 C 
ATOM     36  H13 non d ame     -37.189   7.123  32.298  0.00  0.00     0.028 H 
ATOM     37  H14 non d ame     -37.286   8.662  31.410  0.00  0.00     0.028 H 
ATOM     38  H15 non d ame     -37.408   7.119  30.532  0.00  0.00     0.028 H 
ENDBRANCH  33  35
BRANCH  33  39
ATOM     39  C13 non d ame     -34.800   6.186  31.388  0.00  0.00    -0.071 C 
ATOM     40  H16 non d ame     -35.452   5.621  32.054  0.00  0.00     0.028 H 
ATOM     41  H17 non d ame     -34.732   5.676  30.426  0.00  0.00     0.028 H 
ATOM     42  H18 non d ame     -33.806   6.260  31.830  0.00  0.00     0.028 H 
ENDBRANCH  33  39
ENDBRANCH   7  33
ENDBRANCH   4   7
ENDBRANCH   1   3
BRANCH   1  43
ATOM     43  C15 non d ame     -33.974  12.720  28.010  0.00  0.00     0.240 C 
ATOM     44  O5  non d ame     -34.763  12.378  27.190  0.00  0.00    -0.271 OA
ATOM     45  N6  non d ame     -33.616  14.161  28.139  0.00  0.00    -0.355 N 
ATOM     46  H46 non d ame     -32.950  14.465  28.835  0.00  0.00     0.162 HD
BRANCH  45  47
ATOM     47  C20 non d ame     -34.240  15.154  27.237  0.00  0.00     0.013 C 
ATOM     48  H30 non d ame     -35.184  14.739  26.884  0.00  0.00     0.072 H 
BRANCH  47  49
ATOM     49  C21 non d ame     -33.319  15.415  26.066  0.00  0.00    -0.038 C 
ATOM     50  H31 non d ame     -33.773  14.905  25.216  0.00  0.00     0.036 H 
ATOM     51  H32 non d ame     -33.174  16.495  26.041  0.00  0.00     0.036 H 
BRANCH  49  52
ATOM     52  C22 non d ame     -31.919  14.791  26.255  0.00  0.00     0.018 C 
ATOM     53  H33 non d ame     -31.219  15.626  26.238  0.00  0.00     0.048 H 
ATOM     54  H34 non d ame     -31.994  14.160  27.140  0.00  0.00     0.048 H 
BRANCH  52  55
ATOM     55  C23 non d ame     -31.491  13.850  25.094  0.00  0.00     0.259 C 
ATOM     56  O7  non d ame     -30.740  14.231  24.255  0.00  0.00    -0.265 OA
BRANCH  55  57
ATOM     57  O8  non d ame     -32.020  12.531  25.036  0.00  0.00    -0.317 OA
BRANCH  57  58
ATOM     58  C29 non d ame     -31.041  11.503  25.217  0.00  0.00     0.052 C 
ATOM     59  H47 non d ame     -30.075  11.989  25.083  0.00  0.00     0.082 H 
ATOM     60  H48 non d ame     -31.286  11.025  26.164  0.00  0.00     0.082 H 
BRANCH  58  61
ATOM     61  C35 non d ame     -31.228  10.461  24.081  0.00  0.00    -0.034 A 
ATOM     62  C30 non d ame     -32.436   9.783  23.950  0.00  0.00    -0.075 A 
ATOM     63  C31 non d ame     -32.604   8.847  22.930  0.00  0.00    -0.082 A 
ATOM     64  H49 non d ame     -33.251   9.985  24.645  0.00  0.00     0.084 H 
ATOM     65  C32 non d ame     -31.557   8.588  22.041  0.00  0.00    -0.083 A 
ATOM     66  H50 non d ame     -33.553   8.319  22.828  0.00  0.00     0.083 H 
ATOM     67  C33 non d ame     -30.352   9.263  22.180  0.00  0.00    -0.082 A 
ATOM     68  H51 non d ame     -31.680   7.857  21.241  0.00  0.00     0.083 H 
ATOM     69  C34 non d ame     -30.181  10.201  23.195  0.00  0.00    -0.075 A 
ATOM     70  H52 non d ame     -29.536   9.057  21.486  0.00  0.00     0.083 H 
ATOM     71  H53 non d ame     -29.232  10.729  23.296  0.00  0.00     0.084 H 
ENDBRANCH  58  61
ENDBRANCH  57  58
ENDBRANCH  55  57
ENDBRANCH  52  55
ENDBRANCH  49  52
ENDBRANCH  47  49
BRANCH  47  72
ATOM     72  C24 non d ame     -34.484  16.458  27.995  0.00  0.00    -0.039 C 
ATOM     73  H35 non d ame     -35.568  16.556  28.061  0.00  0.00     0.036 H 
ATOM     74  H36 non d ame     -33.888  16.381  28.904  0.00  0.00     0.036 H 
BRANCH  72  75
ATOM     75  C25 non d ame     -33.943  17.727  27.181  0.00  0.00    -0.001 C 
ATOM     76  C26 non d ame     -32.575  18.303  27.888  0.00  0.00    -0.035 C 
ATOM     77  C27 non d ame     -32.717  19.635  28.094  0.00  0.00     0.085 C 
ATOM     78  H38 non d ame     -32.475  17.899  28.895  0.00  0.00     0.036 H 
ATOM     79  H39 non d ame     -31.739  18.242  27.191  0.00  0.00     0.036 H 
ATOM     80  N5  non d ame     -34.179  19.958  27.893  0.00  0.00    -0.049 N 
ATOM     81  H40 non d ame     -32.457  19.797  29.140  0.00  0.00     0.075 H 
ATOM     82  H41 non d ame     -32.136  20.115  27.307  0.00  0.00     0.075 H 
ATOM     83  C28 non d ame     -34.820  18.674  27.156  0.00  0.00     0.193 C 
ATOM     84  H42 non d ame     -34.583  20.035  28.815  0.00  0.00     0.280 HD
ATOM     85  H43 non d ame     -34.212  20.744  27.259  0.00  0.00     0.280 HD
ATOM     86  H44 non d ame     -35.047  18.704  26.089  0.00  0.00     0.129 H 
ATOM     87  H37 non d ame     -33.907  17.544  26.108  0.00  0.00     0.046 H 
BRANCH  83  88
ATOM     88  O6  non d ame     -36.040  18.296  27.796  0.00  0.00    -0.369 OA
ATOM     89  H45 non d ame     -36.394  19.047  28.279  0.00  0.00     0.212 HD
ENDBRANCH  83  88
ENDBRANCH  72  75
ENDBRANCH  47  72
ENDBRANCH  45  47
ENDBRANCH   1  43
BRANCH   1  90
ATOM     90  C16 non d ame     -31.871  11.462  28.570  0.00  0.00    -0.035 C 
ATOM     91  H21 non d ame     -31.696  10.390  28.652  0.00  0.00     0.037 H 
ATOM     92  H22 non d ame     -31.752  11.963  27.609  0.00  0.00     0.037 H 
BRANCH  90  93
ATOM     93  C17 non d ame     -30.867  12.147  29.552  0.00  0.00    -0.059 C 
ATOM     94  H23 non d ame     -30.039  11.457  29.712  0.00  0.00     0.038 H 
BRANCH  93  95
ATOM     95  C18 non d ame     -30.277  13.469  28.964  0.00  0.00    -0.073 C 
ATOM     96  H24 non d ame     -29.448  13.233  28.297  0.00  0.00     0.028 H 
ATOM     97  H25 non d ame     -31.052  13.996  28.407  0.00  0.00     0.028 H 
ATOM     98  H26 non d ame     -29.921  14.101  29.778  0.00  0.00     0.028 H 
ENDBRANCH  93  95
BRANCH  93  99
ATOM     99  C19 non d ame     -31.520  12.400  30.913  0.00  0.00    -0.073 C 
ATOM    100  H27 non d ame     -32.166  11.559  31.168  0.00  0.00     0.028 H 
ATOM    101  H28 non d ame     -30.747  12.507  31.674  0.00  0.00     0.028 H 
ATOM    102  H29 non d ame     -32.114  13.313  30.867  0.00  0.00     0.028 H 
ENDBRANCH  93  99
ENDBRANCH  90  93
ENDBRANCH   1  90
TORSDOF 26
ENDMDL
MODEL 13
REMARK VINA RESULT:      -5.9      2.991      8.840
REMARK  26 active torsions:
REMARK  status: ('A' for Active; 'I' for Inactive)
REMARK    1  A    between atoms: C2_2  and  C3_3 
REMARK    2  A    between atoms: C4_6  and  C5_7 
REMARK       I    between atoms: C5_7  and  N2_9 
REMARK    3  A    between atoms: N2_9  and  C6_10 
REMARK    4  A    between atoms: C6_10  and  C7_11 
REMARK    5  A    between atoms: C6_10  and  C8_13 
REMARK       I    between atoms: C7_11  and  N3_14 
REMARK    6  A    between atoms: N3_14  and  C9_15 
REMARK    7  A    between atoms: C9_15  and  C10_16 
REMARK    8  A    between atoms: C9_15  and  C11_18 
REMARK       I    between atoms: C10_16  and  N4_21 
REMARK    9  A    between atoms: C11_18  and  C12_19 
REMARK   10  A    between atoms: C11_18  and  C13_20 
REMARK   11  A    between atoms: N4_21  and  C14_22 
REMARK   12  A    between atoms: C14_22  and  C15_23 
REMARK   13  A    between atoms: C14_22  and  C16_25 
REMARK       I    between atoms: C15_23  and  N6_40 
REMARK   14  A    between atoms: C16_25  and  C17_26 
REMARK   15  A    between atoms: C17_26  and  C18_27 
REMARK   16  A    between atoms: C17_26  and  C19_28 
REMARK   17  A    between atoms: C20_29  and  C21_30 
REMARK   18  A    between atoms: C20_29  and  C24_33 
REMARK   19  A    between atoms: C20_29  and  N6_40 
REMARK   20  A    between atoms: C21_30  and  C22_31 
REMARK   21  A    between atoms: C22_31  and  C23_32 
REMARK   22  A    between atoms: C23_32  and  O8_43 
REMARK   23  A    between atoms: C24_33  and  C25_34 
REMARK   24  A    between atoms: C28_38  and  O6_39 
REMARK   25  A    between atoms: C29_42  and  O8_43 
REMARK   26  A    between atoms: C29_42  and  C35_49 
ROOT
ATOM      1  C14 non d ame     -32.604   9.437  25.262  0.00  0.00     0.089 C 
ATOM      2  H20 non d ame     -31.972   8.551  25.204  0.00  0.00     0.087 H 
ENDROOT
BRANCH   1   3
ATOM      3  N4  non d ame     -33.482   9.274  26.411  0.00  0.00    -0.346 N 
ATOM      4  C10 non d ame     -33.239   8.168  27.405  0.00  0.00     0.241 C 
ATOM      5  O4  non d ame     -32.330   7.418  27.259  0.00  0.00    -0.271 OA
ATOM      6  H19 non d ame     -34.252   9.920  26.516  0.00  0.00     0.163 HD
BRANCH   4   7
ATOM      7  C9  non d ame     -34.155   8.016  28.591  0.00  0.00     0.092 C 
ATOM      8  H11 non d ame     -33.663   8.415  29.478  0.00  0.00     0.088 H 
BRANCH   7   9
ATOM      9  N3  non d ame     -35.370   8.808  28.375  0.00  0.00    -0.346 N 
ATOM     10  C7  non d ame     -35.753   9.815  29.334  0.00  0.00     0.240 C 
ATOM     11  O3  non d ame     -35.096  10.001  30.285  0.00  0.00    -0.271 OA
ATOM     12  H10 non d ame     -35.947   8.658  27.561  0.00  0.00     0.163 HD
BRANCH  10  13
ATOM     13  C6  non d ame     -37.048  10.653  29.101  0.00  0.00     0.086 C 
ATOM     14  H6  non d ame     -36.911  11.711  29.322  0.00  0.00     0.086 H 
BRANCH  13  15
ATOM     15  N2  non d ame     -37.420  10.566  27.699  0.00  0.00    -0.343 N 
ATOM     16  C5  non d ame     -37.237  11.731  26.830  0.00  0.00     0.273 C 
ATOM     17  O2  non d ame     -36.793  12.734  27.269  0.00  0.00    -0.266 OA
ATOM     18  H5  non d ame     -37.802   9.706  27.332  0.00  0.00     0.163 HD
BRANCH  16  19
ATOM     19  C4  non d ame     -37.626  11.652  25.345  0.00  0.00     0.154 A 
ATOM     20  C1  non d ame     -37.585  10.498  24.500  0.00  0.00    -0.017 A 
ATOM     21  C2  non d ame     -38.037  10.953  23.242  0.00  0.00     0.077 A 
ATOM     22  H1  non d ame     -37.274   9.486  24.761  0.00  0.00     0.091 H 
ATOM     23  O1  non d ame     -38.306  12.220  23.361  0.00  0.00    -0.218 OA
ATOM     24  N1  non d ame     -38.073  12.651  24.580  0.00  0.00    -0.123 NA
BRANCH  21  25
ATOM     25  C3  non d ame     -38.185  10.114  21.980  0.00  0.00    -0.029 C 
ATOM     26  H2  non d ame     -37.233   9.638  21.746  0.00  0.00     0.036 H 
ATOM     27  H3  non d ame     -38.943   9.348  22.139  0.00  0.00     0.036 H 
ATOM     28  H4  non d ame     -38.485  10.754  21.150  0.00  0.00     0.036 H 
ENDBRANCH  21  25
ENDBRANCH  16  19
ENDBRANCH  13  15
BRANCH  13  29
ATOM     29  C8  non d ame     -38.160  10.116  29.965  0.00  0.00    -0.049 C 
ATOM     30  H7  non d ame     -38.384   9.090  29.674  0.00  0.00     0.030 H 
ATOM     31  H8  non d ame     -37.851  10.136  31.010  0.00  0.00     0.030 H 
ATOM     32  H9  non d ame     -39.050  10.733  29.837  0.00  0.00     0.030 H 
ENDBRANCH  13  29
ENDBRANCH  10  13
ENDBRANCH   7   9
BRANCH   7  33
ATOM     33  C11 non d ame     -34.541   6.517  28.760  0.00  0.00    -0.033 C 
ATOM     34  H12 non d ame     -33.637   5.926  28.609  0.00  0.00     0.042 H 
BRANCH  33  35
ATOM     35  C12 non d ame     -35.058   6.222  30.202  0.00  0.00    -0.071 C 
ATOM     36  H13 non d ame     -34.218   6.225  30.897  0.00  0.00     0.028 H 
ATOM     37  H14 non d ame     -35.775   6.989  30.495  0.00  0.00     0.028 H 
ATOM     38  H15 non d ame     -35.542   5.246  30.223  0.00  0.00     0.028 H 
ENDBRANCH  33  35
BRANCH  33  39
ATOM     39  C13 non d ame     -35.586   6.084  27.683  0.00  0.00    -0.071 C 
ATOM     40  H16 non d ame     -35.420   5.041  27.413  0.00  0.00     0.028 H 
ATOM     41  H17 non d ame     -36.593   6.200  28.085  0.00  0.00     0.028 H 
ATOM     42  H18 non d ame     -35.476   6.709  26.797  0.00  0.00     0.028 H 
ENDBRANCH  33  39
ENDBRANCH   7  33
ENDBRANCH   4   7
ENDBRANCH   1   3
BRANCH   1  43
ATOM     43  C15 non d ame     -31.773  10.739  25.455  0.00  0.00     0.240 C 
ATOM     44  O5  non d ame     -31.064  10.852  26.402  0.00  0.00    -0.271 OA
ATOM     45  N6  non d ame     -31.853  11.840  24.453  0.00  0.00    -0.355 N 
ATOM     46  H46 non d ame     -32.448  11.752  23.642  0.00  0.00     0.162 HD
BRANCH  45  47
ATOM     47  C20 non d ame     -31.056  13.069  24.651  0.00  0.00     0.013 C 
ATOM     48  H30 non d ame     -30.348  12.883  25.458  0.00  0.00     0.072 H 
BRANCH  47  49
ATOM     49  C21 non d ame     -31.978  14.209  25.023  0.00  0.00    -0.038 C 
ATOM     50  H31 non d ame     -31.458  14.764  25.804  0.00  0.00     0.036 H 
ATOM     51  H32 non d ame     -32.234  14.699  24.083  0.00  0.00     0.036 H 
BRANCH  49  52
ATOM     52  C22 non d ame     -33.308  13.726  25.640  0.00  0.00     0.018 C 
ATOM     53  H33 non d ame     -34.084  14.341  25.187  0.00  0.00     0.048 H 
ATOM     54  H34 non d ame     -33.321  12.644  25.505  0.00  0.00     0.048 H 
BRANCH  52  55
ATOM     55  C23 non d ame     -33.412  13.966  27.172  0.00  0.00     0.259 C 
ATOM     56  O7  non d ame     -32.929  13.196  27.937  0.00  0.00    -0.265 OA
BRANCH  55  57
ATOM     57  O8  non d ame     -34.103  15.113  27.652  0.00  0.00    -0.317 OA
BRANCH  57  58
ATOM     58  C29 non d ame     -33.281  16.023  28.389  0.00  0.00     0.052 C 
ATOM     59  H47 non d ame     -33.779  16.159  29.349  0.00  0.00     0.082 H 
ATOM     60  H48 non d ame     -32.274  15.609  28.351  0.00  0.00     0.082 H 
BRANCH  58  61
ATOM     61  C35 non d ame     -33.280  17.382  27.639  0.00  0.00    -0.034 A 
ATOM     62  C30 non d ame     -33.989  17.521  26.450  0.00  0.00    -0.075 A 
ATOM     63  C31 non d ame     -33.987  18.742  25.775  0.00  0.00    -0.082 A 
ATOM     64  H49 non d ame     -34.543  16.675  26.045  0.00  0.00     0.084 H 
ATOM     65  C32 non d ame     -33.273  19.825  26.294  0.00  0.00    -0.083 A 
ATOM     66  H50 non d ame     -34.545  18.848  24.844  0.00  0.00     0.083 H 
ATOM     67  C33 non d ame     -32.565  19.680  27.479  0.00  0.00    -0.082 A 
ATOM     68  H51 non d ame     -33.268  20.783  25.773  0.00  0.00     0.083 H 
ATOM     69  C34 non d ame     -32.564  18.463  28.157  0.00  0.00    -0.075 A 
ATOM     70  H52 non d ame     -32.006  20.527  27.880  0.00  0.00     0.083 H 
ATOM     71  H53 non d ame     -32.007  18.357  29.088  0.00  0.00     0.084 H 
ENDBRANCH  58  61
ENDBRANCH  57  58
ENDBRANCH  55  57
ENDBRANCH  52  55
ENDBRANCH  49  52
ENDBRANCH  47  49
BRANCH  47  72
ATOM     72  C24 non d ame     -30.312  13.414  23.363  0.00  0.00    -0.039 C 
ATOM     73  H35 non d ame     -29.258  13.238  23.581  0.00  0.00     0.036 H 
ATOM     74  H36 non d ame     -30.808  12.843  22.578  0.00  0.00     0.036 H 
BRANCH  72  75
ATOM     75  C25 non d ame     -30.464  14.964  22.987  0.00  0.00    -0.001 C 
ATOM     76  C26 non d ame     -31.288  15.119  21.573  0.00  0.00    -0.035 C 
ATOM     77  C27 non d ame     -30.580  15.919  20.740  0.00  0.00     0.085 C 
ATOM     78  H38 non d ame     -31.314  14.164  21.048  0.00  0.00     0.036 H 
ATOM     79  H39 non d ame     -32.211  15.675  21.737  0.00  0.00     0.036 H 
ATOM     80  N5  non d ame     -29.197  16.058  21.331  0.00  0.00    -0.049 N 
ATOM     81  H40 non d ame     -30.512  15.372  19.799  0.00  0.00     0.075 H 
ATOM     82  H41 non d ame     -31.079  16.887  20.772  0.00  0.00     0.075 H 
ATOM     83  C28 non d ame     -29.309  15.527  22.851  0.00  0.00     0.193 C 
ATOM     84  H42 non d ame     -28.601  15.429  20.814  0.00  0.00     0.280 HD
ATOM     85  H43 non d ame     -28.994  17.047  21.349  0.00  0.00     0.280 HD
ATOM     86  H44 non d ame     -29.335  16.232  23.683  0.00  0.00     0.129 H 
ATOM     87  H37 non d ame     -30.809  15.561  23.830  0.00  0.00     0.046 H 
BRANCH  83  88
ATOM     88  O6  non d ame     -28.235  14.631  23.141  0.00  0.00    -0.369 OA
ATOM     89  H45 non d ame     -28.480  14.065  23.877  0.00  0.00     0.212 HD
ENDBRANCH  83  88
ENDBRANCH  72  75
ENDBRANCH  47  72
ENDBRANCH  45  47
ENDBRANCH   1  43
BRANCH   1  90
ATOM     90  C16 non d ame     -33.448   9.552  24.003  0.00  0.00    -0.035 C 
ATOM     91  H21 non d ame     -34.394   9.071  24.246  0.00  0.00     0.037 H 
ATOM     92  H22 non d ame     -33.426  10.609  23.737  0.00  0.00     0.037 H 
BRANCH  90  93
ATOM     93  C17 non d ame     -32.860   8.776  22.782  0.00  0.00    -0.059 C 
ATOM     94  H23 non d ame     -32.259   9.478  22.203  0.00  0.00     0.038 H 
BRANCH  93  95
ATOM     95  C18 non d ame     -31.927   7.603  23.223  0.00  0.00    -0.073 C 
ATOM     96  H24 non d ame     -32.314   6.663  22.830  0.00  0.00     0.028 H 
ATOM     97  H25 non d ame     -30.923   7.771  22.834  0.00  0.00     0.028 H 
ATOM     98  H26 non d ame     -31.892   7.556  24.311  0.00  0.00     0.028 H 
ENDBRANCH  93  95
BRANCH  93  99
ATOM     99  C19 non d ame     -33.977   8.268  21.866  0.00  0.00    -0.073 C 
ATOM    100  H27 non d ame     -34.100   7.193  22.006  0.00  0.00     0.028 H 
ATOM    101  H28 non d ame     -34.910   8.775  22.114  0.00  0.00     0.028 H 
ATOM    102  H29 non d ame     -33.717   8.473  20.828  0.00  0.00     0.028 H 
ENDBRANCH  93  99
ENDBRANCH  90  93
ENDBRANCH   1  90
TORSDOF 26
ENDMDL
MODEL 14
REMARK VINA RESULT:      -5.8      2.444      4.527
REMARK  26 active torsions:
REMARK  status: ('A' for Active; 'I' for Inactive)
REMARK    1  A    between atoms: C2_2  and  C3_3 
REMARK    2  A    between atoms: C4_6  and  C5_7 
REMARK       I    between atoms: C5_7  and  N2_9 
REMARK    3  A    between atoms: N2_9  and  C6_10 
REMARK    4  A    between atoms: C6_10  and  C7_11 
REMARK    5  A    between atoms: C6_10  and  C8_13 
REMARK       I    between atoms: C7_11  and  N3_14 
REMARK    6  A    between atoms: N3_14  and  C9_15 
REMARK    7  A    between atoms: C9_15  and  C10_16 
REMARK    8  A    between atoms: C9_15  and  C11_18 
REMARK       I    between atoms: C10_16  and  N4_21 
REMARK    9  A    between atoms: C11_18  and  C12_19 
REMARK   10  A    between atoms: C11_18  and  C13_20 
REMARK   11  A    between atoms: N4_21  and  C14_22 
REMARK   12  A    between atoms: C14_22  and  C15_23 
REMARK   13  A    between atoms: C14_22  and  C16_25 
REMARK       I    between atoms: C15_23  and  N6_40 
REMARK   14  A    between atoms: C16_25  and  C17_26 
REMARK   15  A    between atoms: C17_26  and  C18_27 
REMARK   16  A    between atoms: C17_26  and  C19_28 
REMARK   17  A    between atoms: C20_29  and  C21_30 
REMARK   18  A    between atoms: C20_29  and  C24_33 
REMARK   19  A    between atoms: C20_29  and  N6_40 
REMARK   20  A    between atoms: C21_30  and  C22_31 
REMARK   21  A    between atoms: C22_31  and  C23_32 
REMARK   22  A    between atoms: C23_32  and  O8_43 
REMARK   23  A    between atoms: C24_33  and  C25_34 
REMARK   24  A    between atoms: C28_38  and  O6_39 
REMARK   25  A    between atoms: C29_42  and  O8_43 
REMARK   26  A    between atoms: C29_42  and  C35_49 
ROOT
ATOM      1  C14 non d ame     -33.932   6.948  27.806  0.00  0.00     0.089 C 
ATOM      2  H20 non d ame     -33.138   6.729  27.091  0.00  0.00     0.087 H 
ENDROOT
BRANCH   1   3
ATOM      3  N4  non d ame     -33.551   8.152  28.530  0.00  0.00    -0.346 N 
ATOM      4  C10 non d ame     -32.658   9.179  27.883  0.00  0.00     0.241 C 
ATOM      5  O4  non d ame     -32.256   9.016  26.778  0.00  0.00    -0.271 OA
ATOM      6  H19 non d ame     -33.901   8.271  29.470  0.00  0.00     0.163 HD
BRANCH   4   7
ATOM      7  C9  non d ame     -32.277  10.421  28.645  0.00  0.00     0.092 C 
ATOM      8  H11 non d ame     -31.191  10.485  28.707  0.00  0.00     0.088 H 
BRANCH   7   9
ATOM      9  N3  non d ame     -32.739  11.605  27.913  0.00  0.00    -0.346 N 
ATOM     10  C7  non d ame     -31.815  12.669  27.607  0.00  0.00     0.240 C 
ATOM     11  O3  non d ame     -30.696  12.589  27.942  0.00  0.00    -0.271 OA
ATOM     12  H10 non d ame     -33.701  11.688  27.619  0.00  0.00     0.163 HD
BRANCH  10  13
ATOM     13  C6  non d ame     -32.312  13.927  26.831  0.00  0.00     0.086 C 
ATOM     14  H6  non d ame     -31.879  14.853  27.207  0.00  0.00     0.086 H 
BRANCH  13  15
ATOM     15  N2  non d ame     -31.908  13.815  25.440  0.00  0.00    -0.343 N 
ATOM     16  C5  non d ame     -31.260  14.951  24.782  0.00  0.00     0.273 C 
ATOM     17  O2  non d ame     -31.071  15.953  25.380  0.00  0.00    -0.266 OA
ATOM     18  H5  non d ame     -32.076  12.956  24.935  0.00  0.00     0.163 HD
BRANCH  16  19
ATOM     19  C4  non d ame     -30.826  14.845  23.311  0.00  0.00     0.154 A 
ATOM     20  C1  non d ame     -31.270  15.655  22.219  0.00  0.00    -0.017 A 
ATOM     21  C2  non d ame     -30.578  15.156  21.093  0.00  0.00     0.077 A 
ATOM     22  H1  non d ame     -31.983  16.479  22.240  0.00  0.00     0.091 H 
ATOM     23  O1  non d ame     -29.828  14.176  21.501  0.00  0.00    -0.218 OA
ATOM     24  N1  non d ame     -29.955  13.975  22.793  0.00  0.00    -0.123 NA
BRANCH  21  25
ATOM     25  C3  non d ame     -30.690  15.672  19.664  0.00  0.00    -0.029 C 
ATOM     26  H2  non d ame     -29.863  15.283  19.072  0.00  0.00     0.036 H 
ATOM     27  H3  non d ame     -31.633  15.340  19.230  0.00  0.00     0.036 H 
ATOM     28  H4  non d ame     -30.655  16.761  19.667  0.00  0.00     0.036 H 
ENDBRANCH  21  25
ENDBRANCH  16  19
ENDBRANCH  13  15
BRANCH  13  29
ATOM     29  C8  non d ame     -33.814  14.019  26.927  0.00  0.00    -0.049 C 
ATOM     30  H7  non d ame     -34.267  13.387  26.164  0.00  0.00     0.030 H 
ATOM     31  H8  non d ame     -34.137  13.684  27.913  0.00  0.00     0.030 H 
ATOM     32  H9  non d ame     -34.126  15.053  26.774  0.00  0.00     0.030 H 
ENDBRANCH  13  29
ENDBRANCH  10  13
ENDBRANCH   7   9
BRANCH   7  33
ATOM     33  C11 non d ame     -32.944  10.391  30.051  0.00  0.00    -0.033 C 
ATOM     34  H12 non d ame     -32.800   9.393  30.463  0.00  0.00     0.042 H 
BRANCH  33  35
ATOM     35  C12 non d ame     -32.263  11.403  31.025  0.00  0.00    -0.071 C 
ATOM     36  H13 non d ame     -31.733  12.162  30.448  0.00  0.00     0.028 H 
ATOM     37  H14 non d ame     -33.022  11.881  31.643  0.00  0.00     0.028 H 
ATOM     38  H15 non d ame     -31.555  10.873  31.662  0.00  0.00     0.028 H 
ENDBRANCH  33  35
BRANCH  33  39
ATOM     39  C13 non d ame     -34.481  10.653  29.947  0.00  0.00    -0.071 C 
ATOM     40  H16 non d ame     -34.681  11.713  30.105  0.00  0.00     0.028 H 
ATOM     41  H17 non d ame     -34.834  10.359  28.957  0.00  0.00     0.028 H 
ATOM     42  H18 non d ame     -35.002  10.068  30.705  0.00  0.00     0.028 H 
ENDBRANCH  33  39
ENDBRANCH   7  33
ENDBRANCH   4   7
ENDBRANCH   1   3
BRANCH   1  43
ATOM     43  C15 non d ame     -35.298   7.203  27.106  0.00  0.00     0.240 C 
ATOM     44  O5  non d ame     -35.705   6.427  26.303  0.00  0.00    -0.271 OA
ATOM     45  N6  non d ame     -36.104   8.411  27.443  0.00  0.00    -0.355 N 
ATOM     46  H46 non d ame     -35.771   9.075  28.127  0.00  0.00     0.162 HD
BRANCH  45  47
ATOM     47  C20 non d ame     -37.401   8.638  26.769  0.00  0.00     0.013 C 
ATOM     48  H30 non d ame     -37.729   7.689  26.347  0.00  0.00     0.072 H 
BRANCH  47  49
ATOM     49  C21 non d ame     -37.220   9.659  25.668  0.00  0.00    -0.038 C 
ATOM     50  H31 non d ame     -36.942   9.089  24.781  0.00  0.00     0.036 H 
ATOM     51  H32 non d ame     -38.131  10.257  25.669  0.00  0.00     0.036 H 
BRANCH  49  52
ATOM     52  C22 non d ame     -36.056  10.636  25.942  0.00  0.00     0.018 C 
ATOM     53  H33 non d ame     -36.446  11.628  25.721  0.00  0.00     0.048 H 
ATOM     54  H34 non d ame     -35.702  10.399  26.945  0.00  0.00     0.048 H 
BRANCH  52  55
ATOM     55  C23 non d ame     -34.836  10.436  25.000  0.00  0.00     0.259 C 
ATOM     56  O7  non d ame     -33.863  11.108  25.123  0.00  0.00    -0.265 OA
BRANCH  55  57
ATOM     57  O8  non d ame     -34.899   9.448  23.978  0.00  0.00    -0.317 OA
BRANCH  57  58
ATOM     58  C29 non d ame     -33.620   8.997  23.524  0.00  0.00     0.052 C 
ATOM     59  H47 non d ame     -33.569   9.269  22.470  0.00  0.00     0.082 H 
ATOM     60  H48 non d ame     -32.895   9.404  24.228  0.00  0.00     0.082 H 
BRANCH  58  61
ATOM     61  C35 non d ame     -33.591   7.449  23.634  0.00  0.00    -0.034 A 
ATOM     62  C30 non d ame     -34.582   6.689  23.018  0.00  0.00    -0.075 A 
ATOM     63  C31 non d ame     -34.557   5.299  23.117  0.00  0.00    -0.082 A 
ATOM     64  H49 non d ame     -35.377   7.182  22.459  0.00  0.00     0.084 H 
ATOM     65  C32 non d ame     -33.537   4.668  23.836  0.00  0.00    -0.083 A 
ATOM     66  H50 non d ame     -35.333   4.705  22.632  0.00  0.00     0.083 H 
ATOM     67  C33 non d ame     -32.554   5.431  24.451  0.00  0.00    -0.082 A 
ATOM     68  H51 non d ame     -33.510   3.581  23.917  0.00  0.00     0.083 H 
ATOM     69  C34 non d ame     -32.574   6.820  24.354  0.00  0.00    -0.075 A 
ATOM     70  H52 non d ame     -31.761   4.936  25.014  0.00  0.00     0.083 H 
ATOM     71  H53 non d ame     -31.798   7.412  24.838  0.00  0.00     0.084 H 
ENDBRANCH  58  61
ENDBRANCH  57  58
ENDBRANCH  55  57
ENDBRANCH  52  55
ENDBRANCH  49  52
ENDBRANCH  47  49
BRANCH  47  72
ATOM     72  C24 non d ame     -38.424   9.153  27.779  0.00  0.00    -0.039 C 
ATOM     73  H35 non d ame     -38.755  10.117  27.390  0.00  0.00     0.036 H 
ATOM     74  H36 non d ame     -39.141   8.341  27.905  0.00  0.00     0.036 H 
BRANCH  72  75
ATOM     75  C25 non d ame     -37.760   9.423  29.211  0.00  0.00    -0.001 C 
ATOM     76  C26 non d ame     -38.408   8.408  30.330  0.00  0.00    -0.035 C 
ATOM     77  C27 non d ame     -38.823   9.137  31.394  0.00  0.00     0.085 C 
ATOM     78  H38 non d ame     -39.329   7.969  29.948  0.00  0.00     0.036 H 
ATOM     79  H39 non d ame     -37.632   7.766  30.748  0.00  0.00     0.036 H 
ATOM     80  N5  non d ame     -38.815  10.585  30.965  0.00  0.00    -0.049 N 
ATOM     81  H40 non d ame     -39.851   8.825  31.577  0.00  0.00     0.075 H 
ATOM     82  H41 non d ame     -38.063   8.990  32.161  0.00  0.00     0.075 H 
ATOM     83  C28 non d ame     -37.960  10.639  29.597  0.00  0.00     0.193 C 
ATOM     84  H42 non d ame     -39.773  10.826  30.756  0.00  0.00     0.280 HD
ATOM     85  H43 non d ame     -38.312  11.091  31.680  0.00  0.00     0.280 HD
ATOM     86  H44 non d ame     -36.938  11.018  29.599  0.00  0.00     0.129 H 
ATOM     87  H37 non d ame     -36.672   9.474  29.159  0.00  0.00     0.046 H 
BRANCH  83  88
ATOM     88  O6  non d ame     -38.653  11.410  28.613  0.00  0.00    -0.369 OA
ATOM     89  H45 non d ame     -38.473  11.051  27.741  0.00  0.00     0.212 HD
ENDBRANCH  83  88
ENDBRANCH  72  75
ENDBRANCH  47  72
ENDBRANCH  45  47
ENDBRANCH   1  43
BRANCH   1  90
ATOM     90  C16 non d ame     -34.070   5.798  28.791  0.00  0.00    -0.035 C 
ATOM     91  H21 non d ame     -33.791   6.212  29.758  0.00  0.00     0.037 H 
ATOM     92  H22 non d ame     -35.074   5.403  28.634  0.00  0.00     0.037 H 
BRANCH  90  93
ATOM     93  C17 non d ame     -33.084   4.618  28.516  0.00  0.00    -0.059 C 
ATOM     94  H23 non d ame     -32.193   5.035  28.046  0.00  0.00     0.038 H 
BRANCH  93  95
ATOM     95  C18 non d ame     -32.638   3.904  29.832  0.00  0.00    -0.073 C 
ATOM     96  H24 non d ame     -33.449   3.940  30.559  0.00  0.00     0.028 H 
ATOM     97  H25 non d ame     -32.391   2.865  29.616  0.00  0.00     0.028 H 
ATOM     98  H26 non d ame     -31.762   4.409  30.240  0.00  0.00     0.028 H 
ENDBRANCH  93  95
BRANCH  93  99
ATOM     99  C19 non d ame     -33.691   3.615  27.532  0.00  0.00    -0.073 C 
ATOM    100  H27 non d ame     -34.695   3.940  27.255  0.00  0.00     0.028 H 
ATOM    101  H28 non d ame     -33.069   3.558  26.639  0.00  0.00     0.028 H 
ATOM    102  H29 non d ame     -33.744   2.632  28.001  0.00  0.00     0.028 H 
ENDBRANCH  93  99
ENDBRANCH  90  93
ENDBRANCH   1  90
TORSDOF 26
ENDMDL
MODEL 15
REMARK VINA RESULT:      -5.8      2.819      5.820
REMARK  26 active torsions:
REMARK  status: ('A' for Active; 'I' for Inactive)
REMARK    1  A    between atoms: C2_2  and  C3_3 
REMARK    2  A    between atoms: C4_6  and  C5_7 
REMARK       I    between atoms: C5_7  and  N2_9 
REMARK    3  A    between atoms: N2_9  and  C6_10 
REMARK    4  A    between atoms: C6_10  and  C7_11 
REMARK    5  A    between atoms: C6_10  and  C8_13 
REMARK       I    between atoms: C7_11  and  N3_14 
REMARK    6  A    between atoms: N3_14  and  C9_15 
REMARK    7  A    between atoms: C9_15  and  C10_16 
REMARK    8  A    between atoms: C9_15  and  C11_18 
REMARK       I    between atoms: C10_16  and  N4_21 
REMARK    9  A    between atoms: C11_18  and  C12_19 
REMARK   10  A    between atoms: C11_18  and  C13_20 
REMARK   11  A    between atoms: N4_21  and  C14_22 
REMARK   12  A    between atoms: C14_22  and  C15_23 
REMARK   13  A    between atoms: C14_22  and  C16_25 
REMARK       I    between atoms: C15_23  and  N6_40 
REMARK   14  A    between atoms: C16_25  and  C17_26 
REMARK   15  A    between atoms: C17_26  and  C18_27 
REMARK   16  A    between atoms: C17_26  and  C19_28 
REMARK   17  A    between atoms: C20_29  and  C21_30 
REMARK   18  A    between atoms: C20_29  and  C24_33 
REMARK   19  A    between atoms: C20_29  and  N6_40 
REMARK   20  A    between atoms: C21_30  and  C22_31 
REMARK   21  A    between atoms: C22_31  and  C23_32 
REMARK   22  A    between atoms: C23_32  and  O8_43 
REMARK   23  A    between atoms: C24_33  and  C25_34 
REMARK   24  A    between atoms: C28_38  and  O6_39 
REMARK   25  A    between atoms: C29_42  and  O8_43 
REMARK   26  A    between atoms: C29_42  and  C35_49 
ROOT
ATOM      1  C14 non d ame     -32.323  12.028  28.067  0.00  0.00     0.089 C 
ATOM      2  H20 non d ame     -31.417  12.323  28.598  0.00  0.00     0.087 H 
ENDROOT
BRANCH   1   3
ATOM      3  N4  non d ame     -33.018  13.246  27.678  0.00  0.00    -0.346 N 
ATOM      4  C10 non d ame     -34.474  13.201  27.288  0.00  0.00     0.241 C 
ATOM      5  O4  non d ame     -35.065  12.172  27.293  0.00  0.00    -0.271 OA
ATOM      6  H19 non d ame     -32.497  14.111  27.678  0.00  0.00     0.163 HD
BRANCH   4   7
ATOM      7  C9  non d ame     -35.179  14.471  26.893  0.00  0.00     0.092 C 
ATOM      8  H11 non d ame     -35.636  14.918  27.775  0.00  0.00     0.088 H 
BRANCH   7   9
ATOM      9  N3  non d ame     -34.201  15.434  26.377  0.00  0.00    -0.346 N 
ATOM     10  C7  non d ame     -33.605  16.401  27.265  0.00  0.00     0.240 C 
ATOM     11  O3  non d ame     -33.902  16.420  28.397  0.00  0.00    -0.271 OA
ATOM     12  H10 non d ame     -33.936  15.431  25.402  0.00  0.00     0.163 HD
BRANCH  10  13
ATOM     13  C6  non d ame     -32.567  17.425  26.711  0.00  0.00     0.086 C 
ATOM     14  H6  non d ame     -31.651  17.457  27.299  0.00  0.00     0.086 H 
BRANCH  13  15
ATOM     15  N2  non d ame     -32.184  17.028  25.366  0.00  0.00    -0.343 N 
ATOM     16  C5  non d ame     -31.393  15.811  25.172  0.00  0.00     0.273 C 
ATOM     17  O2  non d ame     -31.066  15.161  26.103  0.00  0.00    -0.266 OA
ATOM     18  H5  non d ame     -32.464  17.591  24.576  0.00  0.00     0.163 HD
BRANCH  16  19
ATOM     19  C4  non d ame     -30.981  15.379  23.755  0.00  0.00     0.154 A 
ATOM     20  C1  non d ame     -31.269  16.054  22.527  0.00  0.00    -0.017 A 
ATOM     21  C2  non d ame     -30.675  15.255  21.526  0.00  0.00     0.077 A 
ATOM     22  H1  non d ame     -31.822  16.982  22.385  0.00  0.00     0.091 H 
ATOM     23  O1  non d ame     -30.114  14.243  22.119  0.00  0.00    -0.218 OA
ATOM     24  N1  non d ame     -30.279  14.293  23.421  0.00  0.00    -0.123 NA
BRANCH  21  25
ATOM     25  C3  non d ame     -30.688  15.529  20.028  0.00  0.00    -0.029 C 
ATOM     26  H2  non d ame     -30.849  16.592  19.854  0.00  0.00     0.036 H 
ATOM     27  H3  non d ame     -29.732  15.232  19.595  0.00  0.00     0.036 H 
ATOM     28  H4  non d ame     -31.490  14.959  19.560  0.00  0.00     0.036 H 
ENDBRANCH  21  25
ENDBRANCH  16  19
ENDBRANCH  13  15
BRANCH  13  29
ATOM     29  C8  non d ame     -33.179  18.803  26.688  0.00  0.00    -0.049 C 
ATOM     30  H7  non d ame     -34.104  18.781  26.113  0.00  0.00     0.030 H 
ATOM     31  H8  non d ame     -33.393  19.123  27.707  0.00  0.00     0.030 H 
ATOM     32  H9  non d ame     -32.481  19.503  26.225  0.00  0.00     0.030 H 
ENDBRANCH  13  29
ENDBRANCH  10  13
ENDBRANCH   7   9
BRANCH   7  33
ATOM     33  C11 non d ame     -36.228  14.158  25.784  0.00  0.00    -0.033 C 
ATOM     34  H12 non d ame     -36.057  13.135  25.450  0.00  0.00     0.042 H 
BRANCH  33  35
ATOM     35  C12 non d ame     -37.683  14.233  26.343  0.00  0.00    -0.071 C 
ATOM     36  H13 non d ame     -38.196  15.091  25.908  0.00  0.00     0.028 H 
ATOM     37  H14 non d ame     -38.219  13.320  26.085  0.00  0.00     0.028 H 
ATOM     38  H15 non d ame     -37.651  14.342  27.427  0.00  0.00     0.028 H 
ENDBRANCH  33  35
BRANCH  33  39
ATOM     39  C13 non d ame     -36.043  15.105  24.556  0.00  0.00    -0.071 C 
ATOM     40  H16 non d ame     -35.564  16.030  24.879  0.00  0.00     0.028 H 
ATOM     41  H17 non d ame     -35.419  14.614  23.808  0.00  0.00     0.028 H 
ATOM     42  H18 non d ame     -37.016  15.333  24.122  0.00  0.00     0.028 H 
ENDBRANCH  33  39
ENDBRANCH   7  33
ENDBRANCH   4   7
ENDBRANCH   1   3
BRANCH   1  43
ATOM     43  C15 non d ame     -32.009  11.206  26.784  0.00  0.00     0.240 C 
ATOM     44  O5  non d ame     -31.006  11.411  26.181  0.00  0.00    -0.271 OA
ATOM     45  N6  non d ame     -32.955  10.154  26.313  0.00  0.00    -0.355 N 
ATOM     46  H46 non d ame     -33.808   9.967  26.820  0.00  0.00     0.162 HD
BRANCH  45  47
ATOM     47  C20 non d ame     -32.642   9.381  25.092  0.00  0.00     0.013 C 
ATOM     48  H30 non d ame     -31.683   9.732  24.710  0.00  0.00     0.072 H 
BRANCH  47  49
ATOM     49  C21 non d ame     -33.725   9.611  24.062  0.00  0.00    -0.038 C 
ATOM     50  H31 non d ame     -33.313  10.336  23.360  0.00  0.00     0.036 H 
ATOM     51  H32 non d ame     -34.016   8.619  23.715  0.00  0.00     0.036 H 
BRANCH  49  52
ATOM     52  C22 non d ame     -34.995  10.254  24.662  0.00  0.00     0.018 C 
ATOM     53  H33 non d ame     -34.790  10.375  25.724  0.00  0.00     0.048 H 
ATOM     54  H34 non d ame     -35.203  11.127  24.043  0.00  0.00     0.048 H 
BRANCH  52  55
ATOM     55  C23 non d ame     -36.256   9.352  24.568  0.00  0.00     0.259 C 
ATOM     56  O7  non d ame     -36.890   9.304  23.563  0.00  0.00    -0.265 OA
BRANCH  55  57
ATOM     57  O8  non d ame     -36.656   8.592  25.702  0.00  0.00    -0.317 OA
BRANCH  57  58
ATOM     58  C29 non d ame     -37.094   9.385  26.810  0.00  0.00     0.052 C 
ATOM     59  H47 non d ame     -36.773  10.402  26.589  0.00  0.00     0.082 H 
ATOM     60  H48 non d ame     -38.153   9.161  26.933  0.00  0.00     0.082 H 
BRANCH  58  61
ATOM     61  C35 non d ame     -36.340   8.896  28.076  0.00  0.00    -0.034 A 
ATOM     62  C30 non d ame     -36.765   9.299  29.338  0.00  0.00    -0.075 A 
ATOM     63  C31 non d ame     -36.087   8.861  30.475  0.00  0.00    -0.082 A 
ATOM     64  H49 non d ame     -37.626   9.959  29.437  0.00  0.00     0.084 H 
ATOM     65  C32 non d ame     -34.980   8.017  30.347  0.00  0.00    -0.083 A 
ATOM     66  H50 non d ame     -36.423   9.177  31.464  0.00  0.00     0.083 H 
ATOM     67  C33 non d ame     -34.559   7.621  29.085  0.00  0.00    -0.082 A 
ATOM     68  H51 non d ame     -34.446   7.669  31.231  0.00  0.00     0.083 H 
ATOM     69  C34 non d ame     -35.233   8.055  27.946  0.00  0.00    -0.075 A 
ATOM     70  H52 non d ame     -33.693   6.964  28.988  0.00  0.00     0.083 H 
ATOM     71  H53 non d ame     -34.897   7.738  26.959  0.00  0.00     0.084 H 
ENDBRANCH  58  61
ENDBRANCH  57  58
ENDBRANCH  55  57
ENDBRANCH  52  55
ENDBRANCH  49  52
ENDBRANCH  47  49
BRANCH  47  72
ATOM     72  C24 non d ame     -32.565   7.893  25.429  0.00  0.00    -0.039 C 
ATOM     73  H35 non d ame     -31.501   7.667  25.502  0.00  0.00     0.036 H 
ATOM     74  H36 non d ame     -33.211   7.759  26.297  0.00  0.00     0.036 H 
BRANCH  72  75
ATOM     75  C25 non d ame     -33.162   6.987  24.251  0.00  0.00    -0.001 C 
ATOM     76  C26 non d ame     -34.324   5.988  24.846  0.00  0.00    -0.035 C 
ATOM     77  C27 non d ame     -34.051   4.719  24.457  0.00  0.00     0.085 C 
ATOM     78  H38 non d ame     -34.257   5.942  25.933  0.00  0.00     0.036 H 
ATOM     79  H39 non d ame     -35.281   6.201  24.369  0.00  0.00     0.036 H 
ATOM     80  N5  non d ame     -32.636   4.715  23.929  0.00  0.00    -0.049 N 
ATOM     81  H40 non d ame     -34.093   4.121  25.368  0.00  0.00     0.075 H 
ATOM     82  H41 non d ame     -34.737   4.513  23.637  0.00  0.00     0.075 H 
ATOM     83  C28 non d ame     -32.241   6.264  23.706  0.00  0.00     0.193 C 
ATOM     84  H42 non d ame     -32.058   4.338  24.666  0.00  0.00     0.280 HD
ATOM     85  H43 non d ame     -32.670   4.258  23.029  0.00  0.00     0.280 HD
ATOM     86  H44 non d ame     -32.222   6.691  22.703  0.00  0.00     0.129 H 
ATOM     87  H37 non d ame     -33.416   7.573  23.368  0.00  0.00     0.046 H 
BRANCH  83  88
ATOM     88  O6  non d ame     -30.950   6.528  24.259  0.00  0.00    -0.369 OA
ATOM     89  H45 non d ame     -30.308   6.609  23.549  0.00  0.00     0.212 HD
ENDBRANCH  83  88
ENDBRANCH  72  75
ENDBRANCH  47  72
ENDBRANCH  45  47
ENDBRANCH   1  43
BRANCH   1  90
ATOM     90  C16 non d ame     -33.219  11.216  28.988  0.00  0.00    -0.035 C 
ATOM     91  H21 non d ame     -34.131  11.802  29.093  0.00  0.00     0.037 H 
ATOM     92  H22 non d ame     -33.257  10.220  28.548  0.00  0.00     0.037 H 
BRANCH  90  93
ATOM     93  C17 non d ame     -32.640  11.041  30.429  0.00  0.00    -0.059 C 
ATOM     94  H23 non d ame     -32.397   9.987  30.561  0.00  0.00     0.038 H 
BRANCH  93  95
ATOM     95  C18 non d ame     -31.329  11.862  30.642  0.00  0.00    -0.073 C 
ATOM     96  H24 non d ame     -30.482  11.181  30.722  0.00  0.00     0.028 H 
ATOM     97  H25 non d ame     -31.177  12.530  29.794  0.00  0.00     0.028 H 
ATOM     98  H26 non d ame     -31.412  12.449  31.557  0.00  0.00     0.028 H 
ENDBRANCH  93  95
BRANCH  93  99
ATOM     99  C19 non d ame     -33.687  11.403  31.486  0.00  0.00    -0.073 C 
ATOM    100  H27 non d ame     -33.187  11.793  32.373  0.00  0.00     0.028 H 
ATOM    101  H28 non d ame     -34.361  12.161  31.087  0.00  0.00     0.028 H 
ATOM    102  H29 non d ame     -34.257  10.513  31.752  0.00  0.00     0.028 H 
ENDBRANCH  93  99
ENDBRANCH  90  93
ENDBRANCH   1  90
TORSDOF 26
ENDMDL
MODEL 16
REMARK VINA RESULT:      -5.8      3.135      9.591
REMARK  26 active torsions:
REMARK  status: ('A' for Active; 'I' for Inactive)
REMARK    1  A    between atoms: C2_2  and  C3_3 
REMARK    2  A    between atoms: C4_6  and  C5_7 
REMARK       I    between atoms: C5_7  and  N2_9 
REMARK    3  A    between atoms: N2_9  and  C6_10 
REMARK    4  A    between atoms: C6_10  and  C7_11 
REMARK    5  A    between atoms: C6_10  and  C8_13 
REMARK       I    between atoms: C7_11  and  N3_14 
REMARK    6  A    between atoms: N3_14  and  C9_15 
REMARK    7  A    between atoms: C9_15  and  C10_16 
REMARK    8  A    between atoms: C9_15  and  C11_18 
REMARK       I    between atoms: C10_16  and  N4_21 
REMARK    9  A    between atoms: C11_18  and  C12_19 
REMARK   10  A    between atoms: C11_18  and  C13_20 
REMARK   11  A    between atoms: N4_21  and  C14_22 
REMARK   12  A    between atoms: C14_22  and  C15_23 
REMARK   13  A    between atoms: C14_22  and  C16_25 
REMARK       I    between atoms: C15_23  and  N6_40 
REMARK   14  A    between atoms: C16_25  and  C17_26 
REMARK   15  A    between atoms: C17_26  and  C18_27 
REMARK   16  A    between atoms: C17_26  and  C19_28 
REMARK   17  A    between atoms: C20_29  and  C21_30 
REMARK   18  A    between atoms: C20_29  and  C24_33 
REMARK   19  A    between atoms: C20_29  and  N6_40 
REMARK   20  A    between atoms: C21_30  and  C22_31 
REMARK   21  A    between atoms: C22_31  and  C23_32 
REMARK   22  A    between atoms: C23_32  and  O8_43 
REMARK   23  A    between atoms: C24_33  and  C25_34 
REMARK   24  A    between atoms: C28_38  and  O6_39 
REMARK   25  A    between atoms: C29_42  and  O8_43 
REMARK   26  A    between atoms: C29_42  and  C35_49 
ROOT
ATOM      1  C14 non d ame     -34.629  10.154  24.667  0.00  0.00     0.089 C 
ATOM      2  H20 non d ame     -34.095  10.589  23.822  0.00  0.00     0.087 H 
ENDROOT
BRANCH   1   3
ATOM      3  N4  non d ame     -34.208   8.765  24.782  0.00  0.00    -0.346 N 
ATOM      4  C10 non d ame     -32.784   8.373  24.485  0.00  0.00     0.241 C 
ATOM      5  O4  non d ame     -31.992   9.193  24.152  0.00  0.00    -0.271 OA
ATOM      6  H19 non d ame     -34.898   8.083  25.064  0.00  0.00     0.163 HD
BRANCH   4   7
ATOM      7  C9  non d ame     -32.365   6.932  24.614  0.00  0.00     0.092 C 
ATOM      8  H11 non d ame     -31.342   6.888  24.988  0.00  0.00     0.088 H 
BRANCH   7   9
ATOM      9  N3  non d ame     -33.217   6.261  25.600  0.00  0.00    -0.346 N 
ATOM     10  C7  non d ame     -32.781   6.146  26.970  0.00  0.00     0.240 C 
ATOM     11  O3  non d ame     -31.747   6.587  27.296  0.00  0.00    -0.271 OA
ATOM     12  H10 non d ame     -34.111   5.875  25.333  0.00  0.00     0.163 HD
BRANCH  10  13
ATOM     13  C6  non d ame     -33.691   5.429  28.014  0.00  0.00     0.086 C 
ATOM     14  H6  non d ame     -33.123   4.962  28.819  0.00  0.00     0.086 H 
BRANCH  13  15
ATOM     15  N2  non d ame     -34.561   6.412  28.637  0.00  0.00    -0.343 N 
ATOM     16  C5  non d ame     -34.895   6.284  30.057  0.00  0.00     0.273 C 
ATOM     17  O2  non d ame     -34.462   5.385  30.689  0.00  0.00    -0.266 OA
ATOM     18  H5  non d ame     -34.930   7.176  28.088  0.00  0.00     0.163 HD
BRANCH  16  19
ATOM     19  C4  non d ame     -35.814   7.318  30.728  0.00  0.00     0.154 A 
ATOM     20  C1  non d ame     -37.219   7.489  30.521  0.00  0.00    -0.017 A 
ATOM     21  C2  non d ame     -37.583   8.561  31.366  0.00  0.00     0.077 A 
ATOM     22  H1  non d ame     -37.875   6.921  29.860  0.00  0.00     0.091 H 
ATOM     23  O1  non d ame     -36.506   8.951  31.982  0.00  0.00    -0.218 OA
ATOM     24  N1  non d ame     -35.460   8.241  31.626  0.00  0.00    -0.123 NA
BRANCH  21  25
ATOM     25  C3  non d ame     -38.978   9.149  31.527  0.00  0.00    -0.029 C 
ATOM     26  H2  non d ame     -39.603   8.837  30.691  0.00  0.00     0.036 H 
ATOM     27  H3  non d ame     -39.418   8.792  32.459  0.00  0.00     0.036 H 
ATOM     28  H4  non d ame     -38.915  10.236  31.548  0.00  0.00     0.036 H 
ENDBRANCH  21  25
ENDBRANCH  16  19
ENDBRANCH  13  15
BRANCH  13  29
ATOM     29  C8  non d ame     -34.515   4.372  27.325  0.00  0.00    -0.049 C 
ATOM     30  H7  non d ame     -33.857   3.686  26.793  0.00  0.00     0.030 H 
ATOM     31  H8  non d ame     -35.092   3.819  28.066  0.00  0.00     0.030 H 
ATOM     32  H9  non d ame     -35.195   4.847  26.615  0.00  0.00     0.030 H 
ENDBRANCH  13  29
ENDBRANCH  10  13
ENDBRANCH   7   9
BRANCH   7  33
ATOM     33  C11 non d ame     -32.515   6.223  23.235  0.00  0.00    -0.033 C 
ATOM     34  H12 non d ame     -33.271   6.765  22.668  0.00  0.00     0.042 H 
BRANCH  33  35
ATOM     35  C12 non d ame     -31.186   6.281  22.420  0.00  0.00    -0.071 C 
ATOM     36  H13 non d ame     -30.841   5.267  22.215  0.00  0.00     0.028 H 
ATOM     37  H14 non d ame     -31.358   6.803  21.479  0.00  0.00     0.028 H 
ATOM     38  H15 non d ame     -30.428   6.811  22.997  0.00  0.00     0.028 H 
ENDBRANCH  33  35
BRANCH  33  39
ATOM     39  C13 non d ame     -33.007   4.752  23.414  0.00  0.00    -0.071 C 
ATOM     40  H16 non d ame     -33.502   4.420  22.501  0.00  0.00     0.028 H 
ATOM     41  H17 non d ame     -32.154   4.105  23.622  0.00  0.00     0.028 H 
ATOM     42  H18 non d ame     -33.710   4.702  24.246  0.00  0.00     0.028 H 
ENDBRANCH  33  39
ENDBRANCH   7  33
ENDBRANCH   4   7
ENDBRANCH   1   3
BRANCH   1  43
ATOM     43  C15 non d ame     -34.305  10.882  26.003  0.00  0.00     0.240 C 
ATOM     44  O5  non d ame     -34.539  10.347  27.039  0.00  0.00    -0.271 OA
ATOM     45  N6  non d ame     -33.695  12.242  25.992  0.00  0.00    -0.355 N 
ATOM     46  H46 non d ame     -33.487  12.704  25.118  0.00  0.00     0.162 HD
BRANCH  45  47
ATOM     47  C20 non d ame     -33.393  12.919  27.271  0.00  0.00     0.013 C 
ATOM     48  H30 non d ame     -33.927  12.394  28.063  0.00  0.00     0.072 H 
BRANCH  47  49
ATOM     49  C21 non d ame     -33.857  14.356  27.198  0.00  0.00    -0.038 C 
ATOM     50  H31 non d ame     -34.368  14.452  26.240  0.00  0.00     0.036 H 
ATOM     51  H32 non d ame     -34.400  14.538  28.126  0.00  0.00     0.036 H 
BRANCH  49  52
ATOM     52  C22 non d ame     -32.687  15.364  27.172  0.00  0.00     0.018 C 
ATOM     53  H33 non d ame     -31.780  14.762  27.168  0.00  0.00     0.048 H 
ATOM     54  H34 non d ame     -32.898  16.039  26.343  0.00  0.00     0.048 H 
BRANCH  52  55
ATOM     55  C23 non d ame     -32.603  16.258  28.441  0.00  0.00     0.259 C 
ATOM     56  O7  non d ame     -32.514  15.766  29.520  0.00  0.00    -0.265 OA
BRANCH  55  57
ATOM     57  O8  non d ame     -32.647  17.673  28.301  0.00  0.00    -0.317 OA
BRANCH  57  58
ATOM     58  C29 non d ame     -33.165  18.118  27.043  0.00  0.00     0.052 C 
ATOM     59  H47 non d ame     -32.456  18.862  26.680  0.00  0.00     0.082 H 
ATOM     60  H48 non d ame     -33.351  17.214  26.464  0.00  0.00     0.082 H 
BRANCH  58  61
ATOM     61  C35 non d ame     -34.524  18.820  27.307  0.00  0.00    -0.034 A 
ATOM     62  C30 non d ame     -35.549  18.133  27.949  0.00  0.00    -0.075 A 
ATOM     63  C31 non d ame     -36.771  18.763  28.185  0.00  0.00    -0.082 A 
ATOM     64  H49 non d ame     -35.398  17.101  28.266  0.00  0.00     0.084 H 
ATOM     65  C32 non d ame     -36.964  20.085  27.776  0.00  0.00    -0.083 A 
ATOM     66  H50 non d ame     -37.572  18.222  28.690  0.00  0.00     0.083 H 
ATOM     67  C33 non d ame     -35.939  20.765  27.132  0.00  0.00    -0.082 A 
ATOM     68  H51 non d ame     -37.916  20.585  27.958  0.00  0.00     0.083 H 
ATOM     69  C34 non d ame     -34.717  20.140  26.896  0.00  0.00    -0.075 A 
ATOM     70  H52 non d ame     -36.095  21.796  26.812  0.00  0.00     0.083 H 
ATOM     71  H53 non d ame     -33.916  20.681  26.391  0.00  0.00     0.084 H 
ENDBRANCH  58  61
ENDBRANCH  57  58
ENDBRANCH  55  57
ENDBRANCH  52  55
ENDBRANCH  49  52
ENDBRANCH  47  49
BRANCH  47  72
ATOM     72  C24 non d ame     -31.888  12.882  27.533  0.00  0.00    -0.039 C 
ATOM     73  H35 non d ame     -31.453  12.413  26.649  0.00  0.00     0.036 H 
ATOM     74  H36 non d ame     -31.614  13.903  27.799  0.00  0.00     0.036 H 
BRANCH  72  75
ATOM     75  C25 non d ame     -31.528  11.953  28.787  0.00  0.00    -0.001 C 
ATOM     76  C26 non d ame     -32.892  11.601  29.634  0.00  0.00    -0.035 C 
ATOM     77  C27 non d ame     -32.682  11.891  30.941  0.00  0.00     0.085 C 
ATOM     78  H38 non d ame     -33.695  12.280  29.348  0.00  0.00     0.036 H 
ATOM     79  H39 non d ame     -33.064  10.524  29.636  0.00  0.00     0.036 H 
ATOM     80  N5  non d ame     -31.417  12.713  31.012  0.00  0.00    -0.049 N 
ATOM     81  H40 non d ame     -33.527  12.511  31.240  0.00  0.00     0.075 H 
ATOM     82  H41 non d ame     -32.510  10.932  31.427  0.00  0.00     0.075 H 
ATOM     83  C28 non d ame     -30.695  12.541  29.579  0.00  0.00     0.193 C 
ATOM     84  H42 non d ame     -31.707  13.675  31.113  0.00  0.00     0.280 HD
ATOM     85  H43 non d ame     -30.838  12.283  31.719  0.00  0.00     0.280 HD
ATOM     86  H44 non d ame     -29.826  11.890  29.472  0.00  0.00     0.129 H 
ATOM     87  H37 non d ame     -30.886  11.117  28.510  0.00  0.00     0.046 H 
BRANCH  83  88
ATOM     88  O6  non d ame     -30.282  13.815  29.079  0.00  0.00    -0.369 OA
ATOM     89  H45 non d ame     -29.325  13.835  29.005  0.00  0.00     0.212 HD
ENDBRANCH  83  88
ENDBRANCH  72  75
ENDBRANCH  47  72
ENDBRANCH  45  47
ENDBRANCH   1  43
BRANCH   1  90
ATOM     90  C16 non d ame     -36.126  10.200  24.409  0.00  0.00    -0.035 C 
ATOM     91  H21 non d ame     -36.230  10.266  23.327  0.00  0.00     0.037 H 
ATOM     92  H22 non d ame     -36.538   9.346  24.946  0.00  0.00     0.037 H 
BRANCH  90  93
ATOM     93  C17 non d ame     -36.823  11.469  24.996  0.00  0.00    -0.059 C 
ATOM     94  H23 non d ame     -36.134  11.925  25.707  0.00  0.00     0.038 H 
BRANCH  93  95
ATOM     95  C18 non d ame     -37.141  12.530  23.894  0.00  0.00    -0.073 C 
ATOM     96  H24 non d ame     -37.161  12.046  22.918  0.00  0.00     0.028 H 
ATOM     97  H25 non d ame     -38.113  12.981  24.095  0.00  0.00     0.028 H 
ATOM     98  H26 non d ame     -36.373  13.303  23.901  0.00  0.00     0.028 H 
ENDBRANCH  93  95
BRANCH  93  99
ATOM     99  C19 non d ame     -38.089  11.090  25.768  0.00  0.00    -0.073 C 
ATOM    100  H27 non d ame     -38.947  11.115  25.095  0.00  0.00     0.028 H 
ATOM    101  H28 non d ame     -37.979  10.086  26.178  0.00  0.00     0.028 H 
ATOM    102  H29 non d ame     -38.245  11.799  26.581  0.00  0.00     0.028 H 
ENDBRANCH  93  99
ENDBRANCH  90  93
ENDBRANCH   1  90
TORSDOF 26
ENDMDL
MODEL 17
REMARK VINA RESULT:      -5.8      2.205      5.747
REMARK  26 active torsions:
REMARK  status: ('A' for Active; 'I' for Inactive)
REMARK    1  A    between atoms: C2_2  and  C3_3 
REMARK    2  A    between atoms: C4_6  and  C5_7 
REMARK       I    between atoms: C5_7  and  N2_9 
REMARK    3  A    between atoms: N2_9  and  C6_10 
REMARK    4  A    between atoms: C6_10  and  C7_11 
REMARK    5  A    between atoms: C6_10  and  C8_13 
REMARK       I    between atoms: C7_11  and  N3_14 
REMARK    6  A    between atoms: N3_14  and  C9_15 
REMARK    7  A    between atoms: C9_15  and  C10_16 
REMARK    8  A    between atoms: C9_15  and  C11_18 
REMARK       I    between atoms: C10_16  and  N4_21 
REMARK    9  A    between atoms: C11_18  and  C12_19 
REMARK   10  A    between atoms: C11_18  and  C13_20 
REMARK   11  A    between atoms: N4_21  and  C14_22 
REMARK   12  A    between atoms: C14_22  and  C15_23 
REMARK   13  A    between atoms: C14_22  and  C16_25 
REMARK       I    between atoms: C15_23  and  N6_40 
REMARK   14  A    between atoms: C16_25  and  C17_26 
REMARK   15  A    between atoms: C17_26  and  C18_27 
REMARK   16  A    between atoms: C17_26  and  C19_28 
REMARK   17  A    between atoms: C20_29  and  C21_30 
REMARK   18  A    between atoms: C20_29  and  C24_33 
REMARK   19  A    between atoms: C20_29  and  N6_40 
REMARK   20  A    between atoms: C21_30  and  C22_31 
REMARK   21  A    between atoms: C22_31  and  C23_32 
REMARK   22  A    between atoms: C23_32  and  O8_43 
REMARK   23  A    between atoms: C24_33  and  C25_34 
REMARK   24  A    between atoms: C28_38  and  O6_39 
REMARK   25  A    between atoms: C29_42  and  O8_43 
REMARK   26  A    between atoms: C29_42  and  C35_49 
ROOT
ATOM      1  C14 non d ame     -33.756   7.080  27.696  0.00  0.00     0.089 C 
ATOM      2  H20 non d ame     -32.834   6.611  27.353  0.00  0.00     0.087 H 
ENDROOT
BRANCH   1   3
ATOM      3  N4  non d ame     -33.395   8.322  28.364  0.00  0.00    -0.346 N 
ATOM      4  C10 non d ame     -32.585   9.368  27.641  0.00  0.00     0.241 C 
ATOM      5  O4  non d ame     -32.233   9.188  26.522  0.00  0.00    -0.271 OA
ATOM      6  H19 non d ame     -33.701   8.454  29.317  0.00  0.00     0.163 HD
BRANCH   4   7
ATOM      7  C9  non d ame     -32.223  10.649  28.347  0.00  0.00     0.092 C 
ATOM      8  H11 non d ame     -31.145  10.797  28.291  0.00  0.00     0.088 H 
BRANCH   7   9
ATOM      9  N3  non d ame     -32.852  11.780  27.658  0.00  0.00    -0.346 N 
ATOM     10  C7  non d ame     -32.033  12.776  27.013  0.00  0.00     0.240 C 
ATOM     11  O3  non d ame     -30.867  12.683  27.037  0.00  0.00    -0.271 OA
ATOM     12  H10 non d ame     -33.857  11.874  27.631  0.00  0.00     0.163 HD
BRANCH  10  13
ATOM     13  C6  non d ame     -32.708  13.980  26.285  0.00  0.00     0.086 C 
ATOM     14  H6  non d ame     -32.538  14.929  26.792  0.00  0.00     0.086 H 
BRANCH  13  15
ATOM     15  N2  non d ame     -32.134  14.110  24.956  0.00  0.00    -0.343 N 
ATOM     16  C5  non d ame     -31.333  15.291  24.629  0.00  0.00     0.273 C 
ATOM     17  O2  non d ame     -31.159  16.133  25.440  0.00  0.00    -0.266 OA
ATOM     18  H5  non d ame     -32.290  13.387  24.268  0.00  0.00     0.163 HD
BRANCH  16  19
ATOM     19  C4  non d ame     -30.719  15.441  23.227  0.00  0.00     0.154 A 
ATOM     20  C1  non d ame     -31.419  15.577  21.987  0.00  0.00    -0.017 A 
ATOM     21  C2  non d ame     -30.406  15.680  21.008  0.00  0.00     0.077 A 
ATOM     22  H1  non d ame     -32.496  15.598  21.822  0.00  0.00     0.091 H 
ATOM     23  O1  non d ame     -29.263  15.612  21.624  0.00  0.00    -0.218 OA
ATOM     24  N1  non d ame     -29.420  15.472  22.921  0.00  0.00    -0.123 NA
BRANCH  21  25
ATOM     25  C3  non d ame     -30.614  15.842  19.509  0.00  0.00    -0.029 C 
ATOM     26  H2  non d ame     -31.666  16.041  19.307  0.00  0.00     0.036 H 
ATOM     27  H3  non d ame     -30.013  16.677  19.146  0.00  0.00     0.036 H 
ATOM     28  H4  non d ame     -30.313  14.929  18.997  0.00  0.00     0.036 H 
ENDBRANCH  21  25
ENDBRANCH  16  19
ENDBRANCH  13  15
BRANCH  13  29
ATOM     29  C8  non d ame     -34.193  13.742  26.185  0.00  0.00    -0.049 C 
ATOM     30  H7  non d ame     -34.406  13.129  25.310  0.00  0.00     0.030 H 
ATOM     31  H8  non d ame     -34.540  13.227  27.080  0.00  0.00     0.030 H 
ATOM     32  H9  non d ame     -34.709  14.698  26.092  0.00  0.00     0.030 H 
ENDBRANCH  13  29
ENDBRANCH  10  13
ENDBRANCH   7   9
BRANCH   7  33
ATOM     33  C11 non d ame     -32.732  10.592  29.817  0.00  0.00    -0.033 C 
ATOM     34  H12 non d ame     -32.526   9.592  30.198  0.00  0.00     0.042 H 
BRANCH  33  35
ATOM     35  C12 non d ame     -31.965  11.606  30.723  0.00  0.00    -0.071 C 
ATOM     36  H13 non d ame     -32.534  11.779  31.637  0.00  0.00     0.028 H 
ATOM     37  H14 non d ame     -30.986  11.200  30.975  0.00  0.00     0.028 H 
ATOM     38  H15 non d ame     -31.842  12.548  30.189  0.00  0.00     0.028 H 
ENDBRANCH  33  35
BRANCH  33  39
ATOM     39  C13 non d ame     -34.275  10.827  29.884  0.00  0.00    -0.071 C 
ATOM     40  H16 non d ame     -34.791   9.980  29.431  0.00  0.00     0.028 H 
ATOM     41  H17 non d ame     -34.583  10.926  30.926  0.00  0.00     0.028 H 
ATOM     42  H18 non d ame     -34.528  11.738  29.343  0.00  0.00     0.028 H 
ENDBRANCH  33  39
ENDBRANCH   7  33
ENDBRANCH   4   7
ENDBRANCH   1   3
BRANCH   1  43
ATOM     43  C15 non d ame     -34.717   7.414  26.518  0.00  0.00     0.240 C 
ATOM     44  O5  non d ame     -35.618   8.170  26.686  0.00  0.00    -0.271 OA
ATOM     45  N6  non d ame     -34.508   6.798  25.177  0.00  0.00    -0.355 N 
ATOM     46  H46 non d ame     -33.743   6.157  25.021  0.00  0.00     0.162 HD
BRANCH  45  47
ATOM     47  C20 non d ame     -35.429   7.126  24.068  0.00  0.00     0.013 C 
ATOM     48  H30 non d ame     -36.022   7.989  24.370  0.00  0.00     0.072 H 
BRANCH  47  49
ATOM     49  C21 non d ame     -36.335   5.944  23.804  0.00  0.00    -0.038 C 
ATOM     50  H31 non d ame     -36.756   6.112  22.812  0.00  0.00     0.036 H 
ATOM     51  H32 non d ame     -35.727   5.059  23.995  0.00  0.00     0.036 H 
BRANCH  49  52
ATOM     52  C22 non d ame     -37.529   5.873  24.780  0.00  0.00     0.018 C 
ATOM     53  H33 non d ame     -37.605   6.864  25.225  0.00  0.00     0.048 H 
ATOM     54  H34 non d ame     -38.360   5.470  24.201  0.00  0.00     0.048 H 
BRANCH  52  55
ATOM     55  C23 non d ame     -37.314   4.888  25.962  0.00  0.00     0.259 C 
ATOM     56  O7  non d ame     -36.294   4.285  26.067  0.00  0.00    -0.265 OA
BRANCH  55  57
ATOM     57  O8  non d ame     -38.355   4.702  26.913  0.00  0.00    -0.317 OA
BRANCH  57  58
ATOM     58  C29 non d ame     -38.987   5.915  27.330  0.00  0.00     0.052 C 
ATOM     59  H47 non d ame     -38.736   6.655  26.571  0.00  0.00     0.082 H 
ATOM     60  H48 non d ame     -40.029   5.657  27.517  0.00  0.00     0.082 H 
BRANCH  58  61
ATOM     61  C35 non d ame     -38.343   6.352  28.673  0.00  0.00    -0.034 A 
ATOM     62  C30 non d ame     -38.069   7.696  28.909  0.00  0.00    -0.075 A 
ATOM     63  C31 non d ame     -37.490   8.089  30.115  0.00  0.00    -0.082 A 
ATOM     64  H49 non d ame     -38.307   8.441  28.150  0.00  0.00     0.084 H 
ATOM     65  C32 non d ame     -37.184   7.133  31.087  0.00  0.00    -0.083 A 
ATOM     66  H50 non d ame     -37.279   9.144  30.298  0.00  0.00     0.083 H 
ATOM     67  C33 non d ame     -37.455   5.793  30.845  0.00  0.00    -0.082 A 
ATOM     68  H51 non d ame     -36.731   7.432  32.033  0.00  0.00     0.083 H 
ATOM     69  C34 non d ame     -38.035   5.396  29.642  0.00  0.00    -0.075 A 
ATOM     70  H52 non d ame     -37.212   5.048  31.604  0.00  0.00     0.083 H 
ATOM     71  H53 non d ame     -38.247   4.342  29.460  0.00  0.00     0.084 H 
ENDBRANCH  58  61
ENDBRANCH  57  58
ENDBRANCH  55  57
ENDBRANCH  52  55
ENDBRANCH  49  52
ENDBRANCH  47  49
BRANCH  47  72
ATOM     72  C24 non d ame     -34.628   7.447  22.808  0.00  0.00    -0.039 C 
ATOM     73  H35 non d ame     -34.951   6.717  22.065  0.00  0.00     0.036 H 
ATOM     74  H36 non d ame     -34.782   8.511  22.629  0.00  0.00     0.036 H 
BRANCH  72  75
ATOM     75  C25 non d ame     -33.057   7.228  23.034  0.00  0.00    -0.001 C 
ATOM     76  C26 non d ame     -32.267   8.664  22.901  0.00  0.00    -0.035 C 
ATOM     77  C27 non d ame     -31.242   8.520  22.028  0.00  0.00     0.085 C 
ATOM     78  H38 non d ame     -32.909   9.401  22.421  0.00  0.00     0.036 H 
ATOM     79  H39 non d ame     -31.769   8.905  23.841  0.00  0.00     0.036 H 
ATOM     80  N5  non d ame     -31.458   7.211  21.306  0.00  0.00    -0.049 N 
ATOM     81  H40 non d ame     -31.347   9.340  21.318  0.00  0.00     0.075 H 
ATOM     82  H41 non d ame     -30.345   8.442  22.642  0.00  0.00     0.075 H 
ATOM     83  C28 non d ame     -32.569   6.411  22.161  0.00  0.00     0.193 C 
ATOM     84  H42 non d ame     -31.852   7.443  20.406  0.00  0.00     0.280 HD
ATOM     85  H43 non d ame     -30.585   6.707  21.361  0.00  0.00     0.280 HD
ATOM     86  H44 non d ame     -32.278   5.582  22.807  0.00  0.00     0.129 H 
ATOM     87  H37 non d ame     -32.847   6.626  23.917  0.00  0.00     0.046 H 
BRANCH  83  88
ATOM     88  O6  non d ame     -33.575   5.885  21.293  0.00  0.00    -0.369 OA
ATOM     89  H45 non d ame     -33.815   6.549  20.642  0.00  0.00     0.212 HD
ENDBRANCH  83  88
ENDBRANCH  72  75
ENDBRANCH  47  72
ENDBRANCH  45  47
ENDBRANCH   1  43
BRANCH   1  90
ATOM     90  C16 non d ame     -34.461   6.169  28.687  0.00  0.00    -0.035 C 
ATOM     91  H21 non d ame     -34.214   6.566  29.671  0.00  0.00     0.037 H 
ATOM     92  H22 non d ame     -35.500   6.133  28.358  0.00  0.00     0.037 H 
BRANCH  90  93
ATOM     93  C17 non d ame     -33.939   4.697  28.664  0.00  0.00    -0.059 C 
ATOM     94  H23 non d ame     -34.798   4.044  28.512  0.00  0.00     0.038 H 
BRANCH  93  95
ATOM     95  C18 non d ame     -32.936   4.445  27.493  0.00  0.00    -0.073 C 
ATOM     96  H24 non d ame     -32.285   3.608  27.745  0.00  0.00     0.028 H 
ATOM     97  H25 non d ame     -33.491   4.212  26.584  0.00  0.00     0.028 H 
ATOM     98  H26 non d ame     -32.333   5.339  27.332  0.00  0.00     0.028 H 
ENDBRANCH  93  95
BRANCH  93  99
ATOM     99  C19 non d ame     -33.311   4.318  30.009  0.00  0.00    -0.073 C 
ATOM    100  H27 non d ame     -32.793   5.183  30.424  0.00  0.00     0.028 H 
ATOM    101  H28 non d ame     -34.093   3.998  30.698  0.00  0.00     0.028 H 
ATOM    102  H29 non d ame     -32.602   3.504  29.862  0.00  0.00     0.028 H 
ENDBRANCH  93  99
ENDBRANCH  90  93
ENDBRANCH   1  90
TORSDOF 26
ENDMDL
MODEL 18
REMARK VINA RESULT:      -5.8      2.286      3.226
REMARK  26 active torsions:
REMARK  status: ('A' for Active; 'I' for Inactive)
REMARK    1  A    between atoms: C2_2  and  C3_3 
REMARK    2  A    between atoms: C4_6  and  C5_7 
REMARK       I    between atoms: C5_7  and  N2_9 
REMARK    3  A    between atoms: N2_9  and  C6_10 
REMARK    4  A    between atoms: C6_10  and  C7_11 
REMARK    5  A    between atoms: C6_10  and  C8_13 
REMARK       I    between atoms: C7_11  and  N3_14 
REMARK    6  A    between atoms: N3_14  and  C9_15 
REMARK    7  A    between atoms: C9_15  and  C10_16 
REMARK    8  A    between atoms: C9_15  and  C11_18 
REMARK       I    between atoms: C10_16  and  N4_21 
REMARK    9  A    between atoms: C11_18  and  C12_19 
REMARK   10  A    between atoms: C11_18  and  C13_20 
REMARK   11  A    between atoms: N4_21  and  C14_22 
REMARK   12  A    between atoms: C14_22  and  C15_23 
REMARK   13  A    between atoms: C14_22  and  C16_25 
REMARK       I    between atoms: C15_23  and  N6_40 
REMARK   14  A    between atoms: C16_25  and  C17_26 
REMARK   15  A    between atoms: C17_26  and  C18_27 
REMARK   16  A    between atoms: C17_26  and  C19_28 
REMARK   17  A    between atoms: C20_29  and  C21_30 
REMARK   18  A    between atoms: C20_29  and  C24_33 
REMARK   19  A    between atoms: C20_29  and  N6_40 
REMARK   20  A    between atoms: C21_30  and  C22_31 
REMARK   21  A    between atoms: C22_31  and  C23_32 
REMARK   22  A    between atoms: C23_32  and  O8_43 
REMARK   23  A    between atoms: C24_33  and  C25_34 
REMARK   24  A    between atoms: C28_38  and  O6_39 
REMARK   25  A    between atoms: C29_42  and  O8_43 
REMARK   26  A    between atoms: C29_42  and  C35_49 
ROOT
ATOM      1  C14 non d ame     -34.811   7.657  29.222  0.00  0.00     0.089 C 
ATOM      2  H20 non d ame     -34.604   6.800  29.863  0.00  0.00     0.087 H 
ENDROOT
BRANCH   1   3
ATOM      3  N4  non d ame     -33.685   8.573  29.338  0.00  0.00    -0.346 N 
ATOM      4  C10 non d ame     -33.705   9.899  28.622  0.00  0.00     0.241 C 
ATOM      5  O4  non d ame     -34.637  10.208  27.956  0.00  0.00    -0.271 OA
ATOM      6  H19 non d ame     -32.900   8.290  29.907  0.00  0.00     0.163 HD
BRANCH   4   7
ATOM      7  C9  non d ame     -32.533  10.836  28.757  0.00  0.00     0.092 C 
ATOM      8  H11 non d ame     -31.689  10.438  28.195  0.00  0.00     0.088 H 
BRANCH   7   9
ATOM      9  N3  non d ame     -32.875  12.134  28.166  0.00  0.00    -0.346 N 
ATOM     10  C7  non d ame     -32.037  12.700  27.138  0.00  0.00     0.240 C 
ATOM     11  O3  non d ame     -31.084  12.125  26.774  0.00  0.00    -0.271 OA
ATOM     12  H10 non d ame     -33.693  12.642  28.471  0.00  0.00     0.163 HD
BRANCH  10  13
ATOM     13  C6  non d ame     -32.403  14.082  26.515  0.00  0.00     0.086 C 
ATOM     14  H6  non d ame     -31.959  14.919  27.054  0.00  0.00     0.086 H 
BRANCH  13  15
ATOM     15  N2  non d ame     -31.885  14.141  25.158  0.00  0.00    -0.343 N 
ATOM     16  C5  non d ame     -31.206  15.353  24.696  0.00  0.00     0.273 C 
ATOM     17  O2  non d ame     -31.084  16.278  25.423  0.00  0.00    -0.266 OA
ATOM     18  H5  non d ame     -31.996  13.347  24.543  0.00  0.00     0.163 HD
BRANCH  16  19
ATOM     19  C4  non d ame     -30.653  15.428  23.264  0.00  0.00     0.154 A 
ATOM     20  C1  non d ame     -31.379  15.743  22.072  0.00  0.00    -0.017 A 
ATOM     21  C2  non d ame     -30.421  15.678  21.036  0.00  0.00     0.077 A 
ATOM     22  H1  non d ame     -32.437  15.983  21.975  0.00  0.00     0.091 H 
ATOM     23  O1  non d ame     -29.282  15.363  21.580  0.00  0.00    -0.218 OA
ATOM     24  N1  non d ame     -29.392  15.211  22.879  0.00  0.00    -0.123 NA
BRANCH  21  25
ATOM     25  C3  non d ame     -30.675  15.931  19.556  0.00  0.00    -0.029 C 
ATOM     26  H2  non d ame     -31.479  15.283  19.209  0.00  0.00     0.036 H 
ATOM     27  H3  non d ame     -30.962  16.973  19.410  0.00  0.00     0.036 H 
ATOM     28  H4  non d ame     -29.768  15.722  18.990  0.00  0.00     0.036 H 
ENDBRANCH  21  25
ENDBRANCH  16  19
ENDBRANCH  13  15
BRANCH  13  29
ATOM     29  C8  non d ame     -33.901  14.251  26.504  0.00  0.00    -0.049 C 
ATOM     30  H7  non d ame     -34.222  14.594  25.521  0.00  0.00     0.030 H 
ATOM     31  H8  non d ame     -34.376  13.296  26.727  0.00  0.00     0.030 H 
ATOM     32  H9  non d ame     -34.189  14.985  27.257  0.00  0.00     0.030 H 
ENDBRANCH  13  29
ENDBRANCH  10  13
ENDBRANCH   7   9
BRANCH   7  33
ATOM     33  C11 non d ame     -32.195  11.029  30.265  0.00  0.00    -0.033 C 
ATOM     34  H12 non d ame     -32.051  10.040  30.699  0.00  0.00     0.042 H 
BRANCH  33  35
ATOM     35  C12 non d ame     -30.864  11.822  30.451  0.00  0.00    -0.071 C 
ATOM     36  H13 non d ame     -30.251  11.331  31.208  0.00  0.00     0.028 H 
ATOM     37  H14 non d ame     -30.322  11.850  29.506  0.00  0.00     0.028 H 
ATOM     38  H15 non d ame     -31.089  12.839  30.772  0.00  0.00     0.028 H 
ENDBRANCH  33  35
BRANCH  33  39
ATOM     39  C13 non d ame     -33.376  11.720  31.019  0.00  0.00    -0.071 C 
ATOM     40  H16 non d ame     -33.464  12.755  30.687  0.00  0.00     0.028 H 
ATOM     41  H17 non d ame     -34.305  11.189  30.805  0.00  0.00     0.028 H 
ATOM     42  H18 non d ame     -33.186  11.698  32.092  0.00  0.00     0.028 H 
ENDBRANCH  33  39
ENDBRANCH   7  33
ENDBRANCH   4   7
ENDBRANCH   1   3
BRANCH   1  43
ATOM     43  C15 non d ame     -34.965   7.250  27.728  0.00  0.00     0.240 C 
ATOM     44  O5  non d ame     -36.038   6.970  27.300  0.00  0.00    -0.271 OA
ATOM     45  N6  non d ame     -33.777   7.218  26.829  0.00  0.00    -0.355 N 
ATOM     46  H46 non d ame     -32.861   7.459  27.180  0.00  0.00     0.162 HD
BRANCH  45  47
ATOM     47  C20 non d ame     -33.942   6.830  25.411  0.00  0.00     0.013 C 
ATOM     48  H30 non d ame     -34.743   6.093  25.357  0.00  0.00     0.072 H 
BRANCH  47  49
ATOM     49  C21 non d ame     -32.650   6.229  24.904  0.00  0.00    -0.038 C 
ATOM     50  H31 non d ame     -32.266   6.935  24.168  0.00  0.00     0.036 H 
ATOM     51  H32 non d ame     -32.065   5.996  25.794  0.00  0.00     0.036 H 
BRANCH  49  52
ATOM     52  C22 non d ame     -32.863   4.892  24.160  0.00  0.00     0.018 C 
ATOM     53  H33 non d ame     -31.971   4.300  24.356  0.00  0.00     0.048 H 
ATOM     54  H34 non d ame     -33.840   4.530  24.479  0.00  0.00     0.048 H 
BRANCH  52  55
ATOM     55  C23 non d ame     -32.945   5.043  22.615  0.00  0.00     0.259 C 
ATOM     56  O7  non d ame     -33.862   4.584  22.013  0.00  0.00    -0.265 OA
BRANCH  55  57
ATOM     57  O8  non d ame     -31.905   5.725  21.925  0.00  0.00    -0.317 OA
BRANCH  57  58
ATOM     58  C29 non d ame     -32.304   6.976  21.358  0.00  0.00     0.052 C 
ATOM     59  H47 non d ame     -32.024   6.925  20.306  0.00  0.00     0.082 H 
ATOM     60  H48 non d ame     -33.348   7.108  21.639  0.00  0.00     0.082 H 
BRANCH  58  61
ATOM     61  C35 non d ame     -31.469   8.096  22.035  0.00  0.00    -0.034 A 
ATOM     62  C30 non d ame     -32.110   9.180  22.627  0.00  0.00    -0.075 A 
ATOM     63  C31 non d ame     -31.361  10.187  23.235  0.00  0.00    -0.082 A 
ATOM     64  H49 non d ame     -33.198   9.242  22.615  0.00  0.00     0.084 H 
ATOM     65  C32 non d ame     -29.966  10.107  23.248  0.00  0.00    -0.083 A 
ATOM     66  H50 non d ame     -31.866  11.034  23.700  0.00  0.00     0.083 H 
ATOM     67  C33 non d ame     -29.331   9.025  22.652  0.00  0.00    -0.082 A 
ATOM     68  H51 non d ame     -29.372  10.890  23.722  0.00  0.00     0.083 H 
ATOM     69  C34 non d ame     -30.076   8.017  22.045  0.00  0.00    -0.075 A 
ATOM     70  H52 non d ame     -28.242   8.967  22.662  0.00  0.00     0.083 H 
ATOM     71  H53 non d ame     -29.571   7.169  21.581  0.00  0.00     0.084 H 
ENDBRANCH  58  61
ENDBRANCH  57  58
ENDBRANCH  55  57
ENDBRANCH  52  55
ENDBRANCH  49  52
ENDBRANCH  47  49
BRANCH  47  72
ATOM     72  C24 non d ame     -34.295   8.059  24.577  0.00  0.00    -0.039 C 
ATOM     73  H35 non d ame     -34.187   8.909  25.253  0.00  0.00     0.036 H 
ATOM     74  H36 non d ame     -33.673   7.992  23.684  0.00  0.00     0.036 H 
BRANCH  72  75
ATOM     75  C25 non d ame     -35.822   8.030  24.094  0.00  0.00    -0.001 C 
ATOM     76  C26 non d ame     -35.960   7.126  22.728  0.00  0.00    -0.035 C 
ATOM     77  C27 non d ame     -36.625   7.846  21.793  0.00  0.00     0.085 C 
ATOM     78  H38 non d ame     -34.978   6.971  22.281  0.00  0.00     0.036 H 
ATOM     79  H39 non d ame     -36.616   6.274  22.908  0.00  0.00     0.036 H 
ATOM     80  N5  non d ame     -36.664   9.274  22.282  0.00  0.00    -0.049 N 
ATOM     81  H40 non d ame     -36.009   7.794  20.894  0.00  0.00     0.075 H 
ATOM     82  H41 non d ame     -37.637   7.445  21.783  0.00  0.00     0.075 H 
ATOM     83  C28 non d ame     -36.255   9.220  23.843  0.00  0.00     0.193 C 
ATOM     84  H42 non d ame     -35.944   9.769  21.777  0.00  0.00     0.280 HD
ATOM     85  H43 non d ame     -37.627   9.572  22.212  0.00  0.00     0.280 HD
ATOM     86  H44 non d ame     -37.015   9.322  24.618  0.00  0.00     0.129 H 
ATOM     87  H37 non d ame     -36.508   7.804  24.910  0.00  0.00     0.046 H 
BRANCH  83  88
ATOM     88  O6  non d ame     -35.278  10.222  24.130  0.00  0.00    -0.369 OA
ATOM     89  H45 non d ame     -35.573  10.753  24.875  0.00  0.00     0.212 HD
ENDBRANCH  83  88
ENDBRANCH  72  75
ENDBRANCH  47  72
ENDBRANCH  45  47
ENDBRANCH   1  43
BRANCH   1  90
ATOM     90  C16 non d ame     -36.074   8.360  29.694  0.00  0.00    -0.035 C 
ATOM     91  H21 non d ame     -35.819   9.418  29.730  0.00  0.00     0.037 H 
ATOM     92  H22 non d ame     -36.863   8.011  29.028  0.00  0.00     0.037 H 
BRANCH  90  93
ATOM     93  C17 non d ame     -36.508   7.961  31.140  0.00  0.00    -0.059 C 
ATOM     94  H23 non d ame     -37.553   7.654  31.098  0.00  0.00     0.038 H 
BRANCH  93  95
ATOM     95  C18 non d ame     -35.681   6.758  31.694  0.00  0.00    -0.073 C 
ATOM     96  H24 non d ame     -34.978   7.115  32.448  0.00  0.00     0.028 H 
ATOM     97  H25 non d ame     -36.355   6.030  32.145  0.00  0.00     0.028 H 
ATOM     98  H26 non d ame     -35.131   6.288  30.879  0.00  0.00     0.028 H 
ENDBRANCH  93  95
BRANCH  93  99
ATOM     99  C19 non d ame     -36.423   9.162  32.087  0.00  0.00    -0.073 C 
ATOM    100  H27 non d ame     -35.389   9.302  32.404  0.00  0.00     0.028 H 
ATOM    101  H28 non d ame     -36.769  10.058  31.571  0.00  0.00     0.028 H 
ATOM    102  H29 non d ame     -37.050   8.981  32.960  0.00  0.00     0.028 H 
ENDBRANCH  93  99
ENDBRANCH  90  93
ENDBRANCH   1  90
TORSDOF 26
ENDMDL
MODEL 19
REMARK VINA RESULT:      -5.7      2.632      7.435
REMARK  26 active torsions:
REMARK  status: ('A' for Active; 'I' for Inactive)
REMARK    1  A    between atoms: C2_2  and  C3_3 
REMARK    2  A    between atoms: C4_6  and  C5_7 
REMARK       I    between atoms: C5_7  and  N2_9 
REMARK    3  A    between atoms: N2_9  and  C6_10 
REMARK    4  A    between atoms: C6_10  and  C7_11 
REMARK    5  A    between atoms: C6_10  and  C8_13 
REMARK       I    between atoms: C7_11  and  N3_14 
REMARK    6  A    between atoms: N3_14  and  C9_15 
REMARK    7  A    between atoms: C9_15  and  C10_16 
REMARK    8  A    between atoms: C9_15  and  C11_18 
REMARK       I    between atoms: C10_16  and  N4_21 
REMARK    9  A    between atoms: C11_18  and  C12_19 
REMARK   10  A    between atoms: C11_18  and  C13_20 
REMARK   11  A    between atoms: N4_21  and  C14_22 
REMARK   12  A    between atoms: C14_22  and  C15_23 
REMARK   13  A    between atoms: C14_22  and  C16_25 
REMARK       I    between atoms: C15_23  and  N6_40 
REMARK   14  A    between atoms: C16_25  and  C17_26 
REMARK   15  A    between atoms: C17_26  and  C18_27 
REMARK   16  A    between atoms: C17_26  and  C19_28 
REMARK   17  A    between atoms: C20_29  and  C21_30 
REMARK   18  A    between atoms: C20_29  and  C24_33 
REMARK   19  A    between atoms: C20_29  and  N6_40 
REMARK   20  A    between atoms: C21_30  and  C22_31 
REMARK   21  A    between atoms: C22_31  and  C23_32 
REMARK   22  A    between atoms: C23_32  and  O8_43 
REMARK   23  A    between atoms: C24_33  and  C25_34 
REMARK   24  A    between atoms: C28_38  and  O6_39 
REMARK   25  A    between atoms: C29_42  and  O8_43 
REMARK   26  A    between atoms: C29_42  and  C35_49 
ROOT
ATOM      1  C14 non d ame     -36.415  11.580  24.795  0.00  0.00     0.089 C 
ATOM      2  H20 non d ame     -37.067  11.399  25.650  0.00  0.00     0.087 H 
ENDROOT
BRANCH   1   3
ATOM      3  N4  non d ame     -35.169  12.134  25.303  0.00  0.00    -0.346 N 
ATOM      4  C10 non d ame     -35.112  12.743  26.680  0.00  0.00     0.241 C 
ATOM      5  O4  non d ame     -36.083  12.779  27.362  0.00  0.00    -0.271 OA
ATOM      6  H19 non d ame     -34.355  12.096  24.706  0.00  0.00     0.163 HD
BRANCH   4   7
ATOM      7  C9  non d ame     -33.813  13.308  27.192  0.00  0.00     0.092 C 
ATOM      8  H11 non d ame     -33.996  14.290  27.627  0.00  0.00     0.088 H 
BRANCH   7   9
ATOM      9  N3  non d ame     -33.294  12.450  28.261  0.00  0.00    -0.346 N 
ATOM     10  C7  non d ame     -32.774  13.039  29.470  0.00  0.00     0.240 C 
ATOM     11  O3  non d ame     -32.765  14.202  29.599  0.00  0.00    -0.271 OA
ATOM     12  H10 non d ame     -33.294  11.445  28.163  0.00  0.00     0.163 HD
BRANCH  10  13
ATOM     13  C6  non d ame     -32.220  12.121  30.603  0.00  0.00     0.086 C 
ATOM     14  H6  non d ame     -32.572  12.412  31.592  0.00  0.00     0.086 H 
BRANCH  13  15
ATOM     15  N2  non d ame     -32.685  10.762  30.379  0.00  0.00    -0.343 N 
ATOM     16  C5  non d ame     -33.933  10.316  31.001  0.00  0.00     0.273 C 
ATOM     17  O2  non d ame     -34.554  11.055  31.683  0.00  0.00    -0.266 OA
ATOM     18  H5  non d ame     -32.147  10.136  29.798  0.00  0.00     0.163 HD
BRANCH  16  19
ATOM     19  C4  non d ame     -34.438   8.882  30.772  0.00  0.00     0.154 A 
ATOM     20  C1  non d ame     -34.816   7.929  31.770  0.00  0.00    -0.017 A 
ATOM     21  C2  non d ame     -35.200   6.778  31.046  0.00  0.00     0.077 A 
ATOM     22  H1  non d ame     -34.814   8.053  32.853  0.00  0.00     0.091 H 
ATOM     23  O1  non d ame     -35.057   7.049  29.782  0.00  0.00    -0.218 OA
ATOM     24  N1  non d ame     -34.612   8.271  29.597  0.00  0.00    -0.123 NA
BRANCH  21  25
ATOM     25  C3  non d ame     -35.693   5.464  31.636  0.00  0.00    -0.029 C 
ATOM     26  H2  non d ame     -36.760   5.356  31.444  0.00  0.00     0.036 H 
ATOM     27  H3  non d ame     -35.157   4.634  31.175  0.00  0.00     0.036 H 
ATOM     28  H4  non d ame     -35.515   5.458  32.711  0.00  0.00     0.036 H 
ENDBRANCH  21  25
ENDBRANCH  16  19
ENDBRANCH  13  15
BRANCH  13  29
ATOM     29  C8  non d ame     -30.713  12.159  30.593  0.00  0.00    -0.049 C 
ATOM     30  H7  non d ame     -30.371  13.116  30.984  0.00  0.00     0.030 H 
ATOM     31  H8  non d ame     -30.324  11.353  31.216  0.00  0.00     0.030 H 
ATOM     32  H9  non d ame     -30.353  12.034  29.571  0.00  0.00     0.030 H 
ENDBRANCH  13  29
ENDBRANCH  10  13
ENDBRANCH   7   9
BRANCH   7  33
ATOM     33  C11 non d ame     -32.779  13.366  26.029  0.00  0.00    -0.033 C 
ATOM     34  H12 non d ame     -33.297  13.081  25.114  0.00  0.00     0.042 H 
BRANCH  33  35
ATOM     35  C12 non d ame     -32.232  14.813  25.827  0.00  0.00    -0.071 C 
ATOM     36  H13 non d ame     -31.191  14.767  25.506  0.00  0.00     0.028 H 
ATOM     37  H14 non d ame     -32.823  15.323  25.067  0.00  0.00     0.028 H 
ATOM     38  H15 non d ame     -32.297  15.361  26.767  0.00  0.00     0.028 H 
ENDBRANCH  33  35
BRANCH  33  39
ATOM     39  C13 non d ame     -31.617  12.348  26.263  0.00  0.00    -0.071 C 
ATOM     40  H16 non d ame     -30.704  12.726  25.803  0.00  0.00     0.028 H 
ATOM     41  H17 non d ame     -31.458  12.217  27.334  0.00  0.00     0.028 H 
ATOM     42  H18 non d ame     -31.878  11.389  25.816  0.00  0.00     0.028 H 
ENDBRANCH  33  39
ENDBRANCH   7  33
ENDBRANCH   4   7
ENDBRANCH   1   3
BRANCH   1  43
ATOM     43  C15 non d ame     -36.094  10.272  24.015  0.00  0.00     0.240 C 
ATOM     44  O5  non d ame     -36.971   9.667  23.490  0.00  0.00    -0.271 OA
ATOM     45  N6  non d ame     -34.691   9.779  23.916  0.00  0.00    -0.355 N 
ATOM     46  H46 non d ame     -33.936  10.287  24.354  0.00  0.00     0.162 HD
BRANCH  45  47
ATOM     47  C20 non d ame     -34.402   8.534  23.171  0.00  0.00     0.013 C 
ATOM     48  H30 non d ame     -35.307   8.248  22.635  0.00  0.00     0.072 H 
BRANCH  47  49
ATOM     49  C21 non d ame     -34.012   7.447  24.145  0.00  0.00    -0.038 C 
ATOM     50  H31 non d ame     -34.754   6.658  24.019  0.00  0.00     0.036 H 
ATOM     51  H32 non d ame     -32.959   7.241  23.950  0.00  0.00     0.036 H 
BRANCH  49  52
ATOM     52  C22 non d ame     -34.103   7.901  25.619  0.00  0.00     0.018 C 
ATOM     53  H33 non d ame     -34.236   8.981  25.586  0.00  0.00     0.048 H 
ATOM     54  H34 non d ame     -34.866   7.271  26.075  0.00  0.00     0.048 H 
BRANCH  52  55
ATOM     55  C23 non d ame     -32.801   7.654  26.431  0.00  0.00     0.259 C 
ATOM     56  O7  non d ame     -32.191   8.567  26.885  0.00  0.00    -0.265 OA
BRANCH  55  57
ATOM     57  O8  non d ame     -32.337   6.321  26.615  0.00  0.00    -0.317 OA
BRANCH  57  58
ATOM     58  C29 non d ame     -33.223   5.496  27.378  0.00  0.00     0.052 C 
ATOM     59  H47 non d ame     -32.682   5.246  28.290  0.00  0.00     0.082 H 
ATOM     60  H48 non d ame     -34.163   6.044  27.434  0.00  0.00     0.082 H 
BRANCH  58  61
ATOM     61  C35 non d ame     -33.466   4.189  26.577  0.00  0.00    -0.034 A 
ATOM     62  C30 non d ame     -33.694   2.992  27.251  0.00  0.00    -0.075 A 
ATOM     63  C31 non d ame     -33.911   1.818  26.532  0.00  0.00    -0.082 A 
ATOM     64  H49 non d ame     -33.700   2.974  28.341  0.00  0.00     0.084 H 
ATOM     65  C32 non d ame     -33.900   1.842  25.135  0.00  0.00    -0.083 A 
ATOM     66  H50 non d ame     -34.091   0.881  27.063  0.00  0.00     0.083 H 
ATOM     67  C33 non d ame     -33.669   3.037  24.468  0.00  0.00    -0.082 A 
ATOM     68  H51 non d ame     -34.071   0.927  24.565  0.00  0.00     0.083 H 
ATOM     69  C34 non d ame     -33.452   4.214  25.182  0.00  0.00    -0.075 A 
ATOM     70  H52 non d ame     -33.658   3.052  23.377  0.00  0.00     0.083 H 
ATOM     71  H53 non d ame     -33.273   5.149  24.651  0.00  0.00     0.084 H 
ENDBRANCH  58  61
ENDBRANCH  57  58
ENDBRANCH  55  57
ENDBRANCH  52  55
ENDBRANCH  49  52
ENDBRANCH  47  49
BRANCH  47  72
ATOM     72  C24 non d ame     -33.258   8.775  22.188  0.00  0.00    -0.039 C 
ATOM     73  H35 non d ame     -33.343   7.980  21.445  0.00  0.00     0.036 H 
ATOM     74  H36 non d ame     -33.351   9.817  21.884  0.00  0.00     0.036 H 
BRANCH  72  75
ATOM     75  C25 non d ame     -31.828   8.613  22.892  0.00  0.00    -0.001 C 
ATOM     76  C26 non d ame     -31.212  10.094  23.252  0.00  0.00    -0.035 C 
ATOM     77  C27 non d ame     -29.951  10.173  22.763  0.00  0.00     0.085 C 
ATOM     78  H38 non d ame     -31.747  10.867  22.701  0.00  0.00     0.036 H 
ATOM     79  H39 non d ame     -31.073  10.190  24.329  0.00  0.00     0.036 H 
ATOM     80  N5  non d ame     -29.770   9.007  21.820  0.00  0.00    -0.049 N 
ATOM     81  H40 non d ame     -29.918  11.101  22.192  0.00  0.00     0.075 H 
ATOM     82  H41 non d ame     -29.296  10.039  23.623  0.00  0.00     0.075 H 
ATOM     83  C28 non d ame     -30.995   7.999  22.121  0.00  0.00     0.193 C 
ATOM     84  H42 non d ame     -29.878   9.375  20.887  0.00  0.00     0.280 HD
ATOM     85  H43 non d ame     -28.907   8.555  22.089  0.00  0.00     0.280 HD
ATOM     86  H44 non d ame     -30.831   7.086  22.693  0.00  0.00     0.129 H 
ATOM     87  H37 non d ame     -31.844   7.874  23.693  0.00  0.00     0.046 H 
BRANCH  83  88
ATOM     88  O6  non d ame     -31.600   7.581  20.896  0.00  0.00    -0.369 OA
ATOM     89  H45 non d ame     -31.029   6.945  20.458  0.00  0.00     0.212 HD
ENDBRANCH  83  88
ENDBRANCH  72  75
ENDBRANCH  47  72
ENDBRANCH  45  47
ENDBRANCH   1  43
BRANCH   1  90
ATOM     90  C16 non d ame     -37.062  12.587  23.858  0.00  0.00    -0.035 C 
ATOM     91  H21 non d ame     -36.235  13.136  23.410  0.00  0.00     0.037 H 
ATOM     92  H22 non d ame     -37.735  12.004  23.228  0.00  0.00     0.037 H 
BRANCH  90  93
ATOM     93  C17 non d ame     -37.948  13.644  24.591  0.00  0.00    -0.059 C 
ATOM     94  H23 non d ame     -38.045  13.330  25.630  0.00  0.00     0.038 H 
BRANCH  93  95
ATOM     95  C18 non d ame     -37.299  15.065  24.581  0.00  0.00    -0.073 C 
ATOM     96  H24 non d ame     -38.046  15.808  24.864  0.00  0.00     0.028 H 
ATOM     97  H25 non d ame     -36.474  15.093  25.293  0.00  0.00     0.028 H 
ATOM     98  H26 non d ame     -36.925  15.287  23.582  0.00  0.00     0.028 H 
ENDBRANCH  93  95
BRANCH  93  99
ATOM     99  C19 non d ame     -39.357  13.685  23.994  0.00  0.00    -0.073 C 
ATOM    100  H27 non d ame     -39.919  14.504  24.445  0.00  0.00     0.028 H 
ATOM    101  H28 non d ame     -39.293  13.840  22.917  0.00  0.00     0.028 H 
ATOM    102  H29 non d ame     -39.865  12.742  24.195  0.00  0.00     0.028 H 
ENDBRANCH  93  99
ENDBRANCH  90  93
ENDBRANCH   1  90
TORSDOF 26
ENDMDL
MODEL 20
REMARK VINA RESULT:      -5.7      2.837      7.429
REMARK  26 active torsions:
REMARK  status: ('A' for Active; 'I' for Inactive)
REMARK    1  A    between atoms: C2_2  and  C3_3 
REMARK    2  A    between atoms: C4_6  and  C5_7 
REMARK       I    between atoms: C5_7  and  N2_9 
REMARK    3  A    between atoms: N2_9  and  C6_10 
REMARK    4  A    between atoms: C6_10  and  C7_11 
REMARK    5  A    between atoms: C6_10  and  C8_13 
REMARK       I    between atoms: C7_11  and  N3_14 
REMARK    6  A    between atoms: N3_14  and  C9_15 
REMARK    7  A    between atoms: C9_15  and  C10_16 
REMARK    8  A    between atoms: C9_15  and  C11_18 
REMARK       I    between atoms: C10_16  and  N4_21 
REMARK    9  A    between atoms: C11_18  and  C12_19 
REMARK   10  A    between atoms: C11_18  and  C13_20 
REMARK   11  A    between atoms: N4_21  and  C14_22 
REMARK   12  A    between atoms: C14_22  and  C15_23 
REMARK   13  A    between atoms: C14_22  and  C16_25 
REMARK       I    between atoms: C15_23  and  N6_40 
REMARK   14  A    between atoms: C16_25  and  C17_26 
REMARK   15  A    between atoms: C17_26  and  C18_27 
REMARK   16  A    between atoms: C17_26  and  C19_28 
REMARK   17  A    between atoms: C20_29  and  C21_30 
REMARK   18  A    between atoms: C20_29  and  C24_33 
REMARK   19  A    between atoms: C20_29  and  N6_40 
REMARK   20  A    between atoms: C21_30  and  C22_31 
REMARK   21  A    between atoms: C22_31  and  C23_32 
REMARK   22  A    between atoms: C23_32  and  O8_43 
REMARK   23  A    between atoms: C24_33  and  C25_34 
REMARK   24  A    between atoms: C28_38  and  O6_39 
REMARK   25  A    between atoms: C29_42  and  O8_43 
REMARK   26  A    between atoms: C29_42  and  C35_49 
ROOT
ATOM      1  C14 non d ame     -37.079   9.772  27.936  0.00  0.00     0.089 C 
ATOM      2  H20 non d ame     -38.109   9.457  27.764  0.00  0.00     0.087 H 
ENDROOT
BRANCH   1   3
ATOM      3  N4  non d ame     -36.228   8.605  27.761  0.00  0.00    -0.346 N 
ATOM      4  C10 non d ame     -36.795   7.326  27.199  0.00  0.00     0.241 C 
ATOM      5  O4  non d ame     -37.941   7.259  26.896  0.00  0.00    -0.271 OA
ATOM      6  H19 non d ame     -35.257   8.682  28.028  0.00  0.00     0.163 HD
BRANCH   4   7
ATOM      7  C9  non d ame     -35.899   6.129  27.020  0.00  0.00     0.092 C 
ATOM      8  H11 non d ame     -36.257   5.535  26.180  0.00  0.00     0.088 H 
BRANCH   7   9
ATOM      9  N3  non d ame     -34.543   6.578  26.687  0.00  0.00    -0.346 N 
ATOM     10  C7  non d ame     -34.187   6.839  25.314  0.00  0.00     0.240 C 
ATOM     11  O3  non d ame     -34.979   6.692  24.465  0.00  0.00    -0.271 OA
ATOM     12  H10 non d ame     -33.850   6.708  27.410  0.00  0.00     0.163 HD
BRANCH  10  13
ATOM     13  C6  non d ame     -32.743   7.313  24.966  0.00  0.00     0.086 C 
ATOM     14  H6  non d ame     -32.690   7.840  24.013  0.00  0.00     0.086 H 
BRANCH  13  15
ATOM     15  N2  non d ame     -32.295   8.250  25.983  0.00  0.00    -0.343 N 
ATOM     16  C5  non d ame     -32.647   9.666  25.865  0.00  0.00     0.273 C 
ATOM     17  O2  non d ame     -33.287  10.044  24.946  0.00  0.00    -0.266 OA
ATOM     18  H5  non d ame     -31.746   7.919  26.764  0.00  0.00     0.163 HD
BRANCH  16  19
ATOM     19  C4  non d ame     -32.180  10.667  26.934  0.00  0.00     0.154 A 
ATOM     20  C1  non d ame     -32.846  10.998  28.157  0.00  0.00    -0.017 A 
ATOM     21  C2  non d ame     -32.013  11.958  28.774  0.00  0.00     0.077 A 
ATOM     22  H1  non d ame     -33.787  10.603  28.538  0.00  0.00     0.091 H 
ATOM     23  O1  non d ame     -30.992  12.148  27.991  0.00  0.00    -0.218 OA
ATOM     24  N1  non d ame     -31.068  11.405  26.911  0.00  0.00    -0.123 NA
BRANCH  21  25
ATOM     25  C3  non d ame     -32.265  12.643  30.111  0.00  0.00    -0.029 C 
ATOM     26  H2  non d ame     -31.507  13.409  30.275  0.00  0.00     0.036 H 
ATOM     27  H3  non d ame     -33.251  13.107  30.102  0.00  0.00     0.036 H 
ATOM     28  H4  non d ame     -32.217  11.907  30.912  0.00  0.00     0.036 H 
ENDBRANCH  21  25
ENDBRANCH  16  19
ENDBRANCH  13  15
BRANCH  13  29
ATOM     29  C8  non d ame     -31.818   6.124  24.916  0.00  0.00    -0.049 C 
ATOM     30  H7  non d ame     -31.981   5.499  25.793  0.00  0.00     0.030 H 
ATOM     31  H8  non d ame     -32.021   5.544  24.015  0.00  0.00     0.030 H 
ATOM     32  H9  non d ame     -30.783   6.468  24.902  0.00  0.00     0.030 H 
ENDBRANCH  13  29
ENDBRANCH  10  13
ENDBRANCH   7   9
BRANCH   7  33
ATOM     33  C11 non d ame     -35.860   5.309  28.343  0.00  0.00    -0.033 C 
ATOM     34  H12 non d ame     -35.542   4.297  28.094  0.00  0.00     0.042 H 
BRANCH  33  35
ATOM     35  C12 non d ame     -34.814   5.895  29.343  0.00  0.00    -0.071 C 
ATOM     36  H13 non d ame     -35.104   6.909  29.619  0.00  0.00     0.028 H 
ATOM     37  H14 non d ame     -34.777   5.272  30.237  0.00  0.00     0.028 H 
ATOM     38  H15 non d ame     -33.832   5.914  28.872  0.00  0.00     0.028 H 
ENDBRANCH  33  35
BRANCH  33  39
ATOM     39  C13 non d ame     -37.279   5.225  28.991  0.00  0.00    -0.071 C 
ATOM     40  H16 non d ame     -37.362   5.971  29.781  0.00  0.00     0.028 H 
ATOM     41  H17 non d ame     -38.038   5.413  28.231  0.00  0.00     0.028 H 
ATOM     42  H18 non d ame     -37.428   4.231  29.413  0.00  0.00     0.028 H 
ENDBRANCH  33  39
ENDBRANCH   7  33
ENDBRANCH   4   7
ENDBRANCH   1   3
BRANCH   1  43
ATOM     43  C15 non d ame     -36.626  10.871  26.931  0.00  0.00     0.240 C 
ATOM     44  O5  non d ame     -36.261  10.562  25.844  0.00  0.00    -0.271 OA
ATOM     45  N6  non d ame     -36.658  12.309  27.322  0.00  0.00    -0.355 N 
ATOM     46  H46 non d ame     -36.971  12.584  28.243  0.00  0.00     0.162 HD
BRANCH  45  47
ATOM     47  C20 non d ame     -36.224  13.341  26.355  0.00  0.00     0.013 C 
ATOM     48  H30 non d ame     -35.981  12.840  25.418  0.00  0.00     0.072 H 
BRANCH  47  49
ATOM     49  C21 non d ame     -35.003  14.051  26.895  0.00  0.00    -0.038 C 
ATOM     50  H31 non d ame     -35.308  15.086  27.048  0.00  0.00     0.036 H 
ATOM     51  H32 non d ame     -34.664  13.451  27.741  0.00  0.00     0.036 H 
BRANCH  49  52
ATOM     52  C22 non d ame     -33.834  14.083  25.886  0.00  0.00     0.018 C 
ATOM     53  H33 non d ame     -33.587  13.041  25.688  0.00  0.00     0.048 H 
ATOM     54  H34 non d ame     -34.164  14.730  25.073  0.00  0.00     0.048 H 
BRANCH  52  55
ATOM     55  C23 non d ame     -32.539  14.730  26.450  0.00  0.00     0.259 C 
ATOM     56  O7  non d ame     -32.530  15.214  27.536  0.00  0.00    -0.265 OA
BRANCH  55  57
ATOM     57  O8  non d ame     -31.365  14.753  25.647  0.00  0.00    -0.317 OA
BRANCH  57  58
ATOM     58  C29 non d ame     -31.229  15.930  24.846  0.00  0.00     0.052 C 
ATOM     59  H47 non d ame     -32.232  16.351  24.767  0.00  0.00     0.082 H 
ATOM     60  H48 non d ame     -30.429  16.509  25.304  0.00  0.00     0.082 H 
BRANCH  58  61
ATOM     61  C35 non d ame     -30.768  15.494  23.429  0.00  0.00    -0.034 A 
ATOM     62  C30 non d ame     -31.080  16.279  22.323  0.00  0.00    -0.075 A 
ATOM     63  C31 non d ame     -30.666  15.887  21.050  0.00  0.00    -0.082 A 
ATOM     64  H49 non d ame     -31.648  17.199  22.452  0.00  0.00     0.084 H 
ATOM     65  C32 non d ame     -29.939  14.705  20.886  0.00  0.00    -0.083 A 
ATOM     66  H50 non d ame     -30.910  16.505  20.185  0.00  0.00     0.083 H 
ATOM     67  C33 non d ame     -29.634  13.923  21.992  0.00  0.00    -0.082 A 
ATOM     68  H51 non d ame     -29.610  14.391  19.894  0.00  0.00     0.083 H 
ATOM     69  C34 non d ame     -30.044  14.312  23.266  0.00  0.00    -0.075 A 
ATOM     70  H52 non d ame     -29.068  13.000  21.860  0.00  0.00     0.083 H 
ATOM     71  H53 non d ame     -29.799  13.694  24.130  0.00  0.00     0.084 H 
ENDBRANCH  58  61
ENDBRANCH  57  58
ENDBRANCH  55  57
ENDBRANCH  52  55
ENDBRANCH  49  52
ENDBRANCH  47  49
BRANCH  47  72
ATOM     72  C24 non d ame     -37.349  14.351  26.141  0.00  0.00    -0.039 C 
ATOM     73  H35 non d ame     -38.274  13.784  26.253  0.00  0.00     0.036 H 
ATOM     74  H36 non d ame     -37.131  15.177  26.818  0.00  0.00     0.036 H 
BRANCH  72  75
ATOM     75  C25 non d ame     -37.337  14.945  24.653  0.00  0.00    -0.001 C 
ATOM     76  C26 non d ame     -36.832  16.509  24.679  0.00  0.00    -0.035 C 
ATOM     77  C27 non d ame     -37.727  17.268  24.002  0.00  0.00     0.085 C 
ATOM     78  H38 non d ame     -36.881  16.902  25.694  0.00  0.00     0.036 H 
ATOM     79  H39 non d ame     -35.916  16.617  24.097  0.00  0.00     0.036 H 
ATOM     80  N5  non d ame     -38.960  16.420  23.800  0.00  0.00    -0.049 N 
ATOM     81  H40 non d ame     -37.970  18.096  24.670  0.00  0.00     0.075 H 
ATOM     82  H41 non d ame     -37.269  17.466  23.034  0.00  0.00     0.075 H 
ATOM     83  C28 non d ame     -38.514  14.903  24.124  0.00  0.00     0.193 C 
ATOM     84  H42 non d ame     -39.628  16.715  24.497  0.00  0.00     0.280 HD
ATOM     85  H43 non d ame     -39.192  16.485  22.819  0.00  0.00     0.280 HD
ATOM     86  H44 non d ame     -38.342  14.193  23.315  0.00  0.00     0.129 H 
ATOM     87  H37 non d ame     -36.846  14.276  23.946  0.00  0.00     0.046 H 
BRANCH  83  88
ATOM     88  O6  non d ame     -39.470  14.281  24.984  0.00  0.00    -0.369 OA
ATOM     89  H45 non d ame     -39.183  14.365  25.896  0.00  0.00     0.212 HD
ENDBRANCH  83  88
ENDBRANCH  72  75
ENDBRANCH  47  72
ENDBRANCH  45  47
ENDBRANCH   1  43
BRANCH   1  90
ATOM     90  C16 non d ame     -36.930  10.288  29.358  0.00  0.00    -0.035 C 
ATOM     91  H21 non d ame     -36.286  11.162  29.282  0.00  0.00     0.037 H 
ATOM     92  H22 non d ame     -37.948  10.391  29.736  0.00  0.00     0.037 H 
BRANCH  90  93
ATOM     93  C17 non d ame     -36.204   9.288  30.314  0.00  0.00    -0.059 C 
ATOM     94  H23 non d ame     -35.838   8.459  29.708  0.00  0.00     0.038 H 
BRANCH  93  95
ATOM     95  C18 non d ame     -34.974   9.938  31.024  0.00  0.00    -0.073 C 
ATOM     96  H24 non d ame     -35.218  10.961  31.310  0.00  0.00     0.028 H 
ATOM     97  H25 non d ame     -34.723   9.363  31.915  0.00  0.00     0.028 H 
ATOM     98  H26 non d ame     -34.123   9.944  30.343  0.00  0.00     0.028 H 
ENDBRANCH  93  95
BRANCH  93  99
ATOM     99  C19 non d ame     -37.180   8.705  31.340  0.00  0.00    -0.073 C 
ATOM    100  H27 non d ame     -37.955   8.139  30.823  0.00  0.00     0.028 H 
ATOM    101  H28 non d ame     -36.642   8.045  32.021  0.00  0.00     0.028 H 
ATOM    102  H29 non d ame     -37.638   9.516  31.906  0.00  0.00     0.028 H 
ENDBRANCH  93  99
ENDBRANCH  90  93
ENDBRANCH   1  90
TORSDOF 26
ENDMDL
