MODEL 1
REMARK VINA RESULT:      -7.1      0.000      0.000
REMARK  26 active torsions:
REMARK  status: ('A' for Active; 'I' for Inactive)
REMARK    1  A    between atoms: C2_2  and  C3_3 
REMARK    2  A    between atoms: C4_6  and  C5_7 
REMARK       I    between atoms: C5_7  and  N2_9 
REMARK    3  A    between atoms: N2_9  and  C6_10 
REMARK    4  A    between atoms: C6_10  and  C7_11 
REMARK    5  A    between atoms: C6_10  and  C8_13 
REMARK       I    between atoms: C7_11  and  N3_14 
REMARK    6  A    between atoms: N3_14  and  C9_15 
REMARK    7  A    between atoms: C9_15  and  C10_16 
REMARK    8  A    between atoms: C9_15  and  C11_18 
REMARK       I    between atoms: C10_16  and  N4_21 
REMARK    9  A    between atoms: C11_18  and  C12_19 
REMARK   10  A    between atoms: C11_18  and  C13_20 
REMARK   11  A    between atoms: N4_21  and  C14_22 
REMARK   12  A    between atoms: C14_22  and  C15_23 
REMARK   13  A    between atoms: C14_22  and  C16_25 
REMARK       I    between atoms: C15_23  and  N6_40 
REMARK   14  A    between atoms: C16_25  and  C17_26 
REMARK   15  A    between atoms: C17_26  and  C18_27 
REMARK   16  A    between atoms: C17_26  and  C19_28 
REMARK   17  A    between atoms: C20_29  and  C21_30 
REMARK   18  A    between atoms: C20_29  and  C24_33 
REMARK   19  A    between atoms: C20_29  and  N6_40 
REMARK   20  A    between atoms: C21_30  and  C22_31 
REMARK   21  A    between atoms: C22_31  and  C23_32 
REMARK   22  A    between atoms: C23_32  and  O8_43 
REMARK   23  A    between atoms: C24_33  and  C25_34 
REMARK   24  A    between atoms: C28_38  and  O6_39 
REMARK   25  A    between atoms: C29_42  and  O8_43 
REMARK   26  A    between atoms: C29_42  and  C35_49 
ROOT
ATOM      1  C14 non d ame     -36.038  12.758  26.003  0.00  0.00     0.089 C 
ATOM      2  H20 non d ame     -36.756  12.653  26.817  0.00  0.00     0.087 H 
ENDROOT
BRANCH   1   3
ATOM      3  N4  non d ame     -35.792  14.180  25.816  0.00  0.00    -0.346 N 
ATOM      4  C10 non d ame     -36.739  15.200  26.396  0.00  0.00     0.241 C 
ATOM      5  O4  non d ame     -37.694  14.852  27.009  0.00  0.00    -0.271 OA
ATOM      6  H19 non d ame     -34.975  14.455  25.289  0.00  0.00     0.163 HD
BRANCH   4   7
ATOM      7  C9  non d ame     -36.466  16.668  26.196  0.00  0.00     0.092 C 
ATOM      8  H11 non d ame     -36.883  17.227  27.033  0.00  0.00     0.088 H 
BRANCH   7   9
ATOM      9  N3  non d ame     -35.019  16.901  26.196  0.00  0.00    -0.346 N 
ATOM     10  C7  non d ame     -34.380  17.465  27.358  0.00  0.00     0.240 C 
ATOM     11  O3  non d ame     -35.015  17.738  28.303  0.00  0.00    -0.271 OA
ATOM     12  H10 non d ame     -34.459  16.672  25.387  0.00  0.00     0.163 HD
BRANCH  10  13
ATOM     13  C6  non d ame     -32.840  17.715  27.351  0.00  0.00     0.086 C 
ATOM     14  H6  non d ame     -32.312  17.112  28.090  0.00  0.00     0.086 H 
BRANCH  13  15
ATOM     15  N2  non d ame     -32.307  17.339  26.052  0.00  0.00    -0.343 N 
ATOM     16  C5  non d ame     -31.721  16.010  25.869  0.00  0.00     0.273 C 
ATOM     17  O2  non d ame     -31.680  15.250  26.774  0.00  0.00    -0.266 OA
ATOM     18  H5  non d ame     -32.344  17.995  25.285  0.00  0.00     0.163 HD
BRANCH  16  19
ATOM     19  C4  non d ame     -31.155  15.600  24.500  0.00  0.00     0.154 A 
ATOM     20  C1  non d ame     -30.480  14.381  24.173  0.00  0.00    -0.017 A 
ATOM     21  C2  non d ame     -30.166  14.497  22.801  0.00  0.00     0.077 A 
ATOM     22  H1  non d ame     -30.254  13.542  24.831  0.00  0.00     0.091 H 
ATOM     23  O1  non d ame     -30.614  15.649  22.396  0.00  0.00    -0.218 OA
ATOM     24  N1  non d ame     -31.195  16.311  23.370  0.00  0.00    -0.123 NA
BRANCH  21  25
ATOM     25  C3  non d ame     -29.440  13.462  21.952  0.00  0.00    -0.029 C 
ATOM     26  H2  non d ame     -30.103  12.620  21.758  0.00  0.00     0.036 H 
ATOM     27  H3  non d ame     -29.142  13.913  21.005  0.00  0.00     0.036 H 
ATOM     28  H4  non d ame     -28.554  13.113  22.482  0.00  0.00     0.036 H 
ENDBRANCH  21  25
ENDBRANCH  16  19
ENDBRANCH  13  15
BRANCH  13  29
ATOM     29  C8  non d ame     -32.562  19.171  27.622  0.00  0.00    -0.049 C 
ATOM     30  H7  non d ame     -33.501  19.724  27.634  0.00  0.00     0.030 H 
ATOM     31  H8  non d ame     -32.069  19.274  28.588  0.00  0.00     0.030 H 
ATOM     32  H9  non d ame     -31.915  19.570  26.839  0.00  0.00     0.030 H 
ENDBRANCH  13  29
ENDBRANCH  10  13
ENDBRANCH   7   9
BRANCH   7  33
ATOM     33  C11 non d ame     -37.063  17.124  24.832  0.00  0.00    -0.033 C 
ATOM     34  H12 non d ame     -36.379  16.799  24.049  0.00  0.00     0.042 H 
BRANCH  33  35
ATOM     35  C12 non d ame     -38.442  16.447  24.561  0.00  0.00    -0.071 C 
ATOM     36  H13 non d ame     -38.414  15.938  23.597  0.00  0.00     0.028 H 
ATOM     37  H14 non d ame     -38.653  15.723  25.347  0.00  0.00     0.028 H 
ATOM     38  H15 non d ame     -39.224  17.207  24.546  0.00  0.00     0.028 H 
ENDBRANCH  33  35
BRANCH  33  39
ATOM     39  C13 non d ame     -37.172  18.681  24.762  0.00  0.00    -0.071 C 
ATOM     40  H16 non d ame     -36.207  19.124  25.007  0.00  0.00     0.028 H 
ATOM     41  H17 non d ame     -37.466  18.980  23.756  0.00  0.00     0.028 H 
ATOM     42  H18 non d ame     -37.921  19.025  25.475  0.00  0.00     0.028 H 
ENDBRANCH  33  39
ENDBRANCH   7  33
ENDBRANCH   4   7
ENDBRANCH   1   3
BRANCH   1  43
ATOM     43  C15 non d ame     -34.684  12.059  26.323  0.00  0.00     0.240 C 
ATOM     44  O5  non d ame     -33.662  12.613  26.078  0.00  0.00    -0.271 OA
ATOM     45  N6  non d ame     -34.664  10.704  26.943  0.00  0.00    -0.355 N 
ATOM     46  H46 non d ame     -35.527  10.226  27.160  0.00  0.00     0.162 HD
BRANCH  45  47
ATOM     47  C20 non d ame     -33.369  10.054  27.241  0.00  0.00     0.013 C 
ATOM     48  H30 non d ame     -32.577  10.694  26.853  0.00  0.00     0.072 H 
BRANCH  47  49
ATOM     49  C21 non d ame     -33.321   8.702  26.566  0.00  0.00    -0.038 C 
ATOM     50  H31 non d ame     -34.333   8.303  26.634  0.00  0.00     0.036 H 
ATOM     51  H32 non d ame     -32.868   8.877  25.589  0.00  0.00     0.036 H 
BRANCH  49  52
ATOM     52  C22 non d ame     -32.404   7.699  27.299  0.00  0.00     0.018 C 
ATOM     53  H33 non d ame     -31.424   8.171  27.341  0.00  0.00     0.048 H 
ATOM     54  H34 non d ame     -32.926   7.441  28.220  0.00  0.00     0.048 H 
BRANCH  52  55
ATOM     55  C23 non d ame     -32.202   6.361  26.533  0.00  0.00     0.259 C 
ATOM     56  O7  non d ame     -31.869   6.364  25.392  0.00  0.00    -0.265 OA
BRANCH  55  57
ATOM     57  O8  non d ame     -32.433   5.130  27.208  0.00  0.00    -0.317 OA
BRANCH  57  58
ATOM     58  C29 non d ame     -33.763   4.984  27.714  0.00  0.00     0.052 C 
ATOM     59  H47 non d ame     -34.240   5.954  27.575  0.00  0.00     0.082 H 
ATOM     60  H48 non d ame     -34.170   4.101  27.224  0.00  0.00     0.082 H 
BRANCH  58  61
ATOM     61  C35 non d ame     -33.667   4.698  29.237  0.00  0.00    -0.034 A 
ATOM     62  C30 non d ame     -34.569   5.292  30.115  0.00  0.00    -0.075 A 
ATOM     63  C31 non d ame     -34.482   5.036  31.483  0.00  0.00    -0.082 A 
ATOM     64  H49 non d ame     -35.342   5.958  29.733  0.00  0.00     0.084 H 
ATOM     65  C32 non d ame     -33.488   4.184  31.972  0.00  0.00    -0.083 A 
ATOM     66  H50 non d ame     -35.191   5.501  32.169  0.00  0.00     0.083 H 
ATOM     67  C33 non d ame     -32.588   3.598  31.092  0.00  0.00    -0.082 A 
ATOM     68  H51 non d ame     -33.414   3.978  33.041  0.00  0.00     0.083 H 
ATOM     69  C34 non d ame     -32.672   3.849  29.725  0.00  0.00    -0.075 A 
ATOM     70  H52 non d ame     -31.812   2.935  31.478  0.00  0.00     0.083 H 
ATOM     71  H53 non d ame     -31.963   3.384  29.040  0.00  0.00     0.084 H 
ENDBRANCH  58  61
ENDBRANCH  57  58
ENDBRANCH  55  57
ENDBRANCH  52  55
ENDBRANCH  49  52
ENDBRANCH  47  49
BRANCH  47  72
ATOM     72  C24 non d ame     -33.216   9.877  28.750  0.00  0.00    -0.039 C 
ATOM     73  H35 non d ame     -34.183   9.513  29.099  0.00  0.00     0.036 H 
ATOM     74  H36 non d ame     -32.324   9.264  28.881  0.00  0.00     0.036 H 
BRANCH  72  75
ATOM     75  C25 non d ame     -32.942  11.273  29.486  0.00  0.00    -0.001 C 
ATOM     76  C26 non d ame     -31.551  11.941  28.921  0.00  0.00    -0.035 C 
ATOM     77  C27 non d ame     -30.763  12.267  29.974  0.00  0.00     0.085 C 
ATOM     78  H38 non d ame     -30.966  11.192  28.388  0.00  0.00     0.036 H 
ATOM     79  H39 non d ame     -31.760  12.903  28.452  0.00  0.00     0.036 H 
ATOM     80  N5  non d ame     -31.347  11.585  31.189  0.00  0.00    -0.049 N 
ATOM     81  H40 non d ame     -29.789  11.830  29.755  0.00  0.00     0.075 H 
ATOM     82  H41 non d ame     -30.863  13.345  30.090  0.00  0.00     0.075 H 
ATOM     83  C28 non d ame     -32.831  11.114  30.763  0.00  0.00     0.193 C 
ATOM     84  H42 non d ame     -30.784  10.764  31.353  0.00  0.00     0.280 HD
ATOM     85  H43 non d ame     -31.427  12.295  31.903  0.00  0.00     0.280 HD
ATOM     86  H44 non d ame     -33.706  11.665  31.108  0.00  0.00     0.129 H 
ATOM     87  H37 non d ame     -33.826  11.910  29.505  0.00  0.00     0.046 H 
BRANCH  83  88
ATOM     88  O6  non d ame     -33.050   9.759  31.159  0.00  0.00    -0.369 OA
ATOM     89  H45 non d ame     -32.572   9.171  30.568  0.00  0.00     0.212 HD
ENDBRANCH  83  88
ENDBRANCH  72  75
ENDBRANCH  47  72
ENDBRANCH  45  47
ENDBRANCH   1  43
BRANCH   1  90
ATOM     90  C16 non d ame     -36.621  12.181  24.724  0.00  0.00    -0.035 C 
ATOM     91  H21 non d ame     -36.618  13.003  24.009  0.00  0.00     0.037 H 
ATOM     92  H22 non d ame     -36.040  11.280  24.523  0.00  0.00     0.037 H 
BRANCH  90  93
ATOM     93  C17 non d ame     -38.109  11.725  24.864  0.00  0.00    -0.059 C 
ATOM     94  H23 non d ame     -38.227  10.805  24.292  0.00  0.00     0.038 H 
BRANCH  93  95
ATOM     95  C18 non d ame     -38.494  11.416  26.346  0.00  0.00    -0.073 C 
ATOM     96  H24 non d ame     -37.708  11.779  27.009  0.00  0.00     0.028 H 
ATOM     97  H25 non d ame     -39.432  11.915  26.589  0.00  0.00     0.028 H 
ATOM     98  H26 non d ame     -38.610  10.340  26.475  0.00  0.00     0.028 H 
ENDBRANCH  93  95
BRANCH  93  99
ATOM     99  C19 non d ame     -39.058  12.763  24.260  0.00  0.00    -0.073 C 
ATOM    100  H27 non d ame     -39.953  12.263  23.887  0.00  0.00     0.028 H 
ATOM    101  H28 non d ame     -39.340  13.488  25.024  0.00  0.00     0.028 H 
ATOM    102  H29 non d ame     -38.560  13.277  23.438  0.00  0.00     0.028 H 
ENDBRANCH  93  99
ENDBRANCH  90  93
ENDBRANCH   1  90
TORSDOF 26
ENDMDL
MODEL 2
REMARK VINA RESULT:      -7.0      2.889      9.348
REMARK  26 active torsions:
REMARK  status: ('A' for Active; 'I' for Inactive)
REMARK    1  A    between atoms: C2_2  and  C3_3 
REMARK    2  A    between atoms: C4_6  and  C5_7 
REMARK       I    between atoms: C5_7  and  N2_9 
REMARK    3  A    between atoms: N2_9  and  C6_10 
REMARK    4  A    between atoms: C6_10  and  C7_11 
REMARK    5  A    between atoms: C6_10  and  C8_13 
REMARK       I    between atoms: C7_11  and  N3_14 
REMARK    6  A    between atoms: N3_14  and  C9_15 
REMARK    7  A    between atoms: C9_15  and  C10_16 
REMARK    8  A    between atoms: C9_15  and  C11_18 
REMARK       I    between atoms: C10_16  and  N4_21 
REMARK    9  A    between atoms: C11_18  and  C12_19 
REMARK   10  A    between atoms: C11_18  and  C13_20 
REMARK   11  A    between atoms: N4_21  and  C14_22 
REMARK   12  A    between atoms: C14_22  and  C15_23 
REMARK   13  A    between atoms: C14_22  and  C16_25 
REMARK       I    between atoms: C15_23  and  N6_40 
REMARK   14  A    between atoms: C16_25  and  C17_26 
REMARK   15  A    between atoms: C17_26  and  C18_27 
REMARK   16  A    between atoms: C17_26  and  C19_28 
REMARK   17  A    between atoms: C20_29  and  C21_30 
REMARK   18  A    between atoms: C20_29  and  C24_33 
REMARK   19  A    between atoms: C20_29  and  N6_40 
REMARK   20  A    between atoms: C21_30  and  C22_31 
REMARK   21  A    between atoms: C22_31  and  C23_32 
REMARK   22  A    between atoms: C23_32  and  O8_43 
REMARK   23  A    between atoms: C24_33  and  C25_34 
REMARK   24  A    between atoms: C28_38  and  O6_39 
REMARK   25  A    between atoms: C29_42  and  O8_43 
REMARK   26  A    between atoms: C29_42  and  C35_49 
ROOT
ATOM      1  C14 non d ame     -32.178   9.622  24.775  0.00  0.00     0.089 C 
ATOM      2  H20 non d ame     -31.502   8.803  25.022  0.00  0.00     0.087 H 
ENDROOT
BRANCH   1   3
ATOM      3  N4  non d ame     -33.501   9.263  25.265  0.00  0.00    -0.346 N 
ATOM      4  C10 non d ame     -33.735   7.921  25.910  0.00  0.00     0.241 C 
ATOM      5  O4  non d ame     -32.845   7.144  26.021  0.00  0.00    -0.271 OA
ATOM      6  H19 non d ame     -34.245   9.936  25.158  0.00  0.00     0.163 HD
BRANCH   4   7
ATOM      7  C9  non d ame     -35.109   7.567  26.416  0.00  0.00     0.092 C 
ATOM      8  H11 non d ame     -35.058   6.625  26.962  0.00  0.00     0.088 H 
BRANCH   7   9
ATOM      9  N3  non d ame     -35.561   8.592  27.361  0.00  0.00    -0.346 N 
ATOM     10  C7  non d ame     -35.389   8.391  28.778  0.00  0.00     0.240 C 
ATOM     11  O3  non d ame     -34.890   7.410  29.176  0.00  0.00    -0.271 OA
ATOM     12  H10 non d ame     -35.995   9.443  27.032  0.00  0.00     0.163 HD
BRANCH  10  13
ATOM     13  C6  non d ame     -35.875   9.485  29.780  0.00  0.00     0.086 C 
ATOM     14  H6  non d ame     -35.847   9.150  30.816  0.00  0.00     0.086 H 
BRANCH  13  15
ATOM     15  N2  non d ame     -34.990  10.634  29.690  0.00  0.00    -0.343 N 
ATOM     16  C5  non d ame     -33.744  10.647  30.461  0.00  0.00     0.273 C 
ATOM     17  O2  non d ame     -33.465   9.730  31.153  0.00  0.00    -0.266 OA
ATOM     18  H5  non d ame     -35.237  11.414  29.099  0.00  0.00     0.163 HD
BRANCH  16  19
ATOM     19  C4  non d ame     -32.798  11.855  30.375  0.00  0.00     0.154 A 
ATOM     20  C1  non d ame     -32.976  13.038  29.590  0.00  0.00    -0.017 A 
ATOM     21  C2  non d ame     -31.838  13.829  29.863  0.00  0.00     0.077 A 
ATOM     22  H1  non d ame     -33.804  13.284  28.925  0.00  0.00     0.091 H 
ATOM     23  O1  non d ame     -31.101  13.170  30.707  0.00  0.00    -0.218 OA
ATOM     24  N1  non d ame     -31.641  12.015  31.021  0.00  0.00    -0.123 NA
BRANCH  21  25
ATOM     25  C3  non d ame     -31.532  15.201  29.277  0.00  0.00    -0.029 C 
ATOM     26  H2  non d ame     -31.506  15.940  30.077  0.00  0.00     0.036 H 
ATOM     27  H3  non d ame     -30.564  15.176  28.777  0.00  0.00     0.036 H 
ATOM     28  H4  non d ame     -32.305  15.471  28.558  0.00  0.00     0.036 H 
ENDBRANCH  21  25
ENDBRANCH  16  19
ENDBRANCH  13  15
BRANCH  13  29
ATOM     29  C8  non d ame     -37.286   9.892  29.438  0.00  0.00    -0.049 C 
ATOM     30  H7  non d ame     -37.866   9.008  29.176  0.00  0.00     0.030 H 
ATOM     31  H8  non d ame     -37.741  10.382  30.298  0.00  0.00     0.030 H 
ATOM     32  H9  non d ame     -37.271  10.580  28.592  0.00  0.00     0.030 H 
ENDBRANCH  13  29
ENDBRANCH  10  13
ENDBRANCH   7   9
BRANCH   7  33
ATOM     33  C11 non d ame     -36.101   7.497  25.217  0.00  0.00    -0.033 C 
ATOM     34  H12 non d ame     -36.132   8.485  24.759  0.00  0.00     0.042 H 
BRANCH  33  35
ATOM     35  C12 non d ame     -35.607   6.492  24.130  0.00  0.00    -0.071 C 
ATOM     36  H13 non d ame     -34.964   7.012  23.419  0.00  0.00     0.028 H 
ATOM     37  H14 non d ame     -35.047   5.687  24.606  0.00  0.00     0.028 H 
ATOM     38  H15 non d ame     -36.466   6.076  23.604  0.00  0.00     0.028 H 
ENDBRANCH  33  35
BRANCH  33  39
ATOM     39  C13 non d ame     -37.542   7.144  25.704  0.00  0.00    -0.071 C 
ATOM     40  H16 non d ame     -37.732   7.629  26.662  0.00  0.00     0.028 H 
ATOM     41  H17 non d ame     -38.270   7.491  24.969  0.00  0.00     0.028 H 
ATOM     42  H18 non d ame     -37.632   6.064  25.820  0.00  0.00     0.028 H 
ENDBRANCH  33  39
ENDBRANCH   7  33
ENDBRANCH   4   7
ENDBRANCH   1   3
BRANCH   1  43
ATOM     43  C15 non d ame     -31.749  10.960  25.444  0.00  0.00     0.240 C 
ATOM     44  O5  non d ame     -30.829  10.975  26.196  0.00  0.00    -0.271 OA
ATOM     45  N6  non d ame     -32.478  12.224  25.138  0.00  0.00    -0.355 N 
ATOM     46  H46 non d ame     -33.258  12.224  24.496  0.00  0.00     0.162 HD
BRANCH  45  47
ATOM     47  C20 non d ame     -32.056  13.487  25.782  0.00  0.00     0.013 C 
ATOM     48  H30 non d ame     -31.762  13.258  26.807  0.00  0.00     0.072 H 
BRANCH  47  49
ATOM     49  C21 non d ame     -33.213  14.460  25.780  0.00  0.00    -0.038 C 
ATOM     50  H31 non d ame     -32.937  15.246  26.483  0.00  0.00     0.036 H 
ATOM     51  H32 non d ame     -33.391  14.703  24.732  0.00  0.00     0.036 H 
BRANCH  49  52
ATOM     52  C22 non d ame     -34.522  13.836  26.312  0.00  0.00     0.018 C 
ATOM     53  H33 non d ame     -34.789  13.058  25.598  0.00  0.00     0.048 H 
ATOM     54  H34 non d ame     -34.323  13.577  27.352  0.00  0.00     0.048 H 
BRANCH  52  55
ATOM     55  C23 non d ame     -35.721  14.824  26.338  0.00  0.00     0.259 C 
ATOM     56  O7  non d ame     -36.698  14.570  26.965  0.00  0.00    -0.265 OA
BRANCH  55  57
ATOM     57  O8  non d ame     -35.644  16.033  25.592  0.00  0.00    -0.317 OA
BRANCH  57  58
ATOM     58  C29 non d ame     -36.002  17.201  26.337  0.00  0.00     0.052 C 
ATOM     59  H47 non d ame     -36.641  17.787  25.676  0.00  0.00     0.082 H 
ATOM     60  H48 non d ame     -36.389  16.838  27.288  0.00  0.00     0.082 H 
BRANCH  58  61
ATOM     61  C35 non d ame     -34.706  18.010  26.612  0.00  0.00    -0.034 A 
ATOM     62  C30 non d ame     -34.287  18.981  25.707  0.00  0.00    -0.075 A 
ATOM     63  C31 non d ame     -33.122  19.707  25.954  0.00  0.00    -0.082 A 
ATOM     64  H49 non d ame     -34.869  19.173  24.806  0.00  0.00     0.084 H 
ATOM     65  C32 non d ame     -32.376  19.459  27.108  0.00  0.00    -0.083 A 
ATOM     66  H50 non d ame     -32.797  20.470  25.244  0.00  0.00     0.083 H 
ATOM     67  C33 non d ame     -32.796  18.486  28.005  0.00  0.00    -0.082 A 
ATOM     68  H51 non d ame     -31.464  20.023  27.309  0.00  0.00     0.083 H 
ATOM     69  C34 non d ame     -33.960  17.759  27.764  0.00  0.00    -0.075 A 
ATOM     70  H52 non d ame     -32.210  18.292  28.904  0.00  0.00     0.083 H 
ATOM     71  H53 non d ame     -34.285  16.998  28.474  0.00  0.00     0.084 H 
ENDBRANCH  58  61
ENDBRANCH  57  58
ENDBRANCH  55  57
ENDBRANCH  52  55
ENDBRANCH  49  52
ENDBRANCH  47  49
BRANCH  47  72
ATOM     72  C24 non d ame     -30.880  14.089  25.016  0.00  0.00    -0.039 C 
ATOM     73  H35 non d ame     -30.833  15.132  25.332  0.00  0.00     0.036 H 
ATOM     74  H36 non d ame     -30.038  13.424  25.206  0.00  0.00     0.036 H 
BRANCH  72  75
ATOM     75  C25 non d ame     -31.139  14.085  23.435  0.00  0.00    -0.001 C 
ATOM     76  C26 non d ame     -29.989  13.184  22.682  0.00  0.00    -0.035 C 
ATOM     77  C27 non d ame     -29.449  13.914  21.677  0.00  0.00     0.085 C 
ATOM     78  H38 non d ame     -29.148  13.013  23.353  0.00  0.00     0.036 H 
ATOM     79  H39 non d ame     -30.452  12.343  22.164  0.00  0.00     0.036 H 
ATOM     80  N5  non d ame     -29.893  15.343  21.884  0.00  0.00    -0.049 N 
ATOM     81  H40 non d ame     -28.370  13.853  21.820  0.00  0.00     0.075 H 
ATOM     82  H41 non d ame     -29.900  13.531  20.763  0.00  0.00     0.075 H 
ATOM     83  C28 non d ame     -31.101  15.283  22.953  0.00  0.00     0.193 C 
ATOM     84  H42 non d ame     -29.113  15.826  22.306  0.00  0.00     0.280 HD
ATOM     85  H43 non d ame     -30.262  15.657  20.997  0.00  0.00     0.280 HD
ATOM     86  H44 non d ame     -32.135  15.397  22.625  0.00  0.00     0.129 H 
ATOM     87  H37 non d ame     -32.178  13.871  23.187  0.00  0.00     0.046 H 
BRANCH  83  88
ATOM     88  O6  non d ame     -30.909  16.268  23.969  0.00  0.00    -0.369 OA
ATOM     89  H45 non d ame     -31.750  16.686  24.172  0.00  0.00     0.212 HD
ENDBRANCH  83  88
ENDBRANCH  72  75
ENDBRANCH  47  72
ENDBRANCH  45  47
ENDBRANCH   1  43
BRANCH   1  90
ATOM     90  C16 non d ame     -32.239   9.802  23.266  0.00  0.00    -0.035 C 
ATOM     91  H21 non d ame     -33.225   9.444  22.973  0.00  0.00     0.037 H 
ATOM     92  H22 non d ame     -31.960  10.841  23.089  0.00  0.00     0.037 H 
BRANCH  90  93
ATOM     93  C17 non d ame     -31.204   8.928  22.490  0.00  0.00    -0.059 C 
ATOM     94  H23 non d ame     -31.499   8.921  21.440  0.00  0.00     0.038 H 
BRANCH  93  95
ATOM     95  C18 non d ame     -29.758   9.512  22.574  0.00  0.00    -0.073 C 
ATOM     96  H24 non d ame     -29.704  10.436  21.997  0.00  0.00     0.028 H 
ATOM     97  H25 non d ame     -29.510   9.720  23.614  0.00  0.00     0.028 H 
ATOM     98  H26 non d ame     -29.049   8.789  22.169  0.00  0.00     0.028 H 
ENDBRANCH  93  95
BRANCH  93  99
ATOM     99  C19 non d ame     -31.234   7.478  22.981  0.00  0.00    -0.073 C 
ATOM    100  H27 non d ame     -31.643   7.446  23.992  0.00  0.00     0.028 H 
ATOM    101  H28 non d ame     -31.861   6.881  22.318  0.00  0.00     0.028 H 
ATOM    102  H29 non d ame     -30.222   7.074  22.986  0.00  0.00     0.028 H 
ENDBRANCH  93  99
ENDBRANCH  90  93
ENDBRANCH   1  90
TORSDOF 26
ENDMDL
MODEL 3
REMARK VINA RESULT:      -7.0      2.412      9.453
REMARK  26 active torsions:
REMARK  status: ('A' for Active; 'I' for Inactive)
REMARK    1  A    between atoms: C2_2  and  C3_3 
REMARK    2  A    between atoms: C4_6  and  C5_7 
REMARK       I    between atoms: C5_7  and  N2_9 
REMARK    3  A    between atoms: N2_9  and  C6_10 
REMARK    4  A    between atoms: C6_10  and  C7_11 
REMARK    5  A    between atoms: C6_10  and  C8_13 
REMARK       I    between atoms: C7_11  and  N3_14 
REMARK    6  A    between atoms: N3_14  and  C9_15 
REMARK    7  A    between atoms: C9_15  and  C10_16 
REMARK    8  A    between atoms: C9_15  and  C11_18 
REMARK       I    between atoms: C10_16  and  N4_21 
REMARK    9  A    between atoms: C11_18  and  C12_19 
REMARK   10  A    between atoms: C11_18  and  C13_20 
REMARK   11  A    between atoms: N4_21  and  C14_22 
REMARK   12  A    between atoms: C14_22  and  C15_23 
REMARK   13  A    between atoms: C14_22  and  C16_25 
REMARK       I    between atoms: C15_23  and  N6_40 
REMARK   14  A    between atoms: C16_25  and  C17_26 
REMARK   15  A    between atoms: C17_26  and  C18_27 
REMARK   16  A    between atoms: C17_26  and  C19_28 
REMARK   17  A    between atoms: C20_29  and  C21_30 
REMARK   18  A    between atoms: C20_29  and  C24_33 
REMARK   19  A    between atoms: C20_29  and  N6_40 
REMARK   20  A    between atoms: C21_30  and  C22_31 
REMARK   21  A    between atoms: C22_31  and  C23_32 
REMARK   22  A    between atoms: C23_32  and  O8_43 
REMARK   23  A    between atoms: C24_33  and  C25_34 
REMARK   24  A    between atoms: C28_38  and  O6_39 
REMARK   25  A    between atoms: C29_42  and  O8_43 
REMARK   26  A    between atoms: C29_42  and  C35_49 
ROOT
ATOM      1  C14 non d ame     -33.104  11.904  28.382  0.00  0.00     0.089 C 
ATOM      2  H20 non d ame     -33.336  12.286  29.377  0.00  0.00     0.087 H 
ENDROOT
BRANCH   1   3
ATOM      3  N4  non d ame     -33.616  10.544  28.305  0.00  0.00    -0.346 N 
ATOM      4  C10 non d ame     -34.375   9.949  29.463  0.00  0.00     0.241 C 
ATOM      5  O4  non d ame     -34.561  10.583  30.449  0.00  0.00    -0.271 OA
ATOM      6  H19 non d ame     -33.445  10.020  27.458  0.00  0.00     0.163 HD
BRANCH   4   7
ATOM      7  C9  non d ame     -34.902   8.541  29.364  0.00  0.00     0.092 C 
ATOM      8  H11 non d ame     -35.819   8.542  28.775  0.00  0.00     0.088 H 
BRANCH   7   9
ATOM      9  N3  non d ame     -33.930   7.704  28.652  0.00  0.00    -0.346 N 
ATOM     10  C7  non d ame     -34.179   7.315  27.287  0.00  0.00     0.240 C 
ATOM     11  O3  non d ame     -35.155   7.665  26.744  0.00  0.00    -0.271 OA
ATOM     12  H10 non d ame     -33.085   7.393  29.108  0.00  0.00     0.163 HD
BRANCH  10  13
ATOM     13  C6  non d ame     -33.143   6.422  26.536  0.00  0.00     0.086 C 
ATOM     14  H6  non d ame     -33.609   5.752  25.813  0.00  0.00     0.086 H 
BRANCH  13  15
ATOM     15  N2  non d ame     -32.239   7.277  25.786  0.00  0.00    -0.343 N 
ATOM     16  C5  non d ame     -32.512   7.555  24.375  0.00  0.00     0.273 C 
ATOM     17  O2  non d ame     -33.461   7.084  23.850  0.00  0.00    -0.266 OA
ATOM     18  H5  non d ame     -31.428   7.673  26.241  0.00  0.00     0.163 HD
BRANCH  16  19
ATOM     19  C4  non d ame     -31.564   8.459  23.570  0.00  0.00     0.154 A 
ATOM     20  C1  non d ame     -31.406   9.875  23.695  0.00  0.00    -0.017 A 
ATOM     21  C2  non d ame     -30.424  10.216  22.739  0.00  0.00     0.077 A 
ATOM     22  H1  non d ame     -31.925  10.551  24.375  0.00  0.00     0.091 H 
ATOM     23  O1  non d ame     -30.065   9.118  22.142  0.00  0.00    -0.218 OA
ATOM     24  N1  non d ame     -30.717   8.079  22.610  0.00  0.00    -0.123 NA
BRANCH  21  25
ATOM     25  C3  non d ame     -29.883  11.613  22.461  0.00  0.00    -0.029 C 
ATOM     26  H2  non d ame     -29.168  11.887  23.236  0.00  0.00     0.036 H 
ATOM     27  H3  non d ame     -29.386  11.624  21.491  0.00  0.00     0.036 H 
ATOM     28  H4  non d ame     -30.705  12.328  22.456  0.00  0.00     0.036 H 
ENDBRANCH  21  25
ENDBRANCH  16  19
ENDBRANCH  13  15
BRANCH  13  29
ATOM     29  C8  non d ame     -32.369   5.599  27.533  0.00  0.00    -0.049 C 
ATOM     30  H7  non d ame     -32.287   6.146  28.471  0.00  0.00     0.030 H 
ATOM     31  H8  non d ame     -32.887   4.656  27.707  0.00  0.00     0.030 H 
ATOM     32  H9  non d ame     -31.370   5.398  27.142  0.00  0.00     0.030 H 
ENDBRANCH  13  29
ENDBRANCH  10  13
ENDBRANCH   7   9
BRANCH   7  33
ATOM     33  C11 non d ame     -35.124   7.969  30.795  0.00  0.00    -0.033 C 
ATOM     34  H12 non d ame     -34.423   8.470  31.462  0.00  0.00     0.042 H 
BRANCH  33  35
ATOM     35  C12 non d ame     -36.564   8.278  31.312  0.00  0.00    -0.071 C 
ATOM     36  H13 non d ame     -37.239   8.388  30.463  0.00  0.00     0.028 H 
ATOM     37  H14 non d ame     -36.906   7.461  31.946  0.00  0.00     0.028 H 
ATOM     38  H15 non d ame     -36.553   9.205  31.887  0.00  0.00     0.028 H 
ENDBRANCH  33  35
BRANCH  33  39
ATOM     39  C13 non d ame     -34.823   6.437  30.839  0.00  0.00    -0.071 C 
ATOM     40  H16 non d ame     -33.754   6.281  30.980  0.00  0.00     0.028 H 
ATOM     41  H17 non d ame     -35.370   5.982  31.665  0.00  0.00     0.028 H 
ATOM     42  H18 non d ame     -35.136   5.978  29.901  0.00  0.00     0.028 H 
ENDBRANCH  33  39
ENDBRANCH   7  33
ENDBRANCH   4   7
ENDBRANCH   1   3
BRANCH   1  43
ATOM     43  C15 non d ame     -33.772  12.749  27.259  0.00  0.00     0.240 C 
ATOM     44  O5  non d ame     -33.728  12.375  26.132  0.00  0.00    -0.271 OA
ATOM     45  N6  non d ame     -34.476  14.021  27.590  0.00  0.00    -0.355 N 
ATOM     46  H46 non d ame     -34.525  14.347  28.545  0.00  0.00     0.162 HD
BRANCH  45  47
ATOM     47  C20 non d ame     -35.107  14.812  26.511  0.00  0.00     0.013 C 
ATOM     48  H30 non d ame     -34.808  14.375  25.558  0.00  0.00     0.072 H 
BRANCH  47  49
ATOM     49  C21 non d ame     -34.629  16.244  26.596  0.00  0.00    -0.038 C 
ATOM     50  H31 non d ame     -35.525  16.859  26.501  0.00  0.00     0.036 H 
ATOM     51  H32 non d ame     -34.024  16.299  27.501  0.00  0.00     0.036 H 
BRANCH  49  52
ATOM     52  C22 non d ame     -33.702  16.637  25.426  0.00  0.00     0.018 C 
ATOM     53  H33 non d ame     -33.503  15.713  24.884  0.00  0.00     0.048 H 
ATOM     54  H34 non d ame     -34.197  17.468  24.924  0.00  0.00     0.048 H 
BRANCH  52  55
ATOM     55  C23 non d ame     -32.316  17.174  25.879  0.00  0.00     0.259 C 
ATOM     56  O7  non d ame     -32.224  18.235  26.408  0.00  0.00    -0.265 OA
BRANCH  55  57
ATOM     57  O8  non d ame     -31.153  16.390  25.642  0.00  0.00    -0.317 OA
BRANCH  57  58
ATOM     58  C29 non d ame     -31.408  15.160  24.958  0.00  0.00     0.052 C 
ATOM     59  H47 non d ame     -30.855  14.398  25.505  0.00  0.00     0.082 H 
ATOM     60  H48 non d ame     -32.492  15.091  24.870  0.00  0.00     0.082 H 
BRANCH  58  61
ATOM     61  C35 non d ame     -30.808  15.273  23.531  0.00  0.00    -0.034 A 
ATOM     62  C30 non d ame     -29.429  15.217  23.349  0.00  0.00    -0.075 A 
ATOM     63  C31 non d ame     -28.890  15.319  22.067  0.00  0.00    -0.082 A 
ATOM     64  H49 non d ame     -28.772  15.094  24.210  0.00  0.00     0.084 H 
ATOM     65  C32 non d ame     -29.734  15.479  20.965  0.00  0.00    -0.083 A 
ATOM     66  H50 non d ame     -27.809  15.272  21.928  0.00  0.00     0.083 H 
ATOM     67  C33 non d ame     -31.108  15.539  21.153  0.00  0.00    -0.082 A 
ATOM     68  H51 non d ame     -29.320  15.559  19.960  0.00  0.00     0.083 H 
ATOM     69  C34 non d ame     -31.652  15.436  22.431  0.00  0.00    -0.075 A 
ATOM     70  H52 non d ame     -31.764  15.667  20.291  0.00  0.00     0.083 H 
ATOM     71  H53 non d ame     -32.732  15.482  22.570  0.00  0.00     0.084 H 
ENDBRANCH  58  61
ENDBRANCH  57  58
ENDBRANCH  55  57
ENDBRANCH  52  55
ENDBRANCH  49  52
ENDBRANCH  47  49
BRANCH  47  72
ATOM     72  C24 non d ame     -36.626  14.770  26.661  0.00  0.00    -0.039 C 
ATOM     73  H35 non d ame     -36.812  14.796  27.736  0.00  0.00     0.036 H 
ATOM     74  H36 non d ame     -37.003  15.570  26.024  0.00  0.00     0.036 H 
BRANCH  72  75
ATOM     75  C25 non d ame     -37.239  13.397  26.109  0.00  0.00    -0.001 C 
ATOM     76  C26 non d ame     -36.890  13.232  24.511  0.00  0.00    -0.035 C 
ATOM     77  C27 non d ame     -38.035  12.960  23.839  0.00  0.00     0.085 C 
ATOM     78  H38 non d ame     -36.572  14.188  24.096  0.00  0.00     0.036 H 
ATOM     79  H39 non d ame     -36.284  12.340  24.350  0.00  0.00     0.036 H 
ATOM     80  N5  non d ame     -39.178  13.249  24.783  0.00  0.00    -0.049 N 
ATOM     81  H40 non d ame     -38.065  13.673  23.015  0.00  0.00     0.075 H 
ATOM     82  H41 non d ame     -38.006  11.891  23.634  0.00  0.00     0.075 H 
ATOM     83  C28 non d ame     -38.522  13.367  26.253  0.00  0.00     0.193 C 
ATOM     84  H42 non d ame     -39.544  14.153  24.520  0.00  0.00     0.280 HD
ATOM     85  H43 non d ame     -39.777  12.436  24.762  0.00  0.00     0.280 HD
ATOM     86  H44 non d ame     -38.621  12.552  26.970  0.00  0.00     0.129 H 
ATOM     87  H37 non d ame     -37.009  12.552  26.757  0.00  0.00     0.046 H 
BRANCH  83  88
ATOM     88  O6  non d ame     -39.017  14.528  26.922  0.00  0.00    -0.369 OA
ATOM     89  H45 non d ame     -39.847  14.799  26.522  0.00  0.00     0.212 HD
ENDBRANCH  83  88
ENDBRANCH  72  75
ENDBRANCH  47  72
ENDBRANCH  45  47
ENDBRANCH   1  43
BRANCH   1  90
ATOM     90  C16 non d ame     -31.598  11.882  28.177  0.00  0.00    -0.035 C 
ATOM     91  H21 non d ame     -31.309  10.837  28.279  0.00  0.00     0.037 H 
ATOM     92  H22 non d ame     -31.427  12.406  27.236  0.00  0.00     0.037 H 
BRANCH  90  93
ATOM     93  C17 non d ame     -30.806  12.667  29.271  0.00  0.00    -0.059 C 
ATOM     94  H23 non d ame     -29.753  12.402  29.169  0.00  0.00     0.038 H 
BRANCH  93  95
ATOM     95  C18 non d ame     -30.927  14.213  29.090  0.00  0.00    -0.073 C 
ATOM     96  H24 non d ame     -31.473  14.637  29.934  0.00  0.00     0.028 H 
ATOM     97  H25 non d ame     -29.931  14.653  29.047  0.00  0.00     0.028 H 
ATOM     98  H26 non d ame     -31.461  14.431  28.166  0.00  0.00     0.028 H 
ENDBRANCH  93  95
BRANCH  93  99
ATOM     99  C19 non d ame     -31.248  12.246  30.675  0.00  0.00    -0.073 C 
ATOM    100  H27 non d ame     -32.220  11.753  30.617  0.00  0.00     0.028 H 
ATOM    101  H28 non d ame     -30.517  11.556  31.096  0.00  0.00     0.028 H 
ATOM    102  H29 non d ame     -31.325  13.127  31.311  0.00  0.00     0.028 H 
ENDBRANCH  93  99
ENDBRANCH  90  93
ENDBRANCH   1  90
TORSDOF 26
ENDMDL
MODEL 4
REMARK VINA RESULT:      -6.9      3.125     10.329
REMARK  26 active torsions:
REMARK  status: ('A' for Active; 'I' for Inactive)
REMARK    1  A    between atoms: C2_2  and  C3_3 
REMARK    2  A    between atoms: C4_6  and  C5_7 
REMARK       I    between atoms: C5_7  and  N2_9 
REMARK    3  A    between atoms: N2_9  and  C6_10 
REMARK    4  A    between atoms: C6_10  and  C7_11 
REMARK    5  A    between atoms: C6_10  and  C8_13 
REMARK       I    between atoms: C7_11  and  N3_14 
REMARK    6  A    between atoms: N3_14  and  C9_15 
REMARK    7  A    between atoms: C9_15  and  C10_16 
REMARK    8  A    between atoms: C9_15  and  C11_18 
REMARK       I    between atoms: C10_16  and  N4_21 
REMARK    9  A    between atoms: C11_18  and  C12_19 
REMARK   10  A    between atoms: C11_18  and  C13_20 
REMARK   11  A    between atoms: N4_21  and  C14_22 
REMARK   12  A    between atoms: C14_22  and  C15_23 
REMARK   13  A    between atoms: C14_22  and  C16_25 
REMARK       I    between atoms: C15_23  and  N6_40 
REMARK   14  A    between atoms: C16_25  and  C17_26 
REMARK   15  A    between atoms: C17_26  and  C18_27 
REMARK   16  A    between atoms: C17_26  and  C19_28 
REMARK   17  A    between atoms: C20_29  and  C21_30 
REMARK   18  A    between atoms: C20_29  and  C24_33 
REMARK   19  A    between atoms: C20_29  and  N6_40 
REMARK   20  A    between atoms: C21_30  and  C22_31 
REMARK   21  A    between atoms: C22_31  and  C23_32 
REMARK   22  A    between atoms: C23_32  and  O8_43 
REMARK   23  A    between atoms: C24_33  and  C25_34 
REMARK   24  A    between atoms: C28_38  and  O6_39 
REMARK   25  A    between atoms: C29_42  and  O8_43 
REMARK   26  A    between atoms: C29_42  and  C35_49 
ROOT
ATOM      1  C14 non d ame     -31.061  14.123  24.556  0.00  0.00     0.089 C 
ATOM      2  H20 non d ame     -30.129  14.065  25.118  0.00  0.00     0.087 H 
ENDROOT
BRANCH   1   3
ATOM      3  N4  non d ame     -31.386  12.778  24.104  0.00  0.00    -0.346 N 
ATOM      4  C10 non d ame     -31.239  11.605  25.038  0.00  0.00     0.241 C 
ATOM      5  O4  non d ame     -30.857  11.765  26.150  0.00  0.00    -0.271 OA
ATOM      6  H19 non d ame     -31.707  12.662  23.154  0.00  0.00     0.163 HD
BRANCH   4   7
ATOM      7  C9  non d ame     -31.584  10.220  24.555  0.00  0.00     0.092 C 
ATOM      8  H11 non d ame     -31.003   9.489  25.117  0.00  0.00     0.088 H 
BRANCH   7   9
ATOM      9  N3  non d ame     -32.999   9.947  24.822  0.00  0.00    -0.346 N 
ATOM     10  C7  non d ame     -33.375   8.802  25.614  0.00  0.00     0.240 C 
ATOM     11  O3  non d ame     -32.551   8.089  26.044  0.00  0.00    -0.271 OA
ATOM     12  H10 non d ame     -33.721  10.552  24.457  0.00  0.00     0.163 HD
BRANCH  10  13
ATOM     13  C6  non d ame     -34.883   8.514  25.893  0.00  0.00     0.086 C 
ATOM     14  H6  non d ame     -35.085   7.457  26.065  0.00  0.00     0.086 H 
BRANCH  13  15
ATOM     15  N2  non d ame     -35.281   9.215  27.102  0.00  0.00    -0.343 N 
ATOM     16  C5  non d ame     -35.194   8.533  28.394  0.00  0.00     0.273 C 
ATOM     17  O2  non d ame     -34.805   7.418  28.451  0.00  0.00    -0.266 OA
ATOM     18  H5  non d ame     -35.616  10.167  27.044  0.00  0.00     0.163 HD
BRANCH  16  19
ATOM     19  C4  non d ame     -35.612   9.263  29.680  0.00  0.00     0.154 A 
ATOM     20  C1  non d ame     -34.780   9.594  30.796  0.00  0.00    -0.017 A 
ATOM     21  C2  non d ame     -35.637  10.252  31.705  0.00  0.00     0.077 A 
ATOM     22  H1  non d ame     -33.717   9.388  30.926  0.00  0.00     0.091 H 
ATOM     23  O1  non d ame     -36.819  10.292  31.166  0.00  0.00    -0.218 OA
ATOM     24  N1  non d ame     -36.830   9.721  29.983  0.00  0.00    -0.123 NA
BRANCH  21  25
ATOM     25  C3  non d ame     -35.247  10.814  33.066  0.00  0.00    -0.029 C 
ATOM     26  H2  non d ame     -36.109  11.305  33.517  0.00  0.00     0.036 H 
ATOM     27  H3  non d ame     -34.913  10.003  33.713  0.00  0.00     0.036 H 
ATOM     28  H4  non d ame     -34.440  11.537  32.945  0.00  0.00     0.036 H 
ENDBRANCH  21  25
ENDBRANCH  16  19
ENDBRANCH  13  15
BRANCH  13  29
ATOM     29  C8  non d ame     -35.711   8.985  24.725  0.00  0.00    -0.049 C 
ATOM     30  H7  non d ame     -35.384   9.979  24.424  0.00  0.00     0.030 H 
ATOM     31  H8  non d ame     -35.588   8.295  23.890  0.00  0.00     0.030 H 
ATOM     32  H9  non d ame     -36.762   9.020  25.016  0.00  0.00     0.030 H 
ENDBRANCH  13  29
ENDBRANCH  10  13
ENDBRANCH   7   9
BRANCH   7  33
ATOM     33  C11 non d ame     -31.321  10.126  23.023  0.00  0.00    -0.033 C 
ATOM     34  H12 non d ame     -31.713  11.034  22.566  0.00  0.00     0.042 H 
BRANCH  33  35
ATOM     35  C12 non d ame     -29.793  10.066  22.712  0.00  0.00    -0.071 C 
ATOM     36  H13 non d ame     -29.622   9.415  21.855  0.00  0.00     0.028 H 
ATOM     37  H14 non d ame     -29.428  11.068  22.486  0.00  0.00     0.028 H 
ATOM     38  H15 non d ame     -29.261   9.672  23.578  0.00  0.00     0.028 H 
ENDBRANCH  33  35
BRANCH  33  39
ATOM     39  C13 non d ame     -32.074   8.907  22.400  0.00  0.00    -0.071 C 
ATOM     40  H16 non d ame     -32.343   9.135  21.369  0.00  0.00     0.028 H 
ATOM     41  H17 non d ame     -31.427   8.029  22.423  0.00  0.00     0.028 H 
ATOM     42  H18 non d ame     -32.978   8.706  22.975  0.00  0.00     0.028 H 
ENDBRANCH  33  39
ENDBRANCH   7  33
ENDBRANCH   4   7
ENDBRANCH   1   3
BRANCH   1  43
ATOM     43  C15 non d ame     -32.238  14.650  25.428  0.00  0.00     0.240 C 
ATOM     44  O5  non d ame     -33.360  14.457  25.085  0.00  0.00    -0.271 OA
ATOM     45  N6  non d ame     -31.967  15.387  26.695  0.00  0.00    -0.355 N 
ATOM     46  H46 non d ame     -31.018  15.552  26.999  0.00  0.00     0.162 HD
BRANCH  45  47
ATOM     47  C20 non d ame     -33.097  15.880  27.512  0.00  0.00     0.013 C 
ATOM     48  H30 non d ame     -34.018  15.493  27.076  0.00  0.00     0.072 H 
BRANCH  47  49
ATOM     49  C21 non d ame     -33.109  17.391  27.488  0.00  0.00    -0.038 C 
ATOM     50  H31 non d ame     -33.852  17.691  28.227  0.00  0.00     0.036 H 
ATOM     51  H32 non d ame     -32.068  17.695  27.607  0.00  0.00     0.036 H 
BRANCH  49  52
ATOM     52  C22 non d ame     -33.580  17.966  26.135  0.00  0.00     0.018 C 
ATOM     53  H33 non d ame     -32.756  17.804  25.442  0.00  0.00     0.048 H 
ATOM     54  H34 non d ame     -34.552  17.510  25.943  0.00  0.00     0.048 H 
BRANCH  52  55
ATOM     55  C23 non d ame     -33.825  19.501  26.158  0.00  0.00     0.259 C 
ATOM     56  O7  non d ame     -32.922  20.253  26.338  0.00  0.00    -0.265 OA
BRANCH  55  57
ATOM     57  O8  non d ame     -35.145  19.999  25.975  0.00  0.00    -0.317 OA
BRANCH  57  58
ATOM     58  C29 non d ame     -36.147  19.269  26.688  0.00  0.00     0.052 C 
ATOM     59  H47 non d ame     -35.828  18.228  26.662  0.00  0.00     0.082 H 
ATOM     60  H48 non d ame     -36.262  19.781  27.643  0.00  0.00     0.082 H 
BRANCH  58  61
ATOM     61  C35 non d ame     -37.480  19.394  25.902  0.00  0.00    -0.034 A 
ATOM     62  C30 non d ame     -37.811  18.446  24.938  0.00  0.00    -0.075 A 
ATOM     63  C31 non d ame     -39.008  18.559  24.231  0.00  0.00    -0.082 A 
ATOM     64  H49 non d ame     -37.134  17.617  24.735  0.00  0.00     0.084 H 
ATOM     65  C32 non d ame     -39.874  19.624  24.490  0.00  0.00    -0.083 A 
ATOM     66  H50 non d ame     -39.266  17.813  23.478  0.00  0.00     0.083 H 
ATOM     67  C33 non d ame     -39.537  20.569  25.450  0.00  0.00    -0.082 A 
ATOM     68  H51 non d ame     -40.812  19.719  23.943  0.00  0.00     0.083 H 
ATOM     69  C34 non d ame     -38.344  20.460  26.160  0.00  0.00    -0.075 A 
ATOM     70  H52 non d ame     -40.215  21.401  25.648  0.00  0.00     0.083 H 
ATOM     71  H53 non d ame     -38.087  21.205  26.913  0.00  0.00     0.084 H 
ENDBRANCH  58  61
ENDBRANCH  57  58
ENDBRANCH  55  57
ENDBRANCH  52  55
ENDBRANCH  49  52
ENDBRANCH  47  49
BRANCH  47  72
ATOM     72  C24 non d ame     -32.945  15.392  28.951  0.00  0.00    -0.039 C 
ATOM     73  H35 non d ame     -32.669  16.275  29.528  0.00  0.00     0.036 H 
ATOM     74  H36 non d ame     -33.870  14.862  29.177  0.00  0.00     0.036 H 
BRANCH  72  75
ATOM     75  C25 non d ame     -31.748  14.338  29.096  0.00  0.00    -0.001 C 
ATOM     76  C26 non d ame     -32.335  12.890  29.606  0.00  0.00    -0.035 C 
ATOM     77  C27 non d ame     -31.619  12.481  30.680  0.00  0.00     0.085 C 
ATOM     78  H38 non d ame     -33.342  13.014  30.004  0.00  0.00     0.036 H 
ATOM     79  H39 non d ame     -32.136  12.121  28.859  0.00  0.00     0.036 H 
ATOM     80  N5  non d ame     -30.812  13.668  31.150  0.00  0.00    -0.049 N 
ATOM     81  H40 non d ame     -32.356  12.227  31.442  0.00  0.00     0.075 H 
ATOM     82  H41 non d ame     -30.940  11.717  30.304  0.00  0.00     0.075 H 
ATOM     83  C28 non d ame     -30.868  14.746  29.949  0.00  0.00     0.193 C 
ATOM     84  H42 non d ame     -31.302  14.049  31.947  0.00  0.00     0.280 HD
ATOM     85  H43 non d ame     -29.860  13.345  31.249  0.00  0.00     0.280 HD
ATOM     86  H44 non d ame     -30.008  14.888  29.294  0.00  0.00     0.129 H 
ATOM     87  H37 non d ame     -31.097  14.330  28.222  0.00  0.00     0.046 H 
BRANCH  83  88
ATOM     88  O6  non d ame     -31.176  16.042  30.464  0.00  0.00    -0.369 OA
ATOM     89  H45 non d ame     -32.073  16.045  30.808  0.00  0.00     0.212 HD
ENDBRANCH  83  88
ENDBRANCH  72  75
ENDBRANCH  47  72
ENDBRANCH  45  47
ENDBRANCH   1  43
BRANCH   1  90
ATOM     90  C16 non d ame     -30.878  15.024  23.346  0.00  0.00    -0.035 C 
ATOM     91  H21 non d ame     -31.868  15.115  22.902  0.00  0.00     0.037 H 
ATOM     92  H22 non d ame     -30.365  15.910  23.721  0.00  0.00     0.037 H 
BRANCH  90  93
ATOM     93  C17 non d ame     -29.955  14.413  22.244  0.00  0.00    -0.059 C 
ATOM     94  H23 non d ame     -30.108  13.334  22.247  0.00  0.00     0.038 H 
BRANCH  93  95
ATOM     95  C18 non d ame     -30.311  14.940  20.818  0.00  0.00    -0.073 C 
ATOM     96  H24 non d ame     -29.417  14.935  20.194  0.00  0.00     0.028 H 
ATOM     97  H25 non d ame     -31.067  14.295  20.371  0.00  0.00     0.028 H 
ATOM     98  H26 non d ame     -30.697  15.956  20.891  0.00  0.00     0.028 H 
ENDBRANCH  93  95
BRANCH  93  99
ATOM     99  C19 non d ame     -28.479  14.665  22.565  0.00  0.00    -0.073 C 
ATOM    100  H27 non d ame     -28.279  14.382  23.599  0.00  0.00     0.028 H 
ATOM    101  H28 non d ame     -27.855  14.069  21.899  0.00  0.00     0.028 H 
ATOM    102  H29 non d ame     -28.253  15.722  22.427  0.00  0.00     0.028 H 
ENDBRANCH  93  99
ENDBRANCH  90  93
ENDBRANCH   1  90
TORSDOF 26
ENDMDL
MODEL 5
REMARK VINA RESULT:      -6.9      2.591     10.413
REMARK  26 active torsions:
REMARK  status: ('A' for Active; 'I' for Inactive)
REMARK    1  A    between atoms: C2_2  and  C3_3 
REMARK    2  A    between atoms: C4_6  and  C5_7 
REMARK       I    between atoms: C5_7  and  N2_9 
REMARK    3  A    between atoms: N2_9  and  C6_10 
REMARK    4  A    between atoms: C6_10  and  C7_11 
REMARK    5  A    between atoms: C6_10  and  C8_13 
REMARK       I    between atoms: C7_11  and  N3_14 
REMARK    6  A    between atoms: N3_14  and  C9_15 
REMARK    7  A    between atoms: C9_15  and  C10_16 
REMARK    8  A    between atoms: C9_15  and  C11_18 
REMARK       I    between atoms: C10_16  and  N4_21 
REMARK    9  A    between atoms: C11_18  and  C12_19 
REMARK   10  A    between atoms: C11_18  and  C13_20 
REMARK   11  A    between atoms: N4_21  and  C14_22 
REMARK   12  A    between atoms: C14_22  and  C15_23 
REMARK   13  A    between atoms: C14_22  and  C16_25 
REMARK       I    between atoms: C15_23  and  N6_40 
REMARK   14  A    between atoms: C16_25  and  C17_26 
REMARK   15  A    between atoms: C17_26  and  C18_27 
REMARK   16  A    between atoms: C17_26  and  C19_28 
REMARK   17  A    between atoms: C20_29  and  C21_30 
REMARK   18  A    between atoms: C20_29  and  C24_33 
REMARK   19  A    between atoms: C20_29  and  N6_40 
REMARK   20  A    between atoms: C21_30  and  C22_31 
REMARK   21  A    between atoms: C22_31  and  C23_32 
REMARK   22  A    between atoms: C23_32  and  O8_43 
REMARK   23  A    between atoms: C24_33  and  C25_34 
REMARK   24  A    between atoms: C28_38  and  O6_39 
REMARK   25  A    between atoms: C29_42  and  O8_43 
REMARK   26  A    between atoms: C29_42  and  C35_49 
ROOT
ATOM      1  C14 non d ame     -31.203  14.687  24.266  0.00  0.00     0.089 C 
ATOM      2  H20 non d ame     -30.200  14.743  24.689  0.00  0.00     0.087 H 
ENDROOT
BRANCH   1   3
ATOM      3  N4  non d ame     -31.523  13.279  24.081  0.00  0.00    -0.346 N 
ATOM      4  C10 non d ame     -31.261  12.287  25.186  0.00  0.00     0.241 C 
ATOM      5  O4  non d ame     -30.789  12.644  26.215  0.00  0.00    -0.271 OA
ATOM      6  H19 non d ame     -31.920  12.995  23.197  0.00  0.00     0.163 HD
BRANCH   4   7
ATOM      7  C9  non d ame     -31.602  10.834  24.979  0.00  0.00     0.092 C 
ATOM      8  H11 non d ame     -30.914  10.219  25.558  0.00  0.00     0.088 H 
BRANCH   7   9
ATOM      9  N3  non d ame     -32.951  10.572  25.489  0.00  0.00    -0.346 N 
ATOM     10  C7  non d ame     -33.141   9.661  26.590  0.00  0.00     0.240 C 
ATOM     11  O3  non d ame     -32.219   9.129  27.078  0.00  0.00    -0.271 OA
ATOM     12  H10 non d ame     -33.756  11.022  25.076  0.00  0.00     0.163 HD
BRANCH  10  13
ATOM     13  C6  non d ame     -34.580   9.383  27.125  0.00  0.00     0.086 C 
ATOM     14  H6  non d ame     -35.177   8.784  26.438  0.00  0.00     0.086 H 
BRANCH  13  15
ATOM     15  N2  non d ame     -34.485   8.625  28.362  0.00  0.00    -0.343 N 
ATOM     16  C5  non d ame     -35.130   7.314  28.456  0.00  0.00     0.273 C 
ATOM     17  O2  non d ame     -35.727   6.879  27.533  0.00  0.00    -0.266 OA
ATOM     18  H5  non d ame     -33.976   9.005  29.147  0.00  0.00     0.163 HD
BRANCH  16  19
ATOM     19  C4  non d ame     -35.037   6.501  29.757  0.00  0.00     0.154 A 
ATOM     20  C1  non d ame     -34.068   5.501  30.084  0.00  0.00    -0.017 A 
ATOM     21  C2  non d ame     -34.419   5.065  31.381  0.00  0.00     0.077 A 
ATOM     22  H1  non d ame     -33.237   5.145  29.474  0.00  0.00     0.091 H 
ATOM     23  O1  non d ame     -35.467   5.743  31.748  0.00  0.00    -0.218 OA
ATOM     24  N1  non d ame     -35.846   6.588  30.816  0.00  0.00    -0.123 NA
BRANCH  21  25
ATOM     25  C3  non d ame     -33.702   4.000  32.199  0.00  0.00    -0.029 C 
ATOM     26  H2  non d ame     -34.225   3.854  33.144  0.00  0.00     0.036 H 
ATOM     27  H3  non d ame     -33.691   3.061  31.645  0.00  0.00     0.036 H 
ATOM     28  H4  non d ame     -32.679   4.318  32.395  0.00  0.00     0.036 H 
ENDBRANCH  21  25
ENDBRANCH  16  19
ENDBRANCH  13  15
BRANCH  13  29
ATOM     29  C8  non d ame     -35.288  10.690  27.374  0.00  0.00    -0.049 C 
ATOM     30  H7  non d ame     -36.206  10.724  26.789  0.00  0.00     0.030 H 
ATOM     31  H8  non d ame     -35.530  10.777  28.433  0.00  0.00     0.030 H 
ATOM     32  H9  non d ame     -34.639  11.516  27.080  0.00  0.00     0.030 H 
ENDBRANCH  13  29
ENDBRANCH  10  13
ENDBRANCH   7   9
BRANCH   7  33
ATOM     33  C11 non d ame     -31.551  10.501  23.459  0.00  0.00    -0.033 C 
ATOM     34  H12 non d ame     -31.921  11.372  22.919  0.00  0.00     0.042 H 
BRANCH  33  35
ATOM     35  C12 non d ame     -30.087  10.243  22.984  0.00  0.00    -0.071 C 
ATOM     36  H13 non d ame     -29.840   9.190  23.123  0.00  0.00     0.028 H 
ATOM     37  H14 non d ame     -29.995  10.501  21.929  0.00  0.00     0.028 H 
ATOM     38  H15 non d ame     -29.401  10.855  23.569  0.00  0.00     0.028 H 
ENDBRANCH  33  35
BRANCH  33  39
ATOM     39  C13 non d ame     -32.479   9.291  23.120  0.00  0.00    -0.071 C 
ATOM     40  H16 non d ame     -33.294   9.245  23.842  0.00  0.00     0.028 H 
ATOM     41  H17 non d ame     -32.887   9.415  22.116  0.00  0.00     0.028 H 
ATOM     42  H18 non d ame     -31.902   8.367  23.164  0.00  0.00     0.028 H 
ENDBRANCH  33  39
ENDBRANCH   7  33
ENDBRANCH   4   7
ENDBRANCH   1   3
BRANCH   1  43
ATOM     43  C15 non d ame     -32.271  15.318  25.204  0.00  0.00     0.240 C 
ATOM     44  O5  non d ame     -33.392  15.438  24.828  0.00  0.00    -0.271 OA
ATOM     45  N6  non d ame     -31.900  15.764  26.577  0.00  0.00    -0.355 N 
ATOM     46  H46 non d ame     -30.951  15.662  26.911  0.00  0.00     0.162 HD
BRANCH  45  47
ATOM     47  C20 non d ame     -32.927  16.361  27.457  0.00  0.00     0.013 C 
ATOM     48  H30 non d ame     -33.883  16.313  26.936  0.00  0.00     0.072 H 
BRANCH  47  49
ATOM     49  C21 non d ame     -32.565  17.801  27.743  0.00  0.00    -0.038 C 
ATOM     50  H31 non d ame     -32.321  17.838  28.805  0.00  0.00     0.036 H 
ATOM     51  H32 non d ame     -31.813  18.068  27.001  0.00  0.00     0.036 H 
BRANCH  49  52
ATOM     52  C22 non d ame     -33.749  18.770  27.533  0.00  0.00     0.018 C 
ATOM     53  H33 non d ame     -34.545  18.408  28.183  0.00  0.00     0.048 H 
ATOM     54  H34 non d ame     -33.340  19.770  27.675  0.00  0.00     0.048 H 
BRANCH  52  55
ATOM     55  C23 non d ame     -34.329  18.746  26.091  0.00  0.00     0.259 C 
ATOM     56  O7  non d ame     -33.777  19.322  25.210  0.00  0.00    -0.265 OA
BRANCH  55  57
ATOM     57  O8  non d ame     -35.537  18.039  25.838  0.00  0.00    -0.317 OA
BRANCH  57  58
ATOM     58  C29 non d ame     -36.470  18.753  25.021  0.00  0.00     0.052 C 
ATOM     59  H47 non d ame     -35.911  19.586  24.595  0.00  0.00     0.082 H 
ATOM     60  H48 non d ame     -36.921  18.007  24.367  0.00  0.00     0.082 H 
BRANCH  58  61
ATOM     61  C35 non d ame     -37.577  19.324  25.947  0.00  0.00    -0.034 A 
ATOM     62  C30 non d ame     -37.582  19.008  27.302  0.00  0.00    -0.075 A 
ATOM     63  C31 non d ame     -38.577  19.521  28.134  0.00  0.00    -0.082 A 
ATOM     64  H49 non d ame     -36.809  18.358  27.712  0.00  0.00     0.084 H 
ATOM     65  C32 non d ame     -39.569  20.352  27.606  0.00  0.00    -0.083 A 
ATOM     66  H50 non d ame     -38.577  19.273  29.197  0.00  0.00     0.083 H 
ATOM     67  C33 non d ame     -39.560  20.661  26.253  0.00  0.00    -0.082 A 
ATOM     68  H51 non d ame     -40.349  20.758  28.250  0.00  0.00     0.083 H 
ATOM     69  C34 non d ame     -38.568  20.152  25.418  0.00  0.00    -0.075 A 
ATOM     70  H52 non d ame     -40.338  21.308  25.843  0.00  0.00     0.083 H 
ATOM     71  H53 non d ame     -38.567  20.401  24.357  0.00  0.00     0.084 H 
ENDBRANCH  58  61
ENDBRANCH  57  58
ENDBRANCH  55  57
ENDBRANCH  52  55
ENDBRANCH  49  52
ENDBRANCH  47  49
BRANCH  47  72
ATOM     72  C24 non d ame     -32.999  15.583  28.769  0.00  0.00    -0.039 C 
ATOM     73  H35 non d ame     -32.873  16.328  29.555  0.00  0.00     0.036 H 
ATOM     74  H36 non d ame     -33.920  15.002  28.712  0.00  0.00     0.036 H 
BRANCH  72  75
ATOM     75  C25 non d ame     -31.791  14.540  28.907  0.00  0.00    -0.001 C 
ATOM     76  C26 non d ame     -32.379  13.044  29.251  0.00  0.00    -0.035 C 
ATOM     77  C27 non d ame     -31.727  12.556  30.333  0.00  0.00     0.085 C 
ATOM     78  H38 non d ame     -33.413  13.116  29.587  0.00  0.00     0.036 H 
ATOM     79  H39 non d ame     -32.112  12.345  28.457  0.00  0.00     0.036 H 
ATOM     80  N5  non d ame     -30.980  13.712  30.956  0.00  0.00    -0.049 N 
ATOM     81  H40 non d ame     -32.508  12.226  31.019  0.00  0.00     0.075 H 
ATOM     82  H41 non d ame     -31.007  11.839  29.941  0.00  0.00     0.075 H 
ATOM     83  C28 non d ame     -30.980  14.888  29.850  0.00  0.00     0.193 C 
ATOM     84  H42 non d ame     -31.531  14.015  31.746  0.00  0.00     0.280 HD
ATOM     85  H43 non d ame     -30.030  13.397  31.092  0.00  0.00     0.280 HD
ATOM     86  H44 non d ame     -30.081  15.100  29.269  0.00  0.00     0.129 H 
ATOM     87  H37 non d ame     -31.083  14.617  28.082  0.00  0.00     0.046 H 
BRANCH  83  88
ATOM     88  O6  non d ame     -31.351  16.130  30.450  0.00  0.00    -0.369 OA
ATOM     89  H45 non d ame     -32.116  16.490  29.994  0.00  0.00     0.212 HD
ENDBRANCH  83  88
ENDBRANCH  72  75
ENDBRANCH  47  72
ENDBRANCH  45  47
ENDBRANCH   1  43
BRANCH   1  90
ATOM     90  C16 non d ame     -31.233  15.385  22.916  0.00  0.00    -0.035 C 
ATOM     91  H21 non d ame     -32.223  15.184  22.509  0.00  0.00     0.037 H 
ATOM     92  H22 non d ame     -30.922  16.410  23.115  0.00  0.00     0.037 H 
BRANCH  90  93
ATOM     93  C17 non d ame     -30.209  14.804  21.888  0.00  0.00    -0.059 C 
ATOM     94  H23 non d ame     -30.322  13.720  21.886  0.00  0.00     0.038 H 
BRANCH  93  95
ATOM     95  C18 non d ame     -30.476  15.314  20.437  0.00  0.00    -0.073 C 
ATOM     96  H24 non d ame     -30.087  14.592  19.719  0.00  0.00     0.028 H 
ATOM     97  H25 non d ame     -31.549  15.433  20.285  0.00  0.00     0.028 H 
ATOM     98  H26 non d ame     -29.980  16.274  20.291  0.00  0.00     0.028 H 
ENDBRANCH  93  95
BRANCH  93  99
ATOM     99  C19 non d ame     -28.771  15.110  22.317  0.00  0.00    -0.073 C 
ATOM    100  H27 non d ame     -28.654  14.891  23.379  0.00  0.00     0.028 H 
ATOM    101  H28 non d ame     -28.080  14.494  21.741  0.00  0.00     0.028 H 
ATOM    102  H29 non d ame     -28.555  16.163  22.136  0.00  0.00     0.028 H 
ENDBRANCH  93  99
ENDBRANCH  90  93
ENDBRANCH   1  90
TORSDOF 26
ENDMDL
MODEL 6
REMARK VINA RESULT:      -6.9      2.678      9.069
REMARK  26 active torsions:
REMARK  status: ('A' for Active; 'I' for Inactive)
REMARK    1  A    between atoms: C2_2  and  C3_3 
REMARK    2  A    between atoms: C4_6  and  C5_7 
REMARK       I    between atoms: C5_7  and  N2_9 
REMARK    3  A    between atoms: N2_9  and  C6_10 
REMARK    4  A    between atoms: C6_10  and  C7_11 
REMARK    5  A    between atoms: C6_10  and  C8_13 
REMARK       I    between atoms: C7_11  and  N3_14 
REMARK    6  A    between atoms: N3_14  and  C9_15 
REMARK    7  A    between atoms: C9_15  and  C10_16 
REMARK    8  A    between atoms: C9_15  and  C11_18 
REMARK       I    between atoms: C10_16  and  N4_21 
REMARK    9  A    between atoms: C11_18  and  C12_19 
REMARK   10  A    between atoms: C11_18  and  C13_20 
REMARK   11  A    between atoms: N4_21  and  C14_22 
REMARK   12  A    between atoms: C14_22  and  C15_23 
REMARK   13  A    between atoms: C14_22  and  C16_25 
REMARK       I    between atoms: C15_23  and  N6_40 
REMARK   14  A    between atoms: C16_25  and  C17_26 
REMARK   15  A    between atoms: C17_26  and  C18_27 
REMARK   16  A    between atoms: C17_26  and  C19_28 
REMARK   17  A    between atoms: C20_29  and  C21_30 
REMARK   18  A    between atoms: C20_29  and  C24_33 
REMARK   19  A    between atoms: C20_29  and  N6_40 
REMARK   20  A    between atoms: C21_30  and  C22_31 
REMARK   21  A    between atoms: C22_31  and  C23_32 
REMARK   22  A    between atoms: C23_32  and  O8_43 
REMARK   23  A    between atoms: C24_33  and  C25_34 
REMARK   24  A    between atoms: C28_38  and  O6_39 
REMARK   25  A    between atoms: C29_42  and  O8_43 
REMARK   26  A    between atoms: C29_42  and  C35_49 
ROOT
ATOM      1  C14 non d ame     -32.611   9.069  25.183  0.00  0.00     0.089 C 
ATOM      2  H20 non d ame     -31.639   8.580  25.110  0.00  0.00     0.087 H 
ENDROOT
BRANCH   1   3
ATOM      3  N4  non d ame     -33.497   8.177  25.916  0.00  0.00    -0.346 N 
ATOM      4  C10 non d ame     -32.997   6.842  26.409  0.00  0.00     0.241 C 
ATOM      5  O4  non d ame     -31.878   6.506  26.202  0.00  0.00    -0.271 OA
ATOM      6  H19 non d ame     -34.447   8.480  26.079  0.00  0.00     0.163 HD
BRANCH   4   7
ATOM      7  C9  non d ame     -33.927   5.933  27.170  0.00  0.00     0.092 C 
ATOM      8  H11 non d ame     -33.342   5.294  27.830  0.00  0.00     0.088 H 
BRANCH   7   9
ATOM      9  N3  non d ame     -34.813   6.738  28.017  0.00  0.00    -0.346 N 
ATOM     10  C7  non d ame     -35.078   6.329  29.374  0.00  0.00     0.240 C 
ATOM     11  O3  non d ame     -34.588   5.355  29.800  0.00  0.00    -0.271 OA
ATOM     12  H10 non d ame     -35.244   7.579  27.662  0.00  0.00     0.163 HD
BRANCH  10  13
ATOM     13  C6  non d ame     -36.025   7.187  30.270  0.00  0.00     0.086 C 
ATOM     14  H6  non d ame     -35.487   7.748  31.034  0.00  0.00     0.086 H 
BRANCH  13  15
ATOM     15  N2  non d ame     -36.704   8.165  29.437  0.00  0.00    -0.343 N 
ATOM     16  C5  non d ame     -36.306   9.572  29.505  0.00  0.00     0.273 C 
ATOM     17  O2  non d ame     -35.440   9.909  30.236  0.00  0.00    -0.266 OA
ATOM     18  H5  non d ame     -37.446   7.869  28.818  0.00  0.00     0.163 HD
BRANCH  16  19
ATOM     19  C4  non d ame     -37.017  10.616  28.630  0.00  0.00     0.154 A 
ATOM     20  C1  non d ame     -36.584  11.121  27.363  0.00  0.00    -0.017 A 
ATOM     21  C2  non d ame     -37.579  12.048  26.982  0.00  0.00     0.077 A 
ATOM     22  H1  non d ame     -35.686  10.854  26.805  0.00  0.00     0.091 H 
ATOM     23  O1  non d ame     -38.474  12.066  27.925  0.00  0.00    -0.218 OA
ATOM     24  N1  non d ame     -38.168  11.239  28.898  0.00  0.00    -0.123 NA
BRANCH  21  25
ATOM     25  C3  non d ame     -37.600  12.873  25.702  0.00  0.00    -0.029 C 
ATOM     26  H2  non d ame     -37.961  13.877  25.923  0.00  0.00     0.036 H 
ATOM     27  H3  non d ame     -36.592  12.934  25.292  0.00  0.00     0.036 H 
ATOM     28  H4  non d ame     -38.260  12.401  24.975  0.00  0.00     0.036 H 
ENDBRANCH  21  25
ENDBRANCH  16  19
ENDBRANCH  13  15
BRANCH  13  29
ATOM     29  C8  non d ame     -37.033   6.291  30.943  0.00  0.00    -0.049 C 
ATOM     30  H7  non d ame     -37.970   6.830  31.073  0.00  0.00     0.030 H 
ATOM     31  H8  non d ame     -37.205   5.409  30.326  0.00  0.00     0.030 H 
ATOM     32  H9  non d ame     -36.652   5.984  31.918  0.00  0.00     0.030 H 
ENDBRANCH  13  29
ENDBRANCH  10  13
ENDBRANCH   7   9
BRANCH   7  33
ATOM     33  C11 non d ame     -34.783   5.109  26.164  0.00  0.00    -0.033 C 
ATOM     34  H12 non d ame     -34.294   5.165  25.192  0.00  0.00     0.042 H 
BRANCH  33  35
ATOM     35  C12 non d ame     -34.845   3.604  26.571  0.00  0.00    -0.071 C 
ATOM     36  H13 non d ame     -35.780   3.169  26.217  0.00  0.00     0.028 H 
ATOM     37  H14 non d ame     -34.005   3.071  26.125  0.00  0.00     0.028 H 
ATOM     38  H15 non d ame     -34.794   3.519  27.657  0.00  0.00     0.028 H 
ENDBRANCH  33  35
BRANCH  33  39
ATOM     39  C13 non d ame     -36.215   5.716  26.020  0.00  0.00    -0.071 C 
ATOM     40  H16 non d ame     -36.888   5.234  26.730  0.00  0.00     0.028 H 
ATOM     41  H17 non d ame     -36.179   6.787  26.223  0.00  0.00     0.028 H 
ATOM     42  H18 non d ame     -36.580   5.552  25.006  0.00  0.00     0.028 H 
ENDBRANCH  33  39
ENDBRANCH   7  33
ENDBRANCH   4   7
ENDBRANCH   1   3
BRANCH   1  43
ATOM     43  C15 non d ame     -32.531  10.423  25.946  0.00  0.00     0.240 C 
ATOM     44  O5  non d ame     -32.277  10.433  27.107  0.00  0.00    -0.271 OA
ATOM     45  N6  non d ame     -32.760  11.708  25.226  0.00  0.00    -0.355 N 
ATOM     46  H46 non d ame     -32.971  11.712  24.238  0.00  0.00     0.162 HD
BRANCH  45  47
ATOM     47  C20 non d ame     -32.679  12.986  25.965  0.00  0.00     0.013 C 
ATOM     48  H30 non d ame     -32.740  12.761  27.030  0.00  0.00     0.072 H 
BRANCH  47  49
ATOM     49  C21 non d ame     -33.832  13.875  25.556  0.00  0.00    -0.038 C 
ATOM     50  H31 non d ame     -33.390  14.676  24.963  0.00  0.00     0.036 H 
ATOM     51  H32 non d ame     -34.571  13.210  25.109  0.00  0.00     0.036 H 
BRANCH  49  52
ATOM     52  C22 non d ame     -34.523  14.551  26.760  0.00  0.00     0.018 C 
ATOM     53  H33 non d ame     -35.518  14.827  26.411  0.00  0.00     0.048 H 
ATOM     54  H34 non d ame     -34.410  13.857  27.593  0.00  0.00     0.048 H 
BRANCH  52  55
ATOM     55  C23 non d ame     -33.844  15.875  27.209  0.00  0.00     0.259 C 
ATOM     56  O7  non d ame     -33.529  16.693  26.407  0.00  0.00    -0.265 OA
BRANCH  55  57
ATOM     57  O8  non d ame     -33.590  16.093  28.592  0.00  0.00    -0.317 OA
BRANCH  57  58
ATOM     58  C29 non d ame     -32.207  16.015  28.950  0.00  0.00     0.052 C 
ATOM     59  H47 non d ame     -31.655  16.291  28.052  0.00  0.00     0.082 H 
ATOM     60  H48 non d ame     -32.103  16.607  29.858  0.00  0.00     0.082 H 
BRANCH  58  61
ATOM     61  C35 non d ame     -31.884  14.535  29.290  0.00  0.00    -0.034 A 
ATOM     62  C30 non d ame     -32.890  13.692  29.752  0.00  0.00    -0.075 A 
ATOM     63  C31 non d ame     -32.600  12.363  30.059  0.00  0.00    -0.082 A 
ATOM     64  H49 non d ame     -33.904  14.071  29.875  0.00  0.00     0.084 H 
ATOM     65  C32 non d ame     -31.298  11.879  29.903  0.00  0.00    -0.083 A 
ATOM     66  H50 non d ame     -33.391  11.703  30.419  0.00  0.00     0.083 H 
ATOM     67  C33 non d ame     -30.298  12.726  29.446  0.00  0.00    -0.082 A 
ATOM     68  H51 non d ame     -31.063  10.841  30.140  0.00  0.00     0.083 H 
ATOM     69  C34 non d ame     -30.583  14.054  29.137  0.00  0.00    -0.075 A 
ATOM     70  H52 non d ame     -29.282  12.346  29.328  0.00  0.00     0.083 H 
ATOM     71  H53 non d ame     -29.793  14.712  28.776  0.00  0.00     0.084 H 
ENDBRANCH  58  61
ENDBRANCH  57  58
ENDBRANCH  55  57
ENDBRANCH  52  55
ENDBRANCH  49  52
ENDBRANCH  47  49
BRANCH  47  72
ATOM     72  C24 non d ame     -31.358  13.684  25.646  0.00  0.00    -0.039 C 
ATOM     73  H35 non d ame     -31.287  14.509  26.356  0.00  0.00     0.036 H 
ATOM     74  H36 non d ame     -30.605  12.896  25.650  0.00  0.00     0.036 H 
BRANCH  72  75
ATOM     75  C25 non d ame     -31.365  14.324  24.178  0.00  0.00    -0.001 C 
ATOM     76  C26 non d ame     -30.392  13.450  23.182  0.00  0.00    -0.035 C 
ATOM     77  C27 non d ame     -29.532  14.293  22.561  0.00  0.00     0.085 C 
ATOM     78  H38 non d ame     -29.737  12.806  23.769  0.00  0.00     0.036 H 
ATOM     79  H39 non d ame     -30.975  13.031  22.361  0.00  0.00     0.036 H 
ATOM     80  N5  non d ame     -29.611  15.616  23.285  0.00  0.00    -0.049 N 
ATOM     81  H40 non d ame     -28.542  13.863  22.712  0.00  0.00     0.075 H 
ATOM     82  H41 non d ame     -29.924  14.417  21.552  0.00  0.00     0.075 H 
ATOM     83  C28 non d ame     -30.941  15.543  24.198  0.00  0.00     0.193 C 
ATOM     84  H42 non d ame     -28.806  15.657  23.893  0.00  0.00     0.280 HD
ATOM     85  H43 non d ame     -29.746  16.322  22.575  0.00  0.00     0.280 HD
ATOM     86  H44 non d ame     -31.846  16.072  23.899  0.00  0.00     0.129 H 
ATOM     87  H37 non d ame     -32.374  14.535  23.825  0.00  0.00     0.046 H 
BRANCH  83  88
ATOM     88  O6  non d ame     -30.655  15.993  25.523  0.00  0.00    -0.369 OA
ATOM     89  H45 non d ame     -30.161  16.816  25.482  0.00  0.00     0.212 HD
ENDBRANCH  83  88
ENDBRANCH  72  75
ENDBRANCH  47  72
ENDBRANCH  45  47
ENDBRANCH   1  43
BRANCH   1  90
ATOM     90  C16 non d ame     -33.178   9.299  23.791  0.00  0.00    -0.035 C 
ATOM     91  H21 non d ame     -34.016   8.610  23.704  0.00  0.00     0.037 H 
ATOM     92  H22 non d ame     -33.345  10.374  23.723  0.00  0.00     0.037 H 
BRANCH  90  93
ATOM     93  C17 non d ame     -32.184   8.932  22.643  0.00  0.00    -0.059 C 
ATOM     94  H23 non d ame     -32.674   9.161  21.697  0.00  0.00     0.038 H 
BRANCH  93  95
ATOM     95  C18 non d ame     -30.867   9.769  22.712  0.00  0.00    -0.073 C 
ATOM     96  H24 non d ame     -31.044  10.678  23.287  0.00  0.00     0.028 H 
ATOM     97  H25 non d ame     -30.088   9.181  23.196  0.00  0.00     0.028 H 
ATOM     98  H26 non d ame     -30.551  10.033  21.703  0.00  0.00     0.028 H 
ENDBRANCH  93  95
BRANCH  93  99
ATOM     99  C19 non d ame     -31.876   7.432  22.645  0.00  0.00    -0.073 C 
ATOM    100  H27 non d ame     -30.901   7.261  22.187  0.00  0.00     0.028 H 
ATOM    101  H28 non d ame     -31.864   7.064  23.671  0.00  0.00     0.028 H 
ATOM    102  H29 non d ame     -32.642   6.903  22.078  0.00  0.00     0.028 H 
ENDBRANCH  93  99
ENDBRANCH  90  93
ENDBRANCH   1  90
TORSDOF 26
ENDMDL
MODEL 7
REMARK VINA RESULT:      -6.8      2.977      9.068
REMARK  26 active torsions:
REMARK  status: ('A' for Active; 'I' for Inactive)
REMARK    1  A    between atoms: C2_2  and  C3_3 
REMARK    2  A    between atoms: C4_6  and  C5_7 
REMARK       I    between atoms: C5_7  and  N2_9 
REMARK    3  A    between atoms: N2_9  and  C6_10 
REMARK    4  A    between atoms: C6_10  and  C7_11 
REMARK    5  A    between atoms: C6_10  and  C8_13 
REMARK       I    between atoms: C7_11  and  N3_14 
REMARK    6  A    between atoms: N3_14  and  C9_15 
REMARK    7  A    between atoms: C9_15  and  C10_16 
REMARK    8  A    between atoms: C9_15  and  C11_18 
REMARK       I    between atoms: C10_16  and  N4_21 
REMARK    9  A    between atoms: C11_18  and  C12_19 
REMARK   10  A    between atoms: C11_18  and  C13_20 
REMARK   11  A    between atoms: N4_21  and  C14_22 
REMARK   12  A    between atoms: C14_22  and  C15_23 
REMARK   13  A    between atoms: C14_22  and  C16_25 
REMARK       I    between atoms: C15_23  and  N6_40 
REMARK   14  A    between atoms: C16_25  and  C17_26 
REMARK   15  A    between atoms: C17_26  and  C18_27 
REMARK   16  A    between atoms: C17_26  and  C19_28 
REMARK   17  A    between atoms: C20_29  and  C21_30 
REMARK   18  A    between atoms: C20_29  and  C24_33 
REMARK   19  A    between atoms: C20_29  and  N6_40 
REMARK   20  A    between atoms: C21_30  and  C22_31 
REMARK   21  A    between atoms: C22_31  and  C23_32 
REMARK   22  A    between atoms: C23_32  and  O8_43 
REMARK   23  A    between atoms: C24_33  and  C25_34 
REMARK   24  A    between atoms: C28_38  and  O6_39 
REMARK   25  A    between atoms: C29_42  and  O8_43 
REMARK   26  A    between atoms: C29_42  and  C35_49 
ROOT
ATOM      1  C14 non d ame     -33.170  12.082  28.900  0.00  0.00     0.089 C 
ATOM      2  H20 non d ame     -33.124  12.373  29.950  0.00  0.00     0.087 H 
ENDROOT
BRANCH   1   3
ATOM      3  N4  non d ame     -33.937  10.847  28.821  0.00  0.00    -0.346 N 
ATOM      4  C10 non d ame     -33.941   9.878  29.975  0.00  0.00     0.241 C 
ATOM      5  O4  non d ame     -33.319  10.111  30.958  0.00  0.00    -0.271 OA
ATOM      6  H19 non d ame     -34.457  10.666  27.974  0.00  0.00     0.163 HD
BRANCH   4   7
ATOM      7  C9  non d ame     -34.743   8.606  29.877  0.00  0.00     0.092 C 
ATOM      8  H11 non d ame     -35.673   8.809  29.346  0.00  0.00     0.088 H 
BRANCH   7   9
ATOM      9  N3  non d ame     -34.000   7.619  29.088  0.00  0.00    -0.346 N 
ATOM     10  C7  non d ame     -34.172   7.562  27.658  0.00  0.00     0.240 C 
ATOM     11  O3  non d ame     -34.905   8.304  27.125  0.00  0.00    -0.271 OA
ATOM     12  H10 non d ame     -33.366   6.972  29.535  0.00  0.00     0.163 HD
BRANCH  10  13
ATOM     13  C6  non d ame     -33.381   6.507  26.824  0.00  0.00     0.086 C 
ATOM     14  H6  non d ame     -33.810   5.508  26.894  0.00  0.00     0.086 H 
BRANCH  13  15
ATOM     15  N2  non d ame     -33.429   6.883  25.421  0.00  0.00    -0.343 N 
ATOM     16  C5  non d ame     -33.277   5.851  24.392  0.00  0.00     0.273 C 
ATOM     17  O2  non d ame     -33.112   4.723  24.704  0.00  0.00    -0.266 OA
ATOM     18  H5  non d ame     -33.567   7.850  25.163  0.00  0.00     0.163 HD
BRANCH  16  19
ATOM     19  C4  non d ame     -33.326   6.235  22.905  0.00  0.00     0.154 A 
ATOM     20  C1  non d ame     -34.310   7.042  22.252  0.00  0.00    -0.017 A 
ATOM     21  C2  non d ame     -33.902   7.089  20.900  0.00  0.00     0.077 A 
ATOM     22  H1  non d ame     -35.186   7.520  22.691  0.00  0.00     0.091 H 
ATOM     23  O1  non d ame     -32.811   6.390  20.799  0.00  0.00    -0.218 OA
ATOM     24  N1  non d ame     -32.454   5.881  21.956  0.00  0.00    -0.123 NA
BRANCH  21  25
ATOM     25  C3  non d ame     -34.610   7.825  19.770  0.00  0.00    -0.029 C 
ATOM     26  H2  non d ame     -34.619   7.200  18.878  0.00  0.00     0.036 H 
ATOM     27  H3  non d ame     -35.635   8.047  20.067  0.00  0.00     0.036 H 
ATOM     28  H4  non d ame     -34.085   8.755  19.556  0.00  0.00     0.036 H 
ENDBRANCH  21  25
ENDBRANCH  16  19
ENDBRANCH  13  15
BRANCH  13  29
ATOM     29  C8  non d ame     -31.951   6.458  27.297  0.00  0.00    -0.049 C 
ATOM     30  H7  non d ame     -31.295   6.250  26.453  0.00  0.00     0.030 H 
ATOM     31  H8  non d ame     -31.681   7.417  27.739  0.00  0.00     0.030 H 
ATOM     32  H9  non d ame     -31.843   5.670  28.044  0.00  0.00     0.030 H 
ENDBRANCH  13  29
ENDBRANCH  10  13
ENDBRANCH   7   9
BRANCH   7  33
ATOM     33  C11 non d ame     -34.995   8.041  31.306  0.00  0.00    -0.033 C 
ATOM     34  H12 non d ame     -34.165   8.359  31.936  0.00  0.00     0.042 H 
BRANCH  33  35
ATOM     35  C12 non d ame     -36.303   8.625  31.925  0.00  0.00    -0.071 C 
ATOM     36  H13 non d ame     -37.157   8.329  31.315  0.00  0.00     0.028 H 
ATOM     37  H14 non d ame     -36.429   8.243  32.937  0.00  0.00     0.028 H 
ATOM     38  H15 non d ame     -36.238   9.713  31.952  0.00  0.00     0.028 H 
ENDBRANCH  33  35
BRANCH  33  39
ATOM     39  C13 non d ame     -35.022   6.480  31.293  0.00  0.00    -0.071 C 
ATOM     40  H16 non d ame     -34.835   6.104  32.299  0.00  0.00     0.028 H 
ATOM     41  H17 non d ame     -35.999   6.135  30.951  0.00  0.00     0.028 H 
ATOM     42  H18 non d ame     -34.251   6.108  30.618  0.00  0.00     0.028 H 
ENDBRANCH  33  39
ENDBRANCH   7  33
ENDBRANCH   4   7
ENDBRANCH   1   3
BRANCH   1  43
ATOM     43  C15 non d ame     -33.874  13.159  28.024  0.00  0.00     0.240 C 
ATOM     44  O5  non d ame     -34.674  12.828  27.210  0.00  0.00    -0.271 OA
ATOM     45  N6  non d ame     -33.557  14.604  28.207  0.00  0.00    -0.355 N 
ATOM     46  H46 non d ame     -32.882  14.898  28.899  0.00  0.00     0.162 HD
BRANCH  45  47
ATOM     47  C20 non d ame     -34.235  15.614  27.367  0.00  0.00     0.013 C 
ATOM     48  H30 non d ame     -35.270  15.299  27.233  0.00  0.00     0.072 H 
BRANCH  47  49
ATOM     49  C21 non d ame     -33.542  15.697  26.026  0.00  0.00    -0.038 C 
ATOM     50  H31 non d ame     -33.755  14.752  25.525  0.00  0.00     0.036 H 
ATOM     51  H32 non d ame     -33.871  16.636  25.581  0.00  0.00     0.036 H 
BRANCH  49  52
ATOM     52  C22 non d ame     -32.005  15.788  26.150  0.00  0.00     0.018 C 
ATOM     53  H33 non d ame     -31.773  16.852  26.159  0.00  0.00     0.048 H 
ATOM     54  H34 non d ame     -31.741  15.165  27.005  0.00  0.00     0.048 H 
BRANCH  52  55
ATOM     55  C23 non d ame     -31.242  15.192  24.935  0.00  0.00     0.259 C 
ATOM     56  O7  non d ame     -30.634  15.900  24.199  0.00  0.00    -0.265 OA
BRANCH  55  57
ATOM     57  O8  non d ame     -31.290  13.790  24.701  0.00  0.00    -0.317 OA
BRANCH  57  58
ATOM     58  C29 non d ame     -30.516  13.359  23.578  0.00  0.00     0.052 C 
ATOM     59  H47 non d ame     -30.975  13.827  22.707  0.00  0.00     0.082 H 
ATOM     60  H48 non d ame     -29.479  13.578  23.832  0.00  0.00     0.082 H 
BRANCH  58  61
ATOM     61  C35 non d ame     -30.674  11.820  23.449  0.00  0.00    -0.034 A 
ATOM     62  C30 non d ame     -31.548  11.138  24.290  0.00  0.00    -0.075 A 
ATOM     63  C31 non d ame     -31.690   9.755  24.176  0.00  0.00    -0.082 A 
ATOM     64  H49 non d ame     -32.120  11.685  25.039  0.00  0.00     0.084 H 
ATOM     65  C32 non d ame     -30.953   9.055  23.216  0.00  0.00    -0.083 A 
ATOM     66  H50 non d ame     -32.377   9.223  24.835  0.00  0.00     0.083 H 
ATOM     67  C33 non d ame     -30.080   9.740  22.382  0.00  0.00    -0.082 A 
ATOM     68  H51 non d ame     -31.059   7.974  23.119  0.00  0.00     0.083 H 
ATOM     69  C34 non d ame     -29.936  11.122  22.492  0.00  0.00    -0.075 A 
ATOM     70  H52 non d ame     -29.505   9.191  21.636  0.00  0.00     0.083 H 
ATOM     71  H53 non d ame     -29.250  11.653  21.832  0.00  0.00     0.084 H 
ENDBRANCH  58  61
ENDBRANCH  57  58
ENDBRANCH  55  57
ENDBRANCH  52  55
ENDBRANCH  49  52
ENDBRANCH  47  49
BRANCH  47  72
ATOM     72  C24 non d ame     -34.181  16.977  28.054  0.00  0.00    -0.039 C 
ATOM     73  H35 non d ame     -34.913  16.923  28.861  0.00  0.00     0.036 H 
ATOM     74  H36 non d ame     -33.129  17.145  28.283  0.00  0.00     0.036 H 
BRANCH  72  75
ATOM     75  C25 non d ame     -34.645  18.155  27.073  0.00  0.00    -0.001 C 
ATOM     76  C26 non d ame     -33.368  19.130  26.726  0.00  0.00    -0.035 C 
ATOM     77  C27 non d ame     -33.722  20.416  26.963  0.00  0.00     0.085 C 
ATOM     78  H38 non d ame     -32.559  18.954  27.434  0.00  0.00     0.036 H 
ATOM     79  H39 non d ame     -33.166  19.116  25.654  0.00  0.00     0.036 H 
ATOM     80  N5  non d ame     -35.011  20.379  27.750  0.00  0.00    -0.049 N 
ATOM     81  H40 non d ame     -32.931  20.824  27.593  0.00  0.00     0.075 H 
ATOM     82  H41 non d ame     -33.916  20.850  25.984  0.00  0.00     0.075 H 
ATOM     83  C28 non d ame     -35.573  18.873  27.611  0.00  0.00     0.193 C 
ATOM     84  H42 non d ame     -34.761  20.542  28.715  0.00  0.00     0.280 HD
ATOM     85  H43 non d ame     -35.648  21.006  27.281  0.00  0.00     0.280 HD
ATOM     86  H44 non d ame     -36.406  18.653  26.943  0.00  0.00     0.129 H 
ATOM     87  H37 non d ame     -35.230  17.785  26.231  0.00  0.00     0.046 H 
BRANCH  83  88
ATOM     88  O6  non d ame     -35.967  18.374  28.891  0.00  0.00    -0.369 OA
ATOM     89  H45 non d ame     -35.299  17.767  29.218  0.00  0.00     0.212 HD
ENDBRANCH  83  88
ENDBRANCH  72  75
ENDBRANCH  47  72
ENDBRANCH  45  47
ENDBRANCH   1  43
BRANCH   1  90
ATOM     90  C16 non d ame     -31.767  11.832  28.373  0.00  0.00    -0.035 C 
ATOM     91  H21 non d ame     -31.611  10.758  28.467  0.00  0.00     0.037 H 
ATOM     92  H22 non d ame     -31.739  12.304  27.391  0.00  0.00     0.037 H 
BRANCH  90  93
ATOM     93  C17 non d ame     -30.648  12.515  29.223  0.00  0.00    -0.059 C 
ATOM     94  H23 non d ame     -29.788  11.846  29.235  0.00  0.00     0.038 H 
BRANCH  93  95
ATOM     95  C18 non d ame     -30.186  13.873  28.607  0.00  0.00    -0.073 C 
ATOM     96  H24 non d ame     -31.008  14.589  28.645  0.00  0.00     0.028 H 
ATOM     97  H25 non d ame     -29.342  14.262  29.176  0.00  0.00     0.028 H 
ATOM     98  H26 non d ame     -29.886  13.719  27.571  0.00  0.00     0.028 H 
ENDBRANCH  93  95
BRANCH  93  99
ATOM     99  C19 non d ame     -31.100  12.701  30.674  0.00  0.00    -0.073 C 
ATOM    100  H27 non d ame     -30.549  13.529  31.123  0.00  0.00     0.028 H 
ATOM    101  H28 non d ame     -32.168  12.921  30.698  0.00  0.00     0.028 H 
ATOM    102  H29 non d ame     -30.905  11.788  31.236  0.00  0.00     0.028 H 
ENDBRANCH  93  99
ENDBRANCH  90  93
ENDBRANCH   1  90
TORSDOF 26
ENDMDL
MODEL 8
REMARK VINA RESULT:      -6.8      3.104     10.538
REMARK  26 active torsions:
REMARK  status: ('A' for Active; 'I' for Inactive)
REMARK    1  A    between atoms: C2_2  and  C3_3 
REMARK    2  A    between atoms: C4_6  and  C5_7 
REMARK       I    between atoms: C5_7  and  N2_9 
REMARK    3  A    between atoms: N2_9  and  C6_10 
REMARK    4  A    between atoms: C6_10  and  C7_11 
REMARK    5  A    between atoms: C6_10  and  C8_13 
REMARK       I    between atoms: C7_11  and  N3_14 
REMARK    6  A    between atoms: N3_14  and  C9_15 
REMARK    7  A    between atoms: C9_15  and  C10_16 
REMARK    8  A    between atoms: C9_15  and  C11_18 
REMARK       I    between atoms: C10_16  and  N4_21 
REMARK    9  A    between atoms: C11_18  and  C12_19 
REMARK   10  A    between atoms: C11_18  and  C13_20 
REMARK   11  A    between atoms: N4_21  and  C14_22 
REMARK   12  A    between atoms: C14_22  and  C15_23 
REMARK   13  A    between atoms: C14_22  and  C16_25 
REMARK       I    between atoms: C15_23  and  N6_40 
REMARK   14  A    between atoms: C16_25  and  C17_26 
REMARK   15  A    between atoms: C17_26  and  C18_27 
REMARK   16  A    between atoms: C17_26  and  C19_28 
REMARK   17  A    between atoms: C20_29  and  C21_30 
REMARK   18  A    between atoms: C20_29  and  C24_33 
REMARK   19  A    between atoms: C20_29  and  N6_40 
REMARK   20  A    between atoms: C21_30  and  C22_31 
REMARK   21  A    between atoms: C22_31  and  C23_32 
REMARK   22  A    between atoms: C23_32  and  O8_43 
REMARK   23  A    between atoms: C24_33  and  C25_34 
REMARK   24  A    between atoms: C28_38  and  O6_39 
REMARK   25  A    between atoms: C29_42  and  O8_43 
REMARK   26  A    between atoms: C29_42  and  C35_49 
ROOT
ATOM      1  C14 non d ame     -30.992  13.336  24.313  0.00  0.00     0.089 C 
ATOM      2  H20 non d ame     -30.035  13.209  24.820  0.00  0.00     0.087 H 
ENDROOT
BRANCH   1   3
ATOM      3  N4  non d ame     -31.619  12.026  24.224  0.00  0.00    -0.346 N 
ATOM      4  C10 non d ame     -31.598  11.090  25.404  0.00  0.00     0.241 C 
ATOM      5  O4  non d ame     -31.068  11.411  26.417  0.00  0.00    -0.271 OA
ATOM      6  H19 non d ame     -32.062  11.771  23.353  0.00  0.00     0.163 HD
BRANCH   4   7
ATOM      7  C9  non d ame     -32.257   9.739  25.296  0.00  0.00     0.092 C 
ATOM      8  H11 non d ame     -31.547   8.969  25.598  0.00  0.00     0.088 H 
BRANCH   7   9
ATOM      9  N3  non d ame     -33.391   9.672  26.223  0.00  0.00    -0.346 N 
ATOM     10  C7  non d ame     -33.344   8.781  27.356  0.00  0.00     0.240 C 
ATOM     11  O3  non d ame     -32.401   8.111  27.537  0.00  0.00    -0.271 OA
ATOM     12  H10 non d ame     -34.211  10.244  26.078  0.00  0.00     0.163 HD
BRANCH  10  13
ATOM     13  C6  non d ame     -34.555   8.712  28.337  0.00  0.00     0.086 C 
ATOM     14  H6  non d ame     -35.386   9.345  28.026  0.00  0.00     0.086 H 
BRANCH  13  15
ATOM     15  N2  non d ame     -35.059   7.349  28.368  0.00  0.00    -0.343 N 
ATOM     16  C5  non d ame     -36.398   7.063  27.849  0.00  0.00     0.273 C 
ATOM     17  O2  non d ame     -37.064   7.937  27.411  0.00  0.00    -0.266 OA
ATOM     18  H5  non d ame     -34.485   6.610  28.747  0.00  0.00     0.163 HD
BRANCH  16  19
ATOM     19  C4  non d ame     -36.943   5.627  27.876  0.00  0.00     0.154 A 
ATOM     20  C1  non d ame     -38.187   5.184  28.427  0.00  0.00    -0.017 A 
ATOM     21  C2  non d ame     -38.210   3.790  28.198  0.00  0.00     0.077 A 
ATOM     22  H1  non d ame     -38.955   5.782  28.918  0.00  0.00     0.091 H 
ATOM     23  O1  non d ame     -37.107   3.480  27.584  0.00  0.00    -0.218 OA
ATOM     24  N1  non d ame     -36.351   4.535  27.385  0.00  0.00    -0.123 NA
BRANCH  21  25
ATOM     25  C3  non d ame     -39.324   2.830  28.593  0.00  0.00    -0.029 C 
ATOM     26  H2  non d ame     -38.922   2.057  29.248  0.00  0.00     0.036 H 
ATOM     27  H3  non d ame     -40.107   3.377  29.119  0.00  0.00     0.036 H 
ATOM     28  H4  non d ame     -39.741   2.368  27.700  0.00  0.00     0.036 H 
ENDBRANCH  21  25
ENDBRANCH  16  19
ENDBRANCH  13  15
BRANCH  13  29
ATOM     29  C8  non d ame     -34.113   9.131  29.715  0.00  0.00    -0.049 C 
ATOM     30  H7  non d ame     -33.027   9.077  29.782  0.00  0.00     0.030 H 
ATOM     31  H8  non d ame     -34.436  10.155  29.905  0.00  0.00     0.030 H 
ATOM     32  H9  non d ame     -34.556   8.466  30.457  0.00  0.00     0.030 H 
ENDBRANCH  13  29
ENDBRANCH  10  13
ENDBRANCH   7   9
BRANCH   7  33
ATOM     33  C11 non d ame     -32.767   9.527  23.840  0.00  0.00    -0.033 C 
ATOM     34  H12 non d ame     -32.633  10.467  23.305  0.00  0.00     0.042 H 
BRANCH  33  35
ATOM     35  C12 non d ame     -31.928   8.441  23.097  0.00  0.00    -0.071 C 
ATOM     36  H13 non d ame     -31.368   8.906  22.286  0.00  0.00     0.028 H 
ATOM     37  H14 non d ame     -31.236   7.974  23.797  0.00  0.00     0.028 H 
ATOM     38  H15 non d ame     -32.597   7.683  22.687  0.00  0.00     0.028 H 
ENDBRANCH  33  35
BRANCH  33  39
ATOM     39  C13 non d ame     -34.289   9.176  23.827  0.00  0.00    -0.071 C 
ATOM     40  H16 non d ame     -34.645   9.142  22.797  0.00  0.00     0.028 H 
ATOM     41  H17 non d ame     -34.442   8.204  24.298  0.00  0.00     0.028 H 
ATOM     42  H18 non d ame     -34.843   9.936  24.378  0.00  0.00     0.028 H 
ENDBRANCH  33  39
ENDBRANCH   7  33
ENDBRANCH   4   7
ENDBRANCH   1   3
BRANCH   1  43
ATOM     43  C15 non d ame     -31.945  14.290  25.090  0.00  0.00     0.240 C 
ATOM     44  O5  non d ame     -32.886  14.763  24.539  0.00  0.00    -0.271 OA
ATOM     45  N6  non d ame     -31.690  14.606  26.524  0.00  0.00    -0.355 N 
ATOM     46  H46 non d ame     -30.896  14.206  27.005  0.00  0.00     0.162 HD
BRANCH  45  47
ATOM     47  C20 non d ame     -32.606  15.513  27.249  0.00  0.00     0.013 C 
ATOM     48  H30 non d ame     -33.586  15.447  26.776  0.00  0.00     0.072 H 
BRANCH  47  49
ATOM     49  C21 non d ame     -32.082  16.929  27.159  0.00  0.00    -0.038 C 
ATOM     50  H31 non d ame     -32.184  17.344  28.162  0.00  0.00     0.036 H 
ATOM     51  H32 non d ame     -31.097  16.849  26.699  0.00  0.00     0.036 H 
BRANCH  49  52
ATOM     52  C22 non d ame     -32.928  17.823  26.227  0.00  0.00     0.018 C 
ATOM     53  H33 non d ame     -32.349  17.925  25.310  0.00  0.00     0.048 H 
ATOM     54  H34 non d ame     -33.918  17.366  26.199  0.00  0.00     0.048 H 
BRANCH  52  55
ATOM     55  C23 non d ame     -33.138  19.266  26.764  0.00  0.00     0.259 C 
ATOM     56  O7  non d ame     -32.312  19.781  27.447  0.00  0.00    -0.265 OA
BRANCH  55  57
ATOM     57  O8  non d ame     -34.336  19.962  26.442  0.00  0.00    -0.317 OA
BRANCH  57  58
ATOM     58  C29 non d ame     -35.531  19.257  26.790  0.00  0.00     0.052 C 
ATOM     59  H47 non d ame     -35.204  18.284  27.156  0.00  0.00     0.082 H 
ATOM     60  H48 non d ame     -36.089  19.926  27.444  0.00  0.00     0.082 H 
BRANCH  58  61
ATOM     61  C35 non d ame     -36.354  19.042  25.491  0.00  0.00    -0.034 A 
ATOM     62  C30 non d ame     -36.693  20.132  24.694  0.00  0.00    -0.075 A 
ATOM     63  C31 non d ame     -37.433  19.939  23.528  0.00  0.00    -0.082 A 
ATOM     64  H49 non d ame     -36.380  21.135  24.982  0.00  0.00     0.084 H 
ATOM     65  C32 non d ame     -37.836  18.652  23.161  0.00  0.00    -0.083 A 
ATOM     66  H50 non d ame     -37.695  20.794  22.903  0.00  0.00     0.083 H 
ATOM     67  C33 non d ame     -37.498  17.570  23.962  0.00  0.00    -0.082 A 
ATOM     68  H51 non d ame     -38.414  18.493  22.250  0.00  0.00     0.083 H 
ATOM     69  C34 non d ame     -36.758  17.757  25.127  0.00  0.00    -0.075 A 
ATOM     70  H52 non d ame     -37.817  16.566  23.675  0.00  0.00     0.083 H 
ATOM     71  H53 non d ame     -36.496  16.902  25.751  0.00  0.00     0.084 H 
ENDBRANCH  58  61
ENDBRANCH  57  58
ENDBRANCH  55  57
ENDBRANCH  52  55
ENDBRANCH  49  52
ENDBRANCH  47  49
BRANCH  47  72
ATOM     72  C24 non d ame     -32.696  15.094  28.714  0.00  0.00    -0.039 C 
ATOM     73  H35 non d ame     -32.306  15.940  29.282  0.00  0.00     0.036 H 
ATOM     74  H36 non d ame     -33.726  14.768  28.861  0.00  0.00     0.036 H 
BRANCH  72  75
ATOM     75  C25 non d ame     -31.753  13.838  29.031  0.00  0.00    -0.001 C 
ATOM     76  C26 non d ame     -32.663  12.572  29.552  0.00  0.00    -0.035 C 
ATOM     77  C27 non d ame     -32.140  12.106  30.711  0.00  0.00     0.085 C 
ATOM     78  H38 non d ame     -33.655  12.918  29.842  0.00  0.00     0.036 H 
ATOM     79  H39 non d ame     -32.559  11.729  28.868  0.00  0.00     0.036 H 
ATOM     80  N5  non d ame     -31.154  13.141  31.198  0.00  0.00    -0.049 N 
ATOM     81  H40 non d ame     -32.976  12.055  31.409  0.00  0.00     0.075 H 
ATOM     82  H41 non d ame     -31.599  11.199  30.443  0.00  0.00     0.075 H 
ATOM     83  C28 non d ame     -30.887  14.123  29.945  0.00  0.00     0.193 C 
ATOM     84  H42 non d ame     -31.623  13.665  31.922  0.00  0.00     0.280 HD
ATOM     85  H43 non d ame     -30.299  12.645  31.406  0.00  0.00     0.280 HD
ATOM     86  H44 non d ame     -29.962  14.048  29.371  0.00  0.00     0.129 H 
ATOM     87  H37 non d ame     -31.044  13.641  28.227  0.00  0.00     0.046 H 
BRANCH  83  88
ATOM     88  O6  non d ame     -30.970  15.487  30.360  0.00  0.00    -0.369 OA
ATOM     89  H45 non d ame     -30.516  15.594  31.200  0.00  0.00     0.212 HD
ENDBRANCH  83  88
ENDBRANCH  72  75
ENDBRANCH  47  72
ENDBRANCH  45  47
ENDBRANCH   1  43
BRANCH   1  90
ATOM     90  C16 non d ame     -30.762  13.875  22.910  0.00  0.00    -0.035 C 
ATOM     91  H21 non d ame     -30.039  13.199  22.457  0.00  0.00     0.037 H 
ATOM     92  H22 non d ame     -31.757  13.982  22.476  0.00  0.00     0.037 H 
BRANCH  90  93
ATOM     93  C17 non d ame     -30.114  15.296  22.884  0.00  0.00    -0.059 C 
ATOM     94  H23 non d ame     -30.200  15.717  23.886  0.00  0.00     0.038 H 
BRANCH  93  95
ATOM     95  C18 non d ame     -28.597  15.246  22.517  0.00  0.00    -0.073 C 
ATOM     96  H24 non d ame     -28.142  14.365  22.970  0.00  0.00     0.028 H 
ATOM     97  H25 non d ame     -28.487  15.193  21.434  0.00  0.00     0.028 H 
ATOM     98  H26 non d ame     -28.103  16.143  22.889  0.00  0.00     0.028 H 
ENDBRANCH  93  95
BRANCH  93  99
ATOM     99  C19 non d ame     -30.873  16.226  21.933  0.00  0.00    -0.073 C 
ATOM    100  H27 non d ame     -30.763  15.866  20.909  0.00  0.00     0.028 H 
ATOM    101  H28 non d ame     -31.930  16.238  22.201  0.00  0.00     0.028 H 
ATOM    102  H29 non d ame     -30.468  17.234  22.010  0.00  0.00     0.028 H 
ENDBRANCH  93  99
ENDBRANCH  90  93
ENDBRANCH   1  90
TORSDOF 26
ENDMDL
MODEL 9
REMARK VINA RESULT:      -6.7      3.066      9.006
REMARK  26 active torsions:
REMARK  status: ('A' for Active; 'I' for Inactive)
REMARK    1  A    between atoms: C2_2  and  C3_3 
REMARK    2  A    between atoms: C4_6  and  C5_7 
REMARK       I    between atoms: C5_7  and  N2_9 
REMARK    3  A    between atoms: N2_9  and  C6_10 
REMARK    4  A    between atoms: C6_10  and  C7_11 
REMARK    5  A    between atoms: C6_10  and  C8_13 
REMARK       I    between atoms: C7_11  and  N3_14 
REMARK    6  A    between atoms: N3_14  and  C9_15 
REMARK    7  A    between atoms: C9_15  and  C10_16 
REMARK    8  A    between atoms: C9_15  and  C11_18 
REMARK       I    between atoms: C10_16  and  N4_21 
REMARK    9  A    between atoms: C11_18  and  C12_19 
REMARK   10  A    between atoms: C11_18  and  C13_20 
REMARK   11  A    between atoms: N4_21  and  C14_22 
REMARK   12  A    between atoms: C14_22  and  C15_23 
REMARK   13  A    between atoms: C14_22  and  C16_25 
REMARK       I    between atoms: C15_23  and  N6_40 
REMARK   14  A    between atoms: C16_25  and  C17_26 
REMARK   15  A    between atoms: C17_26  and  C18_27 
REMARK   16  A    between atoms: C17_26  and  C19_28 
REMARK   17  A    between atoms: C20_29  and  C21_30 
REMARK   18  A    between atoms: C20_29  and  C24_33 
REMARK   19  A    between atoms: C20_29  and  N6_40 
REMARK   20  A    between atoms: C21_30  and  C22_31 
REMARK   21  A    between atoms: C22_31  and  C23_32 
REMARK   22  A    between atoms: C23_32  and  O8_43 
REMARK   23  A    between atoms: C24_33  and  C25_34 
REMARK   24  A    between atoms: C28_38  and  O6_39 
REMARK   25  A    between atoms: C29_42  and  O8_43 
REMARK   26  A    between atoms: C29_42  and  C35_49 
ROOT
ATOM      1  C14 non d ame     -32.643   9.904  25.464  0.00  0.00     0.089 C 
ATOM      2  H20 non d ame     -32.156   8.988  25.798  0.00  0.00     0.087 H 
ENDROOT
BRANCH   1   3
ATOM      3  N4  non d ame     -33.738  10.179  26.383  0.00  0.00    -0.346 N 
ATOM      4  C10 non d ame     -34.673   9.074  26.806  0.00  0.00     0.241 C 
ATOM      5  O4  non d ame     -34.526   7.971  26.392  0.00  0.00    -0.271 OA
ATOM      6  H19 non d ame     -33.848  11.124  26.721  0.00  0.00     0.163 HD
BRANCH   4   7
ATOM      7  C9  non d ame     -35.798   9.375  27.761  0.00  0.00     0.092 C 
ATOM      8  H11 non d ame     -36.198   8.439  28.150  0.00  0.00     0.088 H 
BRANCH   7   9
ATOM      9  N3  non d ame     -35.280  10.132  28.905  0.00  0.00    -0.346 N 
ATOM     10  C7  non d ame     -34.731   9.435  30.042  0.00  0.00     0.240 C 
ATOM     11  O3  non d ame     -34.699   8.265  30.054  0.00  0.00    -0.271 OA
ATOM     12  H10 non d ame     -35.302  11.142  28.909  0.00  0.00     0.163 HD
BRANCH  10  13
ATOM     13  C6  non d ame     -34.184  10.247  31.257  0.00  0.00     0.086 C 
ATOM     14  H6  non d ame     -33.302   9.790  31.706  0.00  0.00     0.086 H 
BRANCH  13  15
ATOM     15  N2  non d ame     -33.782  11.566  30.800  0.00  0.00    -0.343 N 
ATOM     16  C5  non d ame     -32.358  11.879  30.662  0.00  0.00     0.273 C 
ATOM     17  O2  non d ame     -31.543  11.063  30.923  0.00  0.00    -0.266 OA
ATOM     18  H5  non d ame     -34.484  12.259  30.582  0.00  0.00     0.163 HD
BRANCH  16  19
ATOM     19  C4  non d ame     -31.918  13.271  30.179  0.00  0.00     0.154 A 
ATOM     20  C1  non d ame     -32.713  14.235  29.482  0.00  0.00    -0.017 A 
ATOM     21  C2  non d ame     -31.850  15.333  29.272  0.00  0.00     0.077 A 
ATOM     22  H1  non d ame     -33.756  14.150  29.176  0.00  0.00     0.091 H 
ATOM     23  O1  non d ame     -30.698  15.026  29.792  0.00  0.00    -0.218 OA
ATOM     24  N1  non d ame     -30.714  13.827  30.328  0.00  0.00    -0.123 NA
BRANCH  21  25
ATOM     25  C3  non d ame     -32.203  16.636  28.568  0.00  0.00    -0.029 C 
ATOM     26  H2  non d ame     -31.482  16.827  27.774  0.00  0.00     0.036 H 
ATOM     27  H3  non d ame     -33.202  16.557  28.138  0.00  0.00     0.036 H 
ATOM     28  H4  non d ame     -32.180  17.456  29.285  0.00  0.00     0.036 H 
ENDBRANCH  21  25
ENDBRANCH  16  19
ENDBRANCH  13  15
BRANCH  13  29
ATOM     29  C8  non d ame     -35.258  10.368  32.308  0.00  0.00    -0.049 C 
ATOM     30  H7  non d ame     -35.038   9.692  33.133  0.00  0.00     0.030 H 
ATOM     31  H8  non d ame     -35.290  11.393  32.678  0.00  0.00     0.030 H 
ATOM     32  H9  non d ame     -36.223  10.108  31.872  0.00  0.00     0.030 H 
ENDBRANCH  13  29
ENDBRANCH  10  13
ENDBRANCH   7   9
BRANCH   7  33
ATOM     33  C11 non d ame     -36.884  10.220  27.033  0.00  0.00    -0.033 C 
ATOM     34  H12 non d ame     -36.601  10.284  25.982  0.00  0.00     0.042 H 
BRANCH  33  35
ATOM     35  C12 non d ame     -38.281   9.528  27.100  0.00  0.00    -0.071 C 
ATOM     36  H13 non d ame     -38.337   8.747  26.342  0.00  0.00     0.028 H 
ATOM     37  H14 non d ame     -38.422   9.087  28.087  0.00  0.00     0.028 H 
ATOM     38  H15 non d ame     -39.062  10.266  26.917  0.00  0.00     0.028 H 
ENDBRANCH  33  35
BRANCH  33  39
ATOM     39  C13 non d ame     -36.942  11.671  27.607  0.00  0.00    -0.071 C 
ATOM     40  H16 non d ame     -37.506  11.671  28.540  0.00  0.00     0.028 H 
ATOM     41  H17 non d ame     -35.929  12.030  27.794  0.00  0.00     0.028 H 
ATOM     42  H18 non d ame     -37.432  12.328  26.888  0.00  0.00     0.028 H 
ENDBRANCH  33  39
ENDBRANCH   7  33
ENDBRANCH   4   7
ENDBRANCH   1   3
BRANCH   1  43
ATOM     43  C15 non d ame     -31.673  11.121  25.473  0.00  0.00     0.240 C 
ATOM     44  O5  non d ame     -30.695  11.092  26.148  0.00  0.00    -0.271 OA
ATOM     45  N6  non d ame     -31.958  12.318  24.632  0.00  0.00    -0.355 N 
ATOM     46  H46 non d ame     -32.783  12.352  24.050  0.00  0.00     0.162 HD
BRANCH  45  47
ATOM     47  C20 non d ame     -31.025  13.465  24.651  0.00  0.00     0.013 C 
ATOM     48  H30 non d ame     -30.248  13.253  25.385  0.00  0.00     0.072 H 
BRANCH  47  49
ATOM     49  C21 non d ame     -31.779  14.717  25.041  0.00  0.00    -0.038 C 
ATOM     50  H31 non d ame     -31.673  14.798  26.123  0.00  0.00     0.036 H 
ATOM     51  H32 non d ame     -31.394  15.506  24.395  0.00  0.00     0.036 H 
BRANCH  49  52
ATOM     52  C22 non d ame     -33.293  14.617  24.756  0.00  0.00     0.018 C 
ATOM     53  H33 non d ame     -33.592  15.603  24.403  0.00  0.00     0.048 H 
ATOM     54  H34 non d ame     -33.415  13.747  24.112  0.00  0.00     0.048 H 
BRANCH  52  55
ATOM     55  C23 non d ame     -34.152  14.337  26.021  0.00  0.00     0.259 C 
ATOM     56  O7  non d ame     -34.046  13.307  26.605  0.00  0.00    -0.265 OA
BRANCH  55  57
ATOM     57  O8  non d ame     -35.077  15.321  26.467  0.00  0.00    -0.317 OA
BRANCH  57  58
ATOM     58  C29 non d ame     -35.808  15.955  25.413  0.00  0.00     0.052 C 
ATOM     59  H47 non d ame     -35.249  15.747  24.501  0.00  0.00     0.082 H 
ATOM     60  H48 non d ame     -36.835  15.606  25.515  0.00  0.00     0.082 H 
BRANCH  58  61
ATOM     61  C35 non d ame     -35.783  17.486  25.666  0.00  0.00    -0.034 A 
ATOM     62  C30 non d ame     -36.695  18.314  25.018  0.00  0.00    -0.075 A 
ATOM     63  C31 non d ame     -36.673  19.689  25.245  0.00  0.00    -0.082 A 
ATOM     64  H49 non d ame     -37.426  17.886  24.332  0.00  0.00     0.084 H 
ATOM     65  C32 non d ame     -35.733  20.237  26.123  0.00  0.00    -0.083 A 
ATOM     66  H50 non d ame     -37.390  20.335  24.737  0.00  0.00     0.083 H 
ATOM     67  C33 non d ame     -34.823  19.407  26.764  0.00  0.00    -0.082 A 
ATOM     68  H51 non d ame     -35.710  21.311  26.307  0.00  0.00     0.083 H 
ATOM     69  C34 non d ame     -34.843  18.032  26.542  0.00  0.00    -0.075 A 
ATOM     70  H52 non d ame     -34.090  19.838  27.447  0.00  0.00     0.083 H 
ATOM     71  H53 non d ame     -34.126  17.387  27.050  0.00  0.00     0.084 H 
ENDBRANCH  58  61
ENDBRANCH  57  58
ENDBRANCH  55  57
ENDBRANCH  52  55
ENDBRANCH  49  52
ENDBRANCH  47  49
BRANCH  47  72
ATOM     72  C24 non d ame     -30.409  13.652  23.266  0.00  0.00    -0.039 C 
ATOM     73  H35 non d ame     -29.392  13.265  23.347  0.00  0.00     0.036 H 
ATOM     74  H36 non d ame     -31.112  13.194  22.571  0.00  0.00     0.036 H 
BRANCH  72  75
ATOM     75  C25 non d ame     -30.295  15.200  22.871  0.00  0.00    -0.001 C 
ATOM     76  C26 non d ame     -31.345  15.547  21.655  0.00  0.00    -0.035 C 
ATOM     77  C27 non d ame     -30.673  16.178  20.663  0.00  0.00     0.085 C 
ATOM     78  H38 non d ame     -31.689  14.626  21.184  0.00  0.00     0.036 H 
ATOM     79  H39 non d ame     -32.069  16.292  21.986  0.00  0.00     0.036 H 
ATOM     80  N5  non d ame     -29.200  16.002  20.948  0.00  0.00    -0.049 N 
ATOM     81  H40 non d ame     -30.926  15.638  19.751  0.00  0.00     0.075 H 
ATOM     82  H41 non d ame     -30.930  17.232  20.762  0.00  0.00     0.075 H 
ATOM     83  C28 non d ame     -29.101  15.495  22.477  0.00  0.00     0.193 C 
ATOM     84  H42 non d ame     -28.878  15.261  20.342  0.00  0.00     0.280 HD
ATOM     85  H43 non d ame     -28.786  16.921  20.885  0.00  0.00     0.280 HD
ATOM     86  H44 non d ame     -28.795  16.180  23.268  0.00  0.00     0.129 H 
ATOM     87  H37 non d ame     -30.315  15.851  23.745  0.00  0.00     0.046 H 
BRANCH  83  88
ATOM     88  O6  non d ame     -28.211  14.381  22.571  0.00  0.00    -0.369 OA
ATOM     89  H45 non d ame     -28.677  13.578  22.325  0.00  0.00     0.212 HD
ENDBRANCH  83  88
ENDBRANCH  72  75
ENDBRANCH  47  72
ENDBRANCH  45  47
ENDBRANCH   1  43
BRANCH   1  90
ATOM     90  C16 non d ame     -33.205   9.709  24.065  0.00  0.00    -0.035 C 
ATOM     91  H21 non d ame     -34.197   9.283  24.210  0.00  0.00     0.037 H 
ATOM     92  H22 non d ame     -33.092  10.674  23.572  0.00  0.00     0.037 H 
BRANCH  90  93
ATOM     93  C17 non d ame     -32.404   8.678  23.208  0.00  0.00    -0.059 C 
ATOM     94  H23 non d ame     -33.054   8.344  22.400  0.00  0.00     0.038 H 
BRANCH  93  95
ATOM     95  C18 non d ame     -31.130   9.312  22.562  0.00  0.00    -0.073 C 
ATOM     96  H24 non d ame     -30.274   9.158  23.220  0.00  0.00     0.028 H 
ATOM     97  H25 non d ame     -30.937   8.838  21.600  0.00  0.00     0.028 H 
ATOM     98  H26 non d ame     -31.290  10.380  22.417  0.00  0.00     0.028 H 
ENDBRANCH  93  95
BRANCH  93  99
ATOM     99  C19 non d ame     -32.037   7.444  24.037  0.00  0.00    -0.073 C 
ATOM    100  H27 non d ame     -32.292   6.542  23.478  0.00  0.00     0.028 H 
ATOM    101  H28 non d ame     -30.967   7.450  24.246  0.00  0.00     0.028 H 
ATOM    102  H29 non d ame     -32.591   7.459  24.975  0.00  0.00     0.028 H 
ENDBRANCH  93  99
ENDBRANCH  90  93
ENDBRANCH   1  90
TORSDOF 26
ENDMDL
MODEL 10
REMARK VINA RESULT:      -6.6      2.817      6.102
REMARK  26 active torsions:
REMARK  status: ('A' for Active; 'I' for Inactive)
REMARK    1  A    between atoms: C2_2  and  C3_3 
REMARK    2  A    between atoms: C4_6  and  C5_7 
REMARK       I    between atoms: C5_7  and  N2_9 
REMARK    3  A    between atoms: N2_9  and  C6_10 
REMARK    4  A    between atoms: C6_10  and  C7_11 
REMARK    5  A    between atoms: C6_10  and  C8_13 
REMARK       I    between atoms: C7_11  and  N3_14 
REMARK    6  A    between atoms: N3_14  and  C9_15 
REMARK    7  A    between atoms: C9_15  and  C10_16 
REMARK    8  A    between atoms: C9_15  and  C11_18 
REMARK       I    between atoms: C10_16  and  N4_21 
REMARK    9  A    between atoms: C11_18  and  C12_19 
REMARK   10  A    between atoms: C11_18  and  C13_20 
REMARK   11  A    between atoms: N4_21  and  C14_22 
REMARK   12  A    between atoms: C14_22  and  C15_23 
REMARK   13  A    between atoms: C14_22  and  C16_25 
REMARK       I    between atoms: C15_23  and  N6_40 
REMARK   14  A    between atoms: C16_25  and  C17_26 
REMARK   15  A    between atoms: C17_26  and  C18_27 
REMARK   16  A    between atoms: C17_26  and  C19_28 
REMARK   17  A    between atoms: C20_29  and  C21_30 
REMARK   18  A    between atoms: C20_29  and  C24_33 
REMARK   19  A    between atoms: C20_29  and  N6_40 
REMARK   20  A    between atoms: C21_30  and  C22_31 
REMARK   21  A    between atoms: C22_31  and  C23_32 
REMARK   22  A    between atoms: C23_32  and  O8_43 
REMARK   23  A    between atoms: C24_33  and  C25_34 
REMARK   24  A    between atoms: C28_38  and  O6_39 
REMARK   25  A    between atoms: C29_42  and  O8_43 
REMARK   26  A    between atoms: C29_42  and  C35_49 
ROOT
ATOM      1  C14 non d ame     -33.011   9.289  28.113  0.00  0.00     0.089 C 
ATOM      2  H20 non d ame     -32.020   8.889  28.325  0.00  0.00     0.087 H 
ENDROOT
BRANCH   1   3
ATOM      3  N4  non d ame     -32.945  10.734  28.275  0.00  0.00    -0.346 N 
ATOM      4  C10 non d ame     -31.869  11.529  27.580  0.00  0.00     0.241 C 
ATOM      5  O4  non d ame     -31.066  10.985  26.896  0.00  0.00    -0.271 OA
ATOM      6  H19 non d ame     -33.635  11.178  28.863  0.00  0.00     0.163 HD
BRANCH   4   7
ATOM      7  C9  non d ame     -31.817  13.025  27.755  0.00  0.00     0.092 C 
ATOM      8  H11 non d ame     -30.782  13.358  27.685  0.00  0.00     0.088 H 
BRANCH   7   9
ATOM      9  N3  non d ame     -32.555  13.670  26.664  0.00  0.00    -0.346 N 
ATOM     10  C7  non d ame     -31.851  14.469  25.692  0.00  0.00     0.240 C 
ATOM     11  O3  non d ame     -30.691  14.603  25.772  0.00  0.00    -0.271 OA
ATOM     12  H10 non d ame     -33.556  13.565  26.584  0.00  0.00     0.163 HD
BRANCH  10  13
ATOM     13  C6  non d ame     -32.641  15.156  24.536  0.00  0.00     0.086 C 
ATOM     14  H6  non d ame     -33.584  14.657  24.315  0.00  0.00     0.086 H 
BRANCH  13  15
ATOM     15  N2  non d ame     -32.974  16.514  24.934  0.00  0.00    -0.343 N 
ATOM     16  C5  non d ame     -34.158  16.754  25.761  0.00  0.00     0.273 C 
ATOM     17  O2  non d ame     -34.839  15.849  26.099  0.00  0.00    -0.266 OA
ATOM     18  H5  non d ame     -32.388  17.282  24.638  0.00  0.00     0.163 HD
BRANCH  16  19
ATOM     19  C4  non d ame     -34.520  18.185  26.189  0.00  0.00     0.154 A 
ATOM     20  C1  non d ame     -35.823  18.775  26.217  0.00  0.00    -0.017 A 
ATOM     21  C2  non d ame     -35.615  20.093  26.681  0.00  0.00     0.077 A 
ATOM     22  H1  non d ame     -36.774  18.317  25.943  0.00  0.00     0.091 H 
ATOM     23  O1  non d ame     -34.340  20.233  26.893  0.00  0.00    -0.218 OA
ATOM     24  N1  non d ame     -33.680  19.132  26.613  0.00  0.00    -0.123 NA
BRANCH  21  25
ATOM     25  C3  non d ame     -36.687  21.153  26.895  0.00  0.00    -0.029 C 
ATOM     26  H2  non d ame     -36.456  21.728  27.792  0.00  0.00     0.036 H 
ATOM     27  H3  non d ame     -36.715  21.821  26.035  0.00  0.00     0.036 H 
ATOM     28  H4  non d ame     -37.657  20.672  27.013  0.00  0.00     0.036 H 
ENDBRANCH  21  25
ENDBRANCH  16  19
ENDBRANCH  13  15
BRANCH  13  29
ATOM     29  C8  non d ame     -31.796  15.175  23.288  0.00  0.00    -0.049 C 
ATOM     30  H7  non d ame     -32.055  16.046  22.687  0.00  0.00     0.030 H 
ATOM     31  H8  non d ame     -30.743  15.225  23.562  0.00  0.00     0.030 H 
ATOM     32  H9  non d ame     -31.980  14.268  22.711  0.00  0.00     0.030 H 
ENDBRANCH  13  29
ENDBRANCH  10  13
ENDBRANCH   7   9
BRANCH   7  33
ATOM     33  C11 non d ame     -32.468  13.410  29.116  0.00  0.00    -0.033 C 
ATOM     34  H12 non d ame     -33.382  12.827  29.220  0.00  0.00     0.042 H 
BRANCH  33  35
ATOM     35  C12 non d ame     -31.538  13.041  30.314  0.00  0.00    -0.071 C 
ATOM     36  H13 non d ame     -31.962  12.197  30.857  0.00  0.00     0.028 H 
ATOM     37  H14 non d ame     -30.551  12.773  29.939  0.00  0.00     0.028 H 
ATOM     38  H15 non d ame     -31.452  13.896  30.984  0.00  0.00     0.028 H 
ENDBRANCH  33  35
BRANCH  33  39
ATOM     39  C13 non d ame     -32.854  14.923  29.143  0.00  0.00    -0.071 C 
ATOM     40  H16 non d ame     -33.094  15.219  30.165  0.00  0.00     0.028 H 
ATOM     41  H17 non d ame     -32.016  15.519  28.779  0.00  0.00     0.028 H 
ATOM     42  H18 non d ame     -33.721  15.089  28.504  0.00  0.00     0.028 H 
ENDBRANCH  33  39
ENDBRANCH   7  33
ENDBRANCH   4   7
ENDBRANCH   1   3
BRANCH   1  43
ATOM     43  C15 non d ame     -33.473   8.974  26.660  0.00  0.00     0.240 C 
ATOM     44  O5  non d ame     -34.268   9.679  26.127  0.00  0.00    -0.271 OA
ATOM     45  N6  non d ame     -32.915   7.801  25.930  0.00  0.00    -0.355 N 
ATOM     46  H46 non d ame     -32.235   7.198  26.371  0.00  0.00     0.162 HD
BRANCH  45  47
ATOM     47  C20 non d ame     -33.363   7.516  24.550  0.00  0.00     0.013 C 
ATOM     48  H30 non d ame     -34.010   8.334  24.233  0.00  0.00     0.072 H 
BRANCH  47  49
ATOM     49  C21 non d ame     -34.129   6.212  24.532  0.00  0.00    -0.038 C 
ATOM     50  H31 non d ame     -34.777   6.239  25.408  0.00  0.00     0.036 H 
ATOM     51  H32 non d ame     -34.564   6.141  23.534  0.00  0.00     0.036 H 
BRANCH  49  52
ATOM     52  C22 non d ame     -33.216   4.978  24.699  0.00  0.00     0.018 C 
ATOM     53  H33 non d ame     -33.585   4.240  23.989  0.00  0.00     0.048 H 
ATOM     54  H34 non d ame     -32.196   5.353  24.616  0.00  0.00     0.048 H 
BRANCH  52  55
ATOM     55  C23 non d ame     -33.315   4.312  26.100  0.00  0.00     0.259 C 
ATOM     56  O7  non d ame     -33.455   3.136  26.199  0.00  0.00    -0.265 OA
BRANCH  55  57
ATOM     57  O8  non d ame     -33.251   5.126  27.265  0.00  0.00    -0.317 OA
BRANCH  57  58
ATOM     58  C29 non d ame     -33.320   4.394  28.492  0.00  0.00     0.052 C 
ATOM     59  H47 non d ame     -33.624   3.385  28.216  0.00  0.00     0.082 H 
ATOM     60  H48 non d ame     -32.365   4.560  28.989  0.00  0.00     0.082 H 
BRANCH  58  61
ATOM     61  C35 non d ame     -34.440   5.024  29.362  0.00  0.00    -0.034 A 
ATOM     62  C30 non d ame     -35.644   5.405  28.777  0.00  0.00    -0.075 A 
ATOM     63  C31 non d ame     -36.651   5.972  29.559  0.00  0.00    -0.082 A 
ATOM     64  H49 non d ame     -35.799   5.262  27.708  0.00  0.00     0.084 H 
ATOM     65  C32 non d ame     -36.449   6.158  30.929  0.00  0.00    -0.083 A 
ATOM     66  H50 non d ame     -37.594   6.268  29.098  0.00  0.00     0.083 H 
ATOM     67  C33 non d ame     -35.245   5.779  31.506  0.00  0.00    -0.082 A 
ATOM     68  H51 non d ame     -37.232   6.599  31.547  0.00  0.00     0.083 H 
ATOM     69  C34 non d ame     -34.237   5.212  30.730  0.00  0.00    -0.075 A 
ATOM     70  H52 non d ame     -35.090   5.928  32.576  0.00  0.00     0.083 H 
ATOM     71  H53 non d ame     -33.295   4.915  31.191  0.00  0.00     0.084 H 
ENDBRANCH  58  61
ENDBRANCH  57  58
ENDBRANCH  55  57
ENDBRANCH  52  55
ENDBRANCH  49  52
ENDBRANCH  47  49
BRANCH  47  72
ATOM     72  C24 non d ame     -32.152   7.409  23.626  0.00  0.00    -0.039 C 
ATOM     73  H35 non d ame     -31.332   7.882  24.167  0.00  0.00     0.036 H 
ATOM     74  H36 non d ame     -32.088   6.356  23.352  0.00  0.00     0.036 H 
BRANCH  72  75
ATOM     75  C25 non d ame     -32.365   8.238  22.272  0.00  0.00    -0.001 C 
ATOM     76  C26 non d ame     -33.971   8.402  21.962  0.00  0.00    -0.035 C 
ATOM     77  C27 non d ame     -34.214   8.005  20.690  0.00  0.00     0.085 C 
ATOM     78  H38 non d ame     -34.542   7.695  22.563  0.00  0.00     0.036 H 
ATOM     79  H39 non d ame     -34.246   9.458  21.956  0.00  0.00     0.036 H 
ATOM     80  N5  non d ame     -32.979   7.279  20.212  0.00  0.00    -0.049 N 
ATOM     81  H40 non d ame     -35.039   7.297  20.758  0.00  0.00     0.075 H 
ATOM     82  H41 non d ame     -34.330   8.924  20.116  0.00  0.00     0.075 H 
ATOM     83  C28 non d ame     -31.813   7.642  21.268  0.00  0.00     0.193 C 
ATOM     84  H42 non d ame     -33.182   6.293  20.283  0.00  0.00     0.280 HD
ATOM     85  H43 non d ame     -32.740   7.683  19.317  0.00  0.00     0.280 HD
ATOM     86  H44 non d ame     -31.039   8.365  21.010  0.00  0.00     0.129 H 
ATOM     87  H37 non d ame     -31.759   9.144  22.243  0.00  0.00     0.046 H 
BRANCH  83  88
ATOM     88  O6  non d ame     -31.117   6.458  21.660  0.00  0.00    -0.369 OA
ATOM     89  H45 non d ame     -30.839   5.976  20.877  0.00  0.00     0.212 HD
ENDBRANCH  83  88
ENDBRANCH  72  75
ENDBRANCH  47  72
ENDBRANCH  45  47
ENDBRANCH   1  43
BRANCH   1  90
ATOM     90  C16 non d ame     -34.017   8.724  29.102  0.00  0.00    -0.035 C 
ATOM     91  H21 non d ame     -34.719   8.147  28.502  0.00  0.00     0.037 H 
ATOM     92  H22 non d ame     -33.421   8.230  29.870  0.00  0.00     0.037 H 
BRANCH  90  93
ATOM     93  C17 non d ame     -34.860   9.818  29.833  0.00  0.00    -0.059 C 
ATOM     94  H23 non d ame     -34.427  10.788  29.586  0.00  0.00     0.038 H 
BRANCH  93  95
ATOM     95  C18 non d ame     -36.349   9.828  29.362  0.00  0.00    -0.073 C 
ATOM     96  H24 non d ame     -36.865   8.959  29.768  0.00  0.00     0.028 H 
ATOM     97  H25 non d ame     -36.836  10.737  29.716  0.00  0.00     0.028 H 
ATOM     98  H26 non d ame     -36.386   9.797  28.273  0.00  0.00     0.028 H 
ENDBRANCH  93  95
BRANCH  93  99
ATOM     99  C19 non d ame     -34.770   9.653  31.352  0.00  0.00    -0.073 C 
ATOM    100  H27 non d ame     -33.928  10.233  31.732  0.00  0.00     0.028 H 
ATOM    101  H28 non d ame     -35.692  10.010  31.812  0.00  0.00     0.028 H 
ATOM    102  H29 non d ame     -34.627   8.601  31.596  0.00  0.00     0.028 H 
ENDBRANCH  93  99
ENDBRANCH  90  93
ENDBRANCH   1  90
TORSDOF 26
ENDMDL
MODEL 11
REMARK VINA RESULT:      -6.6      3.411     10.591
REMARK  26 active torsions:
REMARK  status: ('A' for Active; 'I' for Inactive)
REMARK    1  A    between atoms: C2_2  and  C3_3 
REMARK    2  A    between atoms: C4_6  and  C5_7 
REMARK       I    between atoms: C5_7  and  N2_9 
REMARK    3  A    between atoms: N2_9  and  C6_10 
REMARK    4  A    between atoms: C6_10  and  C7_11 
REMARK    5  A    between atoms: C6_10  and  C8_13 
REMARK       I    between atoms: C7_11  and  N3_14 
REMARK    6  A    between atoms: N3_14  and  C9_15 
REMARK    7  A    between atoms: C9_15  and  C10_16 
REMARK    8  A    between atoms: C9_15  and  C11_18 
REMARK       I    between atoms: C10_16  and  N4_21 
REMARK    9  A    between atoms: C11_18  and  C12_19 
REMARK   10  A    between atoms: C11_18  and  C13_20 
REMARK   11  A    between atoms: N4_21  and  C14_22 
REMARK   12  A    between atoms: C14_22  and  C15_23 
REMARK   13  A    between atoms: C14_22  and  C16_25 
REMARK       I    between atoms: C15_23  and  N6_40 
REMARK   14  A    between atoms: C16_25  and  C17_26 
REMARK   15  A    between atoms: C17_26  and  C18_27 
REMARK   16  A    between atoms: C17_26  and  C19_28 
REMARK   17  A    between atoms: C20_29  and  C21_30 
REMARK   18  A    between atoms: C20_29  and  C24_33 
REMARK   19  A    between atoms: C20_29  and  N6_40 
REMARK   20  A    between atoms: C21_30  and  C22_31 
REMARK   21  A    between atoms: C22_31  and  C23_32 
REMARK   22  A    between atoms: C23_32  and  O8_43 
REMARK   23  A    between atoms: C24_33  and  C25_34 
REMARK   24  A    between atoms: C28_38  and  O6_39 
REMARK   25  A    between atoms: C29_42  and  O8_43 
REMARK   26  A    between atoms: C29_42  and  C35_49 
ROOT
ATOM      1  C14 non d ame     -31.440   7.955  23.557  0.00  0.00     0.089 C 
ATOM      2  H20 non d ame     -30.562   7.736  24.165  0.00  0.00     0.087 H 
ENDROOT
BRANCH   1   3
ATOM      3  N4  non d ame     -32.323   6.800  23.630  0.00  0.00    -0.346 N 
ATOM      4  C10 non d ame     -32.328   5.921  24.854  0.00  0.00     0.241 C 
ATOM      5  O4  non d ame     -31.610   6.160  25.769  0.00  0.00    -0.271 OA
ATOM      6  H19 non d ame     -32.924   6.612  22.840  0.00  0.00     0.163 HD
BRANCH   4   7
ATOM      7  C9  non d ame     -33.251   4.732  24.914  0.00  0.00     0.092 C 
ATOM      8  H11 non d ame     -32.694   3.862  25.258  0.00  0.00     0.088 H 
BRANCH   7   9
ATOM      9  N3  non d ame     -34.310   4.985  25.896  0.00  0.00    -0.346 N 
ATOM     10  C7  non d ame     -34.227   4.401  27.212  0.00  0.00     0.240 C 
ATOM     11  O3  non d ame     -33.316   3.724  27.497  0.00  0.00    -0.271 OA
ATOM     12  H10 non d ame     -35.104   5.565  25.663  0.00  0.00     0.163 HD
BRANCH  10  13
ATOM     13  C6  non d ame     -35.359   4.670  28.251  0.00  0.00     0.086 C 
ATOM     14  H6  non d ame     -35.266   4.053  29.145  0.00  0.00     0.086 H 
BRANCH  13  15
ATOM     15  N2  non d ame     -35.276   6.053  28.691  0.00  0.00    -0.343 N 
ATOM     16  C5  non d ame     -34.965   6.348  30.091  0.00  0.00     0.273 C 
ATOM     17  O2  non d ame     -34.787   5.466  30.857  0.00  0.00    -0.266 OA
ATOM     18  H5  non d ame     -35.433   6.801  28.030  0.00  0.00     0.163 HD
BRANCH  16  19
ATOM     19  C4  non d ame     -34.874   7.806  30.569  0.00  0.00     0.154 A 
ATOM     20  C1  non d ame     -35.247   8.321  31.850  0.00  0.00    -0.017 A 
ATOM     21  C2  non d ame     -34.970   9.704  31.781  0.00  0.00     0.077 A 
ATOM     22  H1  non d ame     -35.656   7.774  32.700  0.00  0.00     0.091 H 
ATOM     23  O1  non d ame     -34.492   9.945  30.596  0.00  0.00    -0.218 OA
ATOM     24  N1  non d ame     -34.427   8.852  29.870  0.00  0.00    -0.123 NA
BRANCH  21  25
ATOM     25  C3  non d ame     -35.188  10.724  32.890  0.00  0.00    -0.029 C 
ATOM     26  H2  non d ame     -35.198  11.727  32.465  0.00  0.00     0.036 H 
ATOM     27  H3  non d ame     -36.142  10.530  33.380  0.00  0.00     0.036 H 
ATOM     28  H4  non d ame     -34.383  10.647  33.620  0.00  0.00     0.036 H 
ENDBRANCH  21  25
ENDBRANCH  16  19
ENDBRANCH  13  15
BRANCH  13  29
ATOM     29  C8  non d ame     -36.701   4.409  27.617  0.00  0.00    -0.049 C 
ATOM     30  H7  non d ame     -37.492   4.721  28.297  0.00  0.00     0.030 H 
ATOM     31  H8  non d ame     -36.779   4.973  26.687  0.00  0.00     0.030 H 
ATOM     32  H9  non d ame     -36.802   3.344  27.406  0.00  0.00     0.030 H 
ENDBRANCH  13  29
ENDBRANCH  10  13
ENDBRANCH   7   9
BRANCH   7  33
ATOM     33  C11 non d ame     -33.891   4.502  23.513  0.00  0.00    -0.033 C 
ATOM     34  H12 non d ame     -33.615   5.346  22.883  0.00  0.00     0.042 H 
BRANCH  33  35
ATOM     35  C12 non d ame     -33.331   3.210  22.839  0.00  0.00    -0.071 C 
ATOM     36  H13 non d ame     -32.328   3.405  22.459  0.00  0.00     0.028 H 
ATOM     37  H14 non d ame     -33.293   2.405  23.571  0.00  0.00     0.028 H 
ATOM     38  H15 non d ame     -33.981   2.921  22.013  0.00  0.00     0.028 H 
ENDBRANCH  33  35
BRANCH  33  39
ATOM     39  C13 non d ame     -35.450   4.460  23.610  0.00  0.00    -0.071 C 
ATOM     40  H16 non d ame     -35.744   3.899  24.497  0.00  0.00     0.028 H 
ATOM     41  H17 non d ame     -35.837   5.477  23.677  0.00  0.00     0.028 H 
ATOM     42  H18 non d ame     -35.857   3.976  22.722  0.00  0.00     0.028 H 
ENDBRANCH  33  39
ENDBRANCH   7  33
ENDBRANCH   4   7
ENDBRANCH   1   3
BRANCH   1  43
ATOM     43  C15 non d ame     -32.214   9.203  24.072  0.00  0.00     0.240 C 
ATOM     44  O5  non d ame     -33.197   9.563  23.509  0.00  0.00    -0.271 OA
ATOM     45  N6  non d ame     -31.736   9.943  25.274  0.00  0.00    -0.355 N 
ATOM     46  H46 non d ame     -30.904   9.644  25.764  0.00  0.00     0.162 HD
BRANCH  45  47
ATOM     47  C20 non d ame     -32.483  11.127  25.751  0.00  0.00     0.013 C 
ATOM     48  H30 non d ame     -33.078  11.504  24.920  0.00  0.00     0.072 H 
BRANCH  47  49
ATOM     49  C21 non d ame     -31.505  12.184  26.211  0.00  0.00    -0.038 C 
ATOM     50  H31 non d ame     -32.037  12.772  26.960  0.00  0.00     0.036 H 
ATOM     51  H32 non d ame     -30.597  11.646  26.484  0.00  0.00     0.036 H 
BRANCH  49  52
ATOM     52  C22 non d ame     -31.110  13.165  25.085  0.00  0.00     0.018 C 
ATOM     53  H33 non d ame     -30.055  13.385  25.242  0.00  0.00     0.048 H 
ATOM     54  H34 non d ame     -31.437  12.695  24.157  0.00  0.00     0.048 H 
BRANCH  52  55
ATOM     55  C23 non d ame     -31.848  14.530  25.157  0.00  0.00     0.259 C 
ATOM     56  O7  non d ame     -32.763  14.759  24.434  0.00  0.00    -0.265 OA
BRANCH  55  57
ATOM     57  O8  non d ame     -31.408  15.512  26.087  0.00  0.00    -0.317 OA
BRANCH  57  58
ATOM     58  C29 non d ame     -32.374  15.839  27.090  0.00  0.00     0.052 C 
ATOM     59  H47 non d ame     -33.276  15.289  26.821  0.00  0.00     0.082 H 
ATOM     60  H48 non d ame     -31.885  15.651  28.045  0.00  0.00     0.082 H 
BRANCH  58  61
ATOM     61  C35 non d ame     -32.676  17.358  26.986  0.00  0.00    -0.034 A 
ATOM     62  C30 non d ame     -33.050  17.912  25.765  0.00  0.00    -0.075 A 
ATOM     63  C31 non d ame     -33.320  19.276  25.671  0.00  0.00    -0.082 A 
ATOM     64  H49 non d ame     -33.130  17.278  24.882  0.00  0.00     0.084 H 
ATOM     65  C32 non d ame     -33.214  20.088  26.804  0.00  0.00    -0.083 A 
ATOM     66  H50 non d ame     -33.615  19.707  24.713  0.00  0.00     0.083 H 
ATOM     67  C33 non d ame     -32.837  19.532  28.018  0.00  0.00    -0.082 A 
ATOM     68  H51 non d ame     -33.425  21.156  26.739  0.00  0.00     0.083 H 
ATOM     69  C34 non d ame     -32.567  18.169  28.117  0.00  0.00    -0.075 A 
ATOM     70  H52 non d ame     -32.753  20.169  28.900  0.00  0.00     0.083 H 
ATOM     71  H53 non d ame     -32.273  17.739  29.075  0.00  0.00     0.084 H 
ENDBRANCH  58  61
ENDBRANCH  57  58
ENDBRANCH  55  57
ENDBRANCH  52  55
ENDBRANCH  49  52
ENDBRANCH  47  49
BRANCH  47  72
ATOM     72  C24 non d ame     -33.390  10.730  26.915  0.00  0.00    -0.039 C 
ATOM     73  H35 non d ame     -33.027   9.756  27.245  0.00  0.00     0.036 H 
ATOM     74  H36 non d ame     -33.372  11.578  27.599  0.00  0.00     0.036 H 
BRANCH  72  75
ATOM     75  C25 non d ame     -34.908  10.534  26.443  0.00  0.00    -0.001 C 
ATOM     76  C26 non d ame     -35.913  11.394  27.420  0.00  0.00    -0.035 C 
ATOM     77  C27 non d ame     -36.897  10.575  27.863  0.00  0.00     0.085 C 
ATOM     78  H38 non d ame     -35.391  11.682  28.333  0.00  0.00     0.036 H 
ATOM     79  H39 non d ame     -36.449  12.145  26.839  0.00  0.00     0.036 H 
ATOM     80  N5  non d ame     -36.472   9.162  27.543  0.00  0.00    -0.049 N 
ATOM     81  H40 non d ame     -36.918  10.704  28.945  0.00  0.00     0.075 H 
ATOM     82  H41 non d ame     -37.774  10.826  27.268  0.00  0.00     0.075 H 
ATOM     83  C28 non d ame     -35.255   9.292  26.490  0.00  0.00     0.193 C 
ATOM     84  H42 non d ame     -36.115   8.769  28.401  0.00  0.00     0.280 HD
ATOM     85  H43 non d ame     -37.257   8.728  27.077  0.00  0.00     0.280 HD
ATOM     86  H44 non d ame     -35.417   9.091  25.431  0.00  0.00     0.129 H 
ATOM     87  H37 non d ame     -35.027  10.669  25.368  0.00  0.00     0.046 H 
BRANCH  83  88
ATOM     88  O6  non d ame     -34.174   8.444  26.881  0.00  0.00    -0.369 OA
ATOM     89  H45 non d ame     -33.560   8.350  26.148  0.00  0.00     0.212 HD
ENDBRANCH  83  88
ENDBRANCH  72  75
ENDBRANCH  47  72
ENDBRANCH  45  47
ENDBRANCH   1  43
BRANCH   1  90
ATOM     90  C16 non d ame     -31.024   8.173  22.111  0.00  0.00    -0.035 C 
ATOM     91  H21 non d ame     -30.969   7.177  21.674  0.00  0.00     0.037 H 
ATOM     92  H22 non d ame     -31.729   8.905  21.716  0.00  0.00     0.037 H 
BRANCH  90  93
ATOM     93  C17 non d ame     -29.602   8.800  21.958  0.00  0.00    -0.059 C 
ATOM     94  H23 non d ame     -29.333   8.753  20.903  0.00  0.00     0.038 H 
BRANCH  93  95
ATOM     95  C18 non d ame     -29.570  10.301  22.391  0.00  0.00    -0.073 C 
ATOM     96  H24 non d ame     -30.516  10.776  22.130  0.00  0.00     0.028 H 
ATOM     97  H25 non d ame     -29.418  10.365  23.468  0.00  0.00     0.028 H 
ATOM     98  H26 non d ame     -28.754  10.810  21.878  0.00  0.00     0.028 H 
ENDBRANCH  93  95
BRANCH  93  99
ATOM     99  C19 non d ame     -28.559   7.988  22.731  0.00  0.00    -0.073 C 
ATOM    100  H27 non d ame     -28.260   7.123  22.137  0.00  0.00     0.028 H 
ATOM    101  H28 non d ame     -27.686   8.611  22.929  0.00  0.00     0.028 H 
ATOM    102  H29 non d ame     -28.987   7.652  23.674  0.00  0.00     0.028 H 
ENDBRANCH  93  99
ENDBRANCH  90  93
ENDBRANCH   1  90
TORSDOF 26
ENDMDL
MODEL 12
REMARK VINA RESULT:      -6.6      3.386      9.744
REMARK  26 active torsions:
REMARK  status: ('A' for Active; 'I' for Inactive)
REMARK    1  A    between atoms: C2_2  and  C3_3 
REMARK    2  A    between atoms: C4_6  and  C5_7 
REMARK       I    between atoms: C5_7  and  N2_9 
REMARK    3  A    between atoms: N2_9  and  C6_10 
REMARK    4  A    between atoms: C6_10  and  C7_11 
REMARK    5  A    between atoms: C6_10  and  C8_13 
REMARK       I    between atoms: C7_11  and  N3_14 
REMARK    6  A    between atoms: N3_14  and  C9_15 
REMARK    7  A    between atoms: C9_15  and  C10_16 
REMARK    8  A    between atoms: C9_15  and  C11_18 
REMARK       I    between atoms: C10_16  and  N4_21 
REMARK    9  A    between atoms: C11_18  and  C12_19 
REMARK   10  A    between atoms: C11_18  and  C13_20 
REMARK   11  A    between atoms: N4_21  and  C14_22 
REMARK   12  A    between atoms: C14_22  and  C15_23 
REMARK   13  A    between atoms: C14_22  and  C16_25 
REMARK       I    between atoms: C15_23  and  N6_40 
REMARK   14  A    between atoms: C16_25  and  C17_26 
REMARK   15  A    between atoms: C17_26  and  C18_27 
REMARK   16  A    between atoms: C17_26  and  C19_28 
REMARK   17  A    between atoms: C20_29  and  C21_30 
REMARK   18  A    between atoms: C20_29  and  C24_33 
REMARK   19  A    between atoms: C20_29  and  N6_40 
REMARK   20  A    between atoms: C21_30  and  C22_31 
REMARK   21  A    between atoms: C22_31  and  C23_32 
REMARK   22  A    between atoms: C23_32  and  O8_43 
REMARK   23  A    between atoms: C24_33  and  C25_34 
REMARK   24  A    between atoms: C28_38  and  O6_39 
REMARK   25  A    between atoms: C29_42  and  O8_43 
REMARK   26  A    between atoms: C29_42  and  C35_49 
ROOT
ATOM      1  C14 non d ame     -32.655  12.505  28.405  0.00  0.00     0.089 C 
ATOM      2  H20 non d ame     -32.997  12.689  29.423  0.00  0.00     0.087 H 
ENDROOT
BRANCH   1   3
ATOM      3  N4  non d ame     -33.159  11.200  28.002  0.00  0.00    -0.346 N 
ATOM      4  C10 non d ame     -33.308  10.095  29.016  0.00  0.00     0.241 C 
ATOM      5  O4  non d ame     -33.015  10.278  30.152  0.00  0.00    -0.271 OA
ATOM      6  H19 non d ame     -33.400  11.064  27.031  0.00  0.00     0.163 HD
BRANCH   4   7
ATOM      7  C9  non d ame     -33.836   8.752  28.583  0.00  0.00     0.092 C 
ATOM      8  H11 non d ame     -33.437   7.981  29.242  0.00  0.00     0.088 H 
BRANCH   7   9
ATOM      9  N3  non d ame     -35.295   8.731  28.724  0.00  0.00    -0.346 N 
ATOM     10  C7  non d ame     -35.894   8.230  29.936  0.00  0.00     0.240 C 
ATOM     11  O3  non d ame     -35.218   7.839  30.807  0.00  0.00    -0.271 OA
ATOM     12  H10 non d ame     -35.891   9.064  27.980  0.00  0.00     0.163 HD
BRANCH  10  13
ATOM     13  C6  non d ame     -37.448   8.207  30.079  0.00  0.00     0.086 C 
ATOM     14  H6  non d ame     -37.952   8.765  29.291  0.00  0.00     0.086 H 
BRANCH  13  15
ATOM     15  N2  non d ame     -37.911   6.833  29.976  0.00  0.00    -0.343 N 
ATOM     16  C5  non d ame     -37.992   6.195  28.661  0.00  0.00     0.273 C 
ATOM     17  O2  non d ame     -37.685   6.797  27.690  0.00  0.00    -0.266 OA
ATOM     18  H5  non d ame     -38.174   6.327  30.810  0.00  0.00     0.163 HD
BRANCH  16  19
ATOM     19  C4  non d ame     -38.479   4.743  28.538  0.00  0.00     0.154 A 
ATOM     20  C1  non d ame     -37.822   3.664  27.865  0.00  0.00    -0.017 A 
ATOM     21  C2  non d ame     -38.675   2.552  28.044  0.00  0.00     0.077 A 
ATOM     22  H1  non d ame     -36.873   3.686  27.330  0.00  0.00     0.091 H 
ATOM     23  O1  non d ame     -39.697   2.954  28.740  0.00  0.00    -0.218 OA
ATOM     24  N1  non d ame     -39.605   4.230  29.040  0.00  0.00    -0.123 NA
BRANCH  21  25
ATOM     25  C3  non d ame     -38.438   1.142  27.520  0.00  0.00    -0.029 C 
ATOM     26  H2  non d ame     -37.848   1.188  26.605  0.00  0.00     0.036 H 
ATOM     27  H3  non d ame     -37.900   0.561  28.269  0.00  0.00     0.036 H 
ATOM     28  H4  non d ame     -39.396   0.666  27.311  0.00  0.00     0.036 H 
ENDBRANCH  21  25
ENDBRANCH  16  19
ENDBRANCH  13  15
BRANCH  13  29
ATOM     29  C8  non d ame     -37.841   8.786  31.414  0.00  0.00    -0.049 C 
ATOM     30  H7  non d ame     -37.179   8.399  32.188  0.00  0.00     0.030 H 
ATOM     31  H8  non d ame     -37.760   9.872  31.377  0.00  0.00     0.030 H 
ATOM     32  H9  non d ame     -38.870   8.506  31.643  0.00  0.00     0.030 H 
ENDBRANCH  13  29
ENDBRANCH  10  13
ENDBRANCH   7   9
BRANCH   7  33
ATOM     33  C11 non d ame     -33.458   8.504  27.093  0.00  0.00    -0.033 C 
ATOM     34  H12 non d ame     -32.917   9.381  26.740  0.00  0.00     0.042 H 
BRANCH  33  35
ATOM     35  C12 non d ame     -32.507   7.275  26.946  0.00  0.00    -0.071 C 
ATOM     36  H13 non d ame     -31.471   7.617  26.938  0.00  0.00     0.028 H 
ATOM     37  H14 non d ame     -32.659   6.595  27.784  0.00  0.00     0.028 H 
ATOM     38  H15 non d ame     -32.724   6.757  26.012  0.00  0.00     0.028 H 
ENDBRANCH  33  35
BRANCH  33  39
ATOM     39  C13 non d ame     -34.737   8.339  26.212  0.00  0.00    -0.071 C 
ATOM     40  H16 non d ame     -35.600   8.737  26.746  0.00  0.00     0.028 H 
ATOM     41  H17 non d ame     -34.606   8.881  25.275  0.00  0.00     0.028 H 
ATOM     42  H18 non d ame     -34.898   7.282  25.999  0.00  0.00     0.028 H 
ENDBRANCH  33  39
ENDBRANCH   7  33
ENDBRANCH   4   7
ENDBRANCH   1   3
BRANCH   1  43
ATOM     43  C15 non d ame     -33.189  13.572  27.405  0.00  0.00     0.240 C 
ATOM     44  O5  non d ame     -34.358  13.667  27.211  0.00  0.00    -0.271 OA
ATOM     45  N6  non d ame     -32.244  14.482  26.698  0.00  0.00    -0.355 N 
ATOM     46  H46 non d ame     -31.249  14.413  26.858  0.00  0.00     0.162 HD
BRANCH  45  47
ATOM     47  C20 non d ame     -32.768  15.491  25.752  0.00  0.00     0.013 C 
ATOM     48  H30 non d ame     -33.856  15.447  25.785  0.00  0.00     0.072 H 
BRANCH  47  49
ATOM     49  C21 non d ame     -32.278  15.171  24.358  0.00  0.00    -0.038 C 
ATOM     50  H31 non d ame     -32.885  14.331  24.019  0.00  0.00     0.036 H 
ATOM     51  H32 non d ame     -32.302  16.116  23.814  0.00  0.00     0.036 H 
BRANCH  49  52
ATOM     52  C22 non d ame     -30.811  14.690  24.333  0.00  0.00     0.018 C 
ATOM     53  H33 non d ame     -30.215  15.572  24.103  0.00  0.00     0.048 H 
ATOM     54  H34 non d ame     -30.659  14.159  25.273  0.00  0.00     0.048 H 
BRANCH  52  55
ATOM     55  C23 non d ame     -30.508  13.663  23.207  0.00  0.00     0.259 C 
ATOM     56  O7  non d ame     -30.210  14.032  22.118  0.00  0.00    -0.265 OA
BRANCH  55  57
ATOM     57  O8  non d ame     -30.604  12.271  23.489  0.00  0.00    -0.317 OA
BRANCH  57  58
ATOM     58  C29 non d ame     -29.942  11.436  22.535  0.00  0.00     0.052 C 
ATOM     59  H47 non d ame     -30.298  11.764  21.559  0.00  0.00     0.082 H 
ATOM     60  H48 non d ame     -28.881  11.495  22.777  0.00  0.00     0.082 H 
BRANCH  58  61
ATOM     61  C35 non d ame     -30.416   9.976  22.767  0.00  0.00    -0.034 A 
ATOM     62  C30 non d ame     -31.683   9.731  23.287  0.00  0.00    -0.075 A 
ATOM     63  C31 non d ame     -32.110   8.420  23.496  0.00  0.00    -0.082 A 
ATOM     64  H49 non d ame     -32.341  10.564  23.533  0.00  0.00     0.084 H 
ATOM     65  C32 non d ame     -31.263   7.352  23.183  0.00  0.00    -0.083 A 
ATOM     66  H50 non d ame     -33.104   8.230  23.902  0.00  0.00     0.083 H 
ATOM     67  C33 non d ame     -29.999   7.603  22.667  0.00  0.00    -0.082 A 
ATOM     68  H51 non d ame     -31.590   6.324  23.342  0.00  0.00     0.083 H 
ATOM     69  C34 non d ame     -29.570   8.911  22.456  0.00  0.00    -0.075 A 
ATOM     70  H52 non d ame     -29.340   6.768  22.426  0.00  0.00     0.083 H 
ATOM     71  H53 non d ame     -28.576   9.100  22.049  0.00  0.00     0.084 H 
ENDBRANCH  58  61
ENDBRANCH  57  58
ENDBRANCH  55  57
ENDBRANCH  52  55
ENDBRANCH  49  52
ENDBRANCH  47  49
BRANCH  47  72
ATOM     72  C24 non d ame     -32.281  16.880  26.158  0.00  0.00    -0.039 C 
ATOM     73  H35 non d ame     -31.706  16.730  27.073  0.00  0.00     0.036 H 
ATOM     74  H36 non d ame     -31.796  17.289  25.271  0.00  0.00     0.036 H 
BRANCH  72  75
ATOM     75  C25 non d ame     -33.500  17.853  26.521  0.00  0.00    -0.001 C 
ATOM     76  C26 non d ame     -33.318  19.291  25.745  0.00  0.00    -0.035 C 
ATOM     77  C27 non d ame     -33.435  20.294  26.649  0.00  0.00     0.085 C 
ATOM     78  H38 non d ame     -32.296  19.394  25.382  0.00  0.00     0.036 H 
ATOM     79  H39 non d ame     -34.157  19.460  25.068  0.00  0.00     0.036 H 
ATOM     80  N5  non d ame     -33.353  19.663  28.019  0.00  0.00    -0.049 N 
ATOM     81  H40 non d ame     -32.562  20.927  26.496  0.00  0.00     0.075 H 
ATOM     82  H41 non d ame     -34.435  20.700  26.505  0.00  0.00     0.075 H 
ATOM     83  C28 non d ame     -33.556  18.078  27.791  0.00  0.00     0.193 C 
ATOM     84  H42 non d ame     -32.413  19.822  28.351  0.00  0.00     0.280 HD
ATOM     85  H43 non d ame     -34.141  20.017  28.543  0.00  0.00     0.280 HD
ATOM     86  H44 non d ame     -34.507  17.602  28.034  0.00  0.00     0.129 H 
ATOM     87  H37 non d ame     -34.466  17.357  26.427  0.00  0.00     0.046 H 
BRANCH  83  88
ATOM     88  O6  non d ame     -32.565  17.345  28.513  0.00  0.00    -0.369 OA
ATOM     89  H45 non d ame     -31.828  17.924  28.722  0.00  0.00     0.212 HD
ENDBRANCH  83  88
ENDBRANCH  72  75
ENDBRANCH  47  72
ENDBRANCH  45  47
ENDBRANCH   1  43
BRANCH   1  90
ATOM     90  C16 non d ame     -31.136  12.485  28.367  0.00  0.00    -0.035 C 
ATOM     91  H21 non d ame     -30.862  11.431  28.348  0.00  0.00     0.037 H 
ATOM     92  H22 non d ame     -30.859  13.136  27.537  0.00  0.00     0.037 H 
BRANCH  90  93
ATOM     93  C17 non d ame     -30.470  13.091  29.643  0.00  0.00    -0.059 C 
ATOM     94  H23 non d ame     -29.396  13.145  29.462  0.00  0.00     0.038 H 
BRANCH  93  95
ATOM     95  C18 non d ame     -30.976  14.538  29.942  0.00  0.00    -0.073 C 
ATOM     96  H24 non d ame     -31.594  14.530  30.840  0.00  0.00     0.028 H 
ATOM     97  H25 non d ame     -30.121  15.197  30.097  0.00  0.00     0.028 H 
ATOM     98  H26 non d ame     -31.564  14.898  29.099  0.00  0.00     0.028 H 
ENDBRANCH  93  95
BRANCH  93  99
ATOM     99  C19 non d ame     -30.681  12.179  30.855  0.00  0.00    -0.073 C 
ATOM    100  H27 non d ame     -31.740  11.931  30.943  0.00  0.00     0.028 H 
ATOM    101  H28 non d ame     -30.104  11.263  30.728  0.00  0.00     0.028 H 
ATOM    102  H29 non d ame     -30.352  12.693  31.758  0.00  0.00     0.028 H 
ENDBRANCH  93  99
ENDBRANCH  90  93
ENDBRANCH   1  90
TORSDOF 26
ENDMDL
MODEL 13
REMARK VINA RESULT:      -6.5      3.815      9.060
REMARK  26 active torsions:
REMARK  status: ('A' for Active; 'I' for Inactive)
REMARK    1  A    between atoms: C2_2  and  C3_3 
REMARK    2  A    between atoms: C4_6  and  C5_7 
REMARK       I    between atoms: C5_7  and  N2_9 
REMARK    3  A    between atoms: N2_9  and  C6_10 
REMARK    4  A    between atoms: C6_10  and  C7_11 
REMARK    5  A    between atoms: C6_10  and  C8_13 
REMARK       I    between atoms: C7_11  and  N3_14 
REMARK    6  A    between atoms: N3_14  and  C9_15 
REMARK    7  A    between atoms: C9_15  and  C10_16 
REMARK    8  A    between atoms: C9_15  and  C11_18 
REMARK       I    between atoms: C10_16  and  N4_21 
REMARK    9  A    between atoms: C11_18  and  C12_19 
REMARK   10  A    between atoms: C11_18  and  C13_20 
REMARK   11  A    between atoms: N4_21  and  C14_22 
REMARK   12  A    between atoms: C14_22  and  C15_23 
REMARK   13  A    between atoms: C14_22  and  C16_25 
REMARK       I    between atoms: C15_23  and  N6_40 
REMARK   14  A    between atoms: C16_25  and  C17_26 
REMARK   15  A    between atoms: C17_26  and  C18_27 
REMARK   16  A    between atoms: C17_26  and  C19_28 
REMARK   17  A    between atoms: C20_29  and  C21_30 
REMARK   18  A    between atoms: C20_29  and  C24_33 
REMARK   19  A    between atoms: C20_29  and  N6_40 
REMARK   20  A    between atoms: C21_30  and  C22_31 
REMARK   21  A    between atoms: C22_31  and  C23_32 
REMARK   22  A    between atoms: C23_32  and  O8_43 
REMARK   23  A    between atoms: C24_33  and  C25_34 
REMARK   24  A    between atoms: C28_38  and  O6_39 
REMARK   25  A    between atoms: C29_42  and  O8_43 
REMARK   26  A    between atoms: C29_42  and  C35_49 
ROOT
ATOM      1  C14 non d ame     -36.508   8.089  28.569  0.00  0.00     0.089 C 
ATOM      2  H20 non d ame     -37.368   7.922  27.919  0.00  0.00     0.087 H 
ENDROOT
BRANCH   1   3
ATOM      3  N4  non d ame     -35.441   7.209  28.118  0.00  0.00    -0.346 N 
ATOM      4  C10 non d ame     -35.762   5.844  27.564  0.00  0.00     0.241 C 
ATOM      5  O4  non d ame     -36.887   5.474  27.491  0.00  0.00    -0.271 OA
ATOM      6  H19 non d ame     -34.490   7.540  28.191  0.00  0.00     0.163 HD
BRANCH   4   7
ATOM      7  C9  non d ame     -34.644   4.947  27.098  0.00  0.00     0.092 C 
ATOM      8  H11 non d ame     -34.968   3.909  27.162  0.00  0.00     0.088 H 
BRANCH   7   9
ATOM      9  N3  non d ame     -34.350   5.224  25.689  0.00  0.00    -0.346 N 
ATOM     10  C7  non d ame     -34.677   4.247  24.680  0.00  0.00     0.240 C 
ATOM     11  O3  non d ame     -35.176   3.233  24.984  0.00  0.00    -0.271 OA
ATOM     12  H10 non d ame     -33.919   6.094  25.412  0.00  0.00     0.163 HD
BRANCH  10  13
ATOM     13  C6  non d ame     -34.359   4.545  23.182  0.00  0.00     0.086 C 
ATOM     14  H6  non d ame     -35.111   5.176  22.709  0.00  0.00     0.086 H 
BRANCH  13  15
ATOM     15  N2  non d ame     -33.100   5.268  23.101  0.00  0.00    -0.343 N 
ATOM     16  C5  non d ame     -33.070   6.598  22.491  0.00  0.00     0.273 C 
ATOM     17  O2  non d ame     -34.062   7.078  22.064  0.00  0.00    -0.266 OA
ATOM     18  H5  non d ame     -32.256   4.849  23.465  0.00  0.00     0.163 HD
BRANCH  16  19
ATOM     19  C4  non d ame     -31.746   7.374  22.400  0.00  0.00     0.154 A 
ATOM     20  C1  non d ame     -30.445   6.909  22.770  0.00  0.00    -0.017 A 
ATOM     21  C2  non d ame     -29.580   7.991  22.495  0.00  0.00     0.077 A 
ATOM     22  H1  non d ame     -30.170   5.935  23.176  0.00  0.00     0.091 H 
ATOM     23  O1  non d ame     -30.309   8.959  22.021  0.00  0.00    -0.218 OA
ATOM     24  N1  non d ame     -31.576   8.622  21.956  0.00  0.00    -0.123 NA
BRANCH  21  25
ATOM     25  C3  non d ame     -28.073   8.020  22.712  0.00  0.00    -0.029 C 
ATOM     26  H2  non d ame     -27.624   8.757  22.047  0.00  0.00     0.036 H 
ATOM     27  H3  non d ame     -27.859   8.288  23.746  0.00  0.00     0.036 H 
ATOM     28  H4  non d ame     -27.656   7.036  22.498  0.00  0.00     0.036 H 
ENDBRANCH  21  25
ENDBRANCH  16  19
ENDBRANCH  13  15
BRANCH  13  29
ATOM     29  C8  non d ame     -34.261   3.249  22.418  0.00  0.00    -0.049 C 
ATOM     30  H7  non d ame     -35.207   2.714  22.486  0.00  0.00     0.030 H 
ATOM     31  H8  non d ame     -34.038   3.459  21.372  0.00  0.00     0.030 H 
ATOM     32  H9  non d ame     -33.465   2.636  22.844  0.00  0.00     0.030 H 
ENDBRANCH  13  29
ENDBRANCH  10  13
ENDBRANCH   7   9
BRANCH   7  33
ATOM     33  C11 non d ame     -33.371   5.219  27.953  0.00  0.00    -0.033 C 
ATOM     34  H12 non d ame     -33.623   5.990  28.682  0.00  0.00     0.042 H 
BRANCH  33  35
ATOM     35  C12 non d ame     -32.939   3.947  28.747  0.00  0.00    -0.071 C 
ATOM     36  H13 non d ame     -33.120   3.060  28.139  0.00  0.00     0.028 H 
ATOM     37  H14 non d ame     -31.878   4.012  28.988  0.00  0.00     0.028 H 
ATOM     38  H15 non d ame     -33.518   3.878  29.667  0.00  0.00     0.028 H 
ENDBRANCH  33  35
BRANCH  33  39
ATOM     39  C13 non d ame     -32.205   5.757  27.064  0.00  0.00    -0.071 C 
ATOM     40  H16 non d ame     -31.421   5.002  26.998  0.00  0.00     0.028 H 
ATOM     41  H17 non d ame     -32.581   5.979  26.065  0.00  0.00     0.028 H 
ATOM     42  H18 non d ame     -31.798   6.665  27.508  0.00  0.00     0.028 H 
ENDBRANCH  33  39
ENDBRANCH   7  33
ENDBRANCH   4   7
ENDBRANCH   1   3
BRANCH   1  43
ATOM     43  C15 non d ame     -36.000   9.558  28.502  0.00  0.00     0.240 C 
ATOM     44  O5  non d ame     -36.718  10.448  28.826  0.00  0.00    -0.271 OA
ATOM     45  N6  non d ame     -34.613   9.856  28.044  0.00  0.00    -0.355 N 
ATOM     46  H46 non d ame     -33.991   9.108  27.771  0.00  0.00     0.162 HD
BRANCH  45  47
ATOM     47  C20 non d ame     -34.145  11.257  27.987  0.00  0.00     0.013 C 
ATOM     48  H30 non d ame     -34.876  11.875  28.508  0.00  0.00     0.072 H 
BRANCH  47  49
ATOM     49  C21 non d ame     -34.036  11.690  26.543  0.00  0.00    -0.038 C 
ATOM     50  H31 non d ame     -35.000  12.136  26.296  0.00  0.00     0.036 H 
ATOM     51  H32 non d ame     -33.127  12.290  26.483  0.00  0.00     0.036 H 
BRANCH  49  52
ATOM     52  C22 non d ame     -33.840  10.503  25.574  0.00  0.00     0.018 C 
ATOM     53  H33 non d ame     -34.378   9.668  26.020  0.00  0.00     0.048 H 
ATOM     54  H34 non d ame     -34.128  10.876  24.591  0.00  0.00     0.048 H 
BRANCH  52  55
ATOM     55  C23 non d ame     -32.363  10.040  25.442  0.00  0.00     0.259 C 
ATOM     56  O7  non d ame     -32.099   8.884  25.353  0.00  0.00    -0.265 OA
BRANCH  55  57
ATOM     57  O8  non d ame     -31.325  11.013  25.442  0.00  0.00    -0.317 OA
BRANCH  57  58
ATOM     58  C29 non d ame     -31.054  11.577  24.155  0.00  0.00     0.052 C 
ATOM     59  H47 non d ame     -30.044  11.258  23.901  0.00  0.00     0.082 H 
ATOM     60  H48 non d ame     -31.893  11.287  23.524  0.00  0.00     0.082 H 
BRANCH  58  61
ATOM     61  C35 non d ame     -31.060  13.122  24.299  0.00  0.00    -0.034 A 
ATOM     62  C30 non d ame     -30.682  13.923  23.226  0.00  0.00    -0.075 A 
ATOM     63  C31 non d ame     -30.687  15.311  23.355  0.00  0.00    -0.082 A 
ATOM     64  H49 non d ame     -30.380  13.464  22.284  0.00  0.00     0.084 H 
ATOM     65  C32 non d ame     -31.071  15.898  24.563  0.00  0.00    -0.083 A 
ATOM     66  H50 non d ame     -30.391  15.936  22.511  0.00  0.00     0.083 H 
ATOM     67  C33 non d ame     -31.444  15.095  25.632  0.00  0.00    -0.082 A 
ATOM     68  H51 non d ame     -31.079  16.983  24.672  0.00  0.00     0.083 H 
ATOM     69  C34 non d ame     -31.442  13.708  25.507  0.00  0.00    -0.075 A 
ATOM     70  H52 non d ame     -31.741  15.557  26.575  0.00  0.00     0.083 H 
ATOM     71  H53 non d ame     -31.738  13.084  26.351  0.00  0.00     0.084 H 
ENDBRANCH  58  61
ENDBRANCH  57  58
ENDBRANCH  55  57
ENDBRANCH  52  55
ENDBRANCH  49  52
ENDBRANCH  47  49
BRANCH  47  72
ATOM     72  C24 non d ame     -32.778  11.372  28.660  0.00  0.00    -0.039 C 
ATOM     73  H35 non d ame     -32.654  10.447  29.223  0.00  0.00     0.036 H 
ATOM     74  H36 non d ame     -32.081  11.620  27.859  0.00  0.00     0.036 H 
BRANCH  72  75
ATOM     75  C25 non d ame     -32.735  12.578  29.714  0.00  0.00    -0.001 C 
ATOM     76  C26 non d ame     -31.665  13.721  29.214  0.00  0.00    -0.035 C 
ATOM     77  C27 non d ame     -30.816  14.000  30.232  0.00  0.00     0.085 C 
ATOM     78  H38 non d ame     -31.012  13.311  28.443  0.00  0.00     0.036 H 
ATOM     79  H39 non d ame     -32.179  14.667  29.045  0.00  0.00     0.036 H 
ATOM     80  N5  non d ame     -31.003  12.918  31.270  0.00  0.00    -0.049 N 
ATOM     81  H40 non d ame     -29.815  13.917  29.808  0.00  0.00     0.075 H 
ATOM     82  H41 non d ame     -31.156  14.949  30.643  0.00  0.00     0.075 H 
ATOM     83  C28 non d ame     -32.376  12.163  30.882  0.00  0.00     0.193 C 
ATOM     84  H42 non d ame     -30.236  12.273  31.151  0.00  0.00     0.280 HD
ATOM     85  H43 non d ame     -31.133  13.391  32.153  0.00  0.00     0.280 HD
ATOM     86  H44 non d ame     -33.289  12.351  31.449  0.00  0.00     0.129 H 
ATOM     87  H37 non d ame     -33.732  12.919  29.990  0.00  0.00     0.046 H 
BRANCH  83  88
ATOM     88  O6  non d ame     -32.187  10.748  30.918  0.00  0.00    -0.369 OA
ATOM     89  H45 non d ame     -32.100  10.459  31.831  0.00  0.00     0.212 HD
ENDBRANCH  83  88
ENDBRANCH  72  75
ENDBRANCH  47  72
ENDBRANCH  45  47
ENDBRANCH   1  43
BRANCH   1  90
ATOM     90  C16 non d ame     -36.871   7.739  30.003  0.00  0.00    -0.035 C 
ATOM     91  H21 non d ame     -37.255   8.660  30.436  0.00  0.00     0.037 H 
ATOM     92  H22 non d ame     -37.512   6.860  29.931  0.00  0.00     0.037 H 
BRANCH  90  93
ATOM     93  C17 non d ame     -35.643   7.321  30.874  0.00  0.00    -0.059 C 
ATOM     94  H23 non d ame     -34.765   7.323  30.229  0.00  0.00     0.038 H 
BRANCH  93  95
ATOM     95  C18 non d ame     -35.379   8.325  32.041  0.00  0.00    -0.073 C 
ATOM     96  H24 non d ame     -34.407   8.797  31.902  0.00  0.00     0.028 H 
ATOM     97  H25 non d ame     -36.156   9.090  32.045  0.00  0.00     0.028 H 
ATOM     98  H26 non d ame     -35.392   7.790  32.991  0.00  0.00     0.028 H 
ENDBRANCH  93  95
BRANCH  93  99
ATOM     99  C19 non d ame     -35.812   5.896  31.409  0.00  0.00    -0.073 C 
ATOM    100  H27 non d ame     -35.313   5.195  30.739  0.00  0.00     0.028 H 
ATOM    101  H28 non d ame     -35.369   5.825  32.403  0.00  0.00     0.028 H 
ATOM    102  H29 non d ame     -36.873   5.653  31.466  0.00  0.00     0.028 H 
ENDBRANCH  93  99
ENDBRANCH  90  93
ENDBRANCH   1  90
TORSDOF 26
ENDMDL
MODEL 14
REMARK VINA RESULT:      -6.5      3.616      9.936
REMARK  26 active torsions:
REMARK  status: ('A' for Active; 'I' for Inactive)
REMARK    1  A    between atoms: C2_2  and  C3_3 
REMARK    2  A    between atoms: C4_6  and  C5_7 
REMARK       I    between atoms: C5_7  and  N2_9 
REMARK    3  A    between atoms: N2_9  and  C6_10 
REMARK    4  A    between atoms: C6_10  and  C7_11 
REMARK    5  A    between atoms: C6_10  and  C8_13 
REMARK       I    between atoms: C7_11  and  N3_14 
REMARK    6  A    between atoms: N3_14  and  C9_15 
REMARK    7  A    between atoms: C9_15  and  C10_16 
REMARK    8  A    between atoms: C9_15  and  C11_18 
REMARK       I    between atoms: C10_16  and  N4_21 
REMARK    9  A    between atoms: C11_18  and  C12_19 
REMARK   10  A    between atoms: C11_18  and  C13_20 
REMARK   11  A    between atoms: N4_21  and  C14_22 
REMARK   12  A    between atoms: C14_22  and  C15_23 
REMARK   13  A    between atoms: C14_22  and  C16_25 
REMARK       I    between atoms: C15_23  and  N6_40 
REMARK   14  A    between atoms: C16_25  and  C17_26 
REMARK   15  A    between atoms: C17_26  and  C18_27 
REMARK   16  A    between atoms: C17_26  and  C19_28 
REMARK   17  A    between atoms: C20_29  and  C21_30 
REMARK   18  A    between atoms: C20_29  and  C24_33 
REMARK   19  A    between atoms: C20_29  and  N6_40 
REMARK   20  A    between atoms: C21_30  and  C22_31 
REMARK   21  A    between atoms: C22_31  and  C23_32 
REMARK   22  A    between atoms: C23_32  and  O8_43 
REMARK   23  A    between atoms: C24_33  and  C25_34 
REMARK   24  A    between atoms: C28_38  and  O6_39 
REMARK   25  A    between atoms: C29_42  and  O8_43 
REMARK   26  A    between atoms: C29_42  and  C35_49 
ROOT
ATOM      1  C14 non d ame     -34.768   9.837  29.360  0.00  0.00     0.089 C 
ATOM      2  H20 non d ame     -35.605  10.418  28.973  0.00  0.00     0.087 H 
ENDROOT
BRANCH   1   3
ATOM      3  N4  non d ame     -35.128   8.430  29.262  0.00  0.00    -0.346 N 
ATOM      4  C10 non d ame     -36.444   8.022  28.650  0.00  0.00     0.241 C 
ATOM      5  O4  non d ame     -37.200   8.844  28.246  0.00  0.00    -0.271 OA
ATOM      6  H19 non d ame     -34.474   7.747  29.614  0.00  0.00     0.163 HD
BRANCH   4   7
ATOM      7  C9  non d ame     -36.800   6.562  28.552  0.00  0.00     0.092 C 
ATOM      8  H11 non d ame     -37.358   6.390  27.633  0.00  0.00     0.088 H 
BRANCH   7   9
ATOM      9  N3  non d ame     -35.572   5.764  28.469  0.00  0.00    -0.346 N 
ATOM     10  C7  non d ame     -35.465   4.706  27.495  0.00  0.00     0.240 C 
ATOM     11  O3  non d ame     -36.357   4.482  26.771  0.00  0.00    -0.271 OA
ATOM     12  H10 non d ame     -34.795   5.945  29.088  0.00  0.00     0.163 HD
BRANCH  10  13
ATOM     13  C6  non d ame     -34.157   3.859  27.413  0.00  0.00     0.086 C 
ATOM     14  H6  non d ame     -34.340   2.790  27.523  0.00  0.00     0.086 H 
BRANCH  13  15
ATOM     15  N2  non d ame     -33.556   4.045  26.103  0.00  0.00    -0.343 N 
ATOM     16  C5  non d ame     -33.246   5.398  25.638  0.00  0.00     0.273 C 
ATOM     17  O2  non d ame     -33.487   6.331  26.322  0.00  0.00    -0.266 OA
ATOM     18  H5  non d ame     -33.356   3.242  25.524  0.00  0.00     0.163 HD
BRANCH  16  19
ATOM     19  C4  non d ame     -32.608   5.609  24.255  0.00  0.00     0.154 A 
ATOM     20  C1  non d ame     -33.107   5.152  22.994  0.00  0.00    -0.017 A 
ATOM     21  C2  non d ame     -32.162   5.601  22.045  0.00  0.00     0.077 A 
ATOM     22  H1  non d ame     -34.015   4.581  22.798  0.00  0.00     0.091 H 
ATOM     23  O1  non d ame     -31.235   6.242  22.694  0.00  0.00    -0.218 OA
ATOM     24  N1  non d ame     -31.474   6.259  23.986  0.00  0.00    -0.123 NA
BRANCH  21  25
ATOM     25  C3  non d ame     -32.221   5.379  20.540  0.00  0.00    -0.029 C 
ATOM     26  H2  non d ame     -32.254   6.342  20.031  0.00  0.00     0.036 H 
ATOM     27  H3  non d ame     -31.334   4.831  20.219  0.00  0.00     0.036 H 
ATOM     28  H4  non d ame     -33.112   4.805  20.291  0.00  0.00     0.036 H 
ENDBRANCH  21  25
ENDBRANCH  16  19
ENDBRANCH  13  15
BRANCH  13  29
ATOM     29  C8  non d ame     -33.200   4.302  28.490  0.00  0.00    -0.049 C 
ATOM     30  H7  non d ame     -33.735   4.407  29.432  0.00  0.00     0.030 H 
ATOM     31  H8  non d ame     -32.410   3.560  28.602  0.00  0.00     0.030 H 
ATOM     32  H9  non d ame     -32.760   5.262  28.212  0.00  0.00     0.030 H 
ENDBRANCH  13  29
ENDBRANCH  10  13
ENDBRANCH   7   9
BRANCH   7  33
ATOM     33  C11 non d ame     -37.605   6.138  29.816  0.00  0.00    -0.033 C 
ATOM     34  H12 non d ame     -38.225   6.984  30.109  0.00  0.00     0.042 H 
BRANCH  33  35
ATOM     35  C12 non d ame     -38.558   4.942  29.507  0.00  0.00    -0.071 C 
ATOM     36  H13 non d ame     -39.538   5.136  29.943  0.00  0.00     0.028 H 
ATOM     37  H14 non d ame     -38.658   4.825  28.428  0.00  0.00     0.028 H 
ATOM     38  H15 non d ame     -38.146   4.028  29.936  0.00  0.00     0.028 H 
ENDBRANCH  33  35
BRANCH  33  39
ATOM     39  C13 non d ame     -36.647   5.807  31.004  0.00  0.00    -0.071 C 
ATOM     40  H16 non d ame     -36.131   4.867  30.804  0.00  0.00     0.028 H 
ATOM     41  H17 non d ame     -35.915   6.608  31.116  0.00  0.00     0.028 H 
ATOM     42  H18 non d ame     -37.225   5.714  31.923  0.00  0.00     0.028 H 
ENDBRANCH  33  39
ENDBRANCH   7  33
ENDBRANCH   4   7
ENDBRANCH   1   3
BRANCH   1  43
ATOM     43  C15 non d ame     -33.463  10.072  28.545  0.00  0.00     0.240 C 
ATOM     44  O5  non d ame     -32.788   9.146  28.231  0.00  0.00    -0.271 OA
ATOM     45  N6  non d ame     -33.062  11.451  28.147  0.00  0.00    -0.355 N 
ATOM     46  H46 non d ame     -33.630  12.246  28.405  0.00  0.00     0.162 HD
BRANCH  45  47
ATOM     47  C20 non d ame     -31.819  11.658  27.372  0.00  0.00     0.013 C 
ATOM     48  H30 non d ame     -31.119  10.869  27.646  0.00  0.00     0.072 H 
BRANCH  47  49
ATOM     49  C21 non d ame     -31.236  13.010  27.713  0.00  0.00    -0.038 C 
ATOM     50  H31 non d ame     -30.766  12.890  28.689  0.00  0.00     0.036 H 
ATOM     51  H32 non d ame     -30.634  13.297  26.850  0.00  0.00     0.036 H 
BRANCH  49  52
ATOM     52  C22 non d ame     -32.314  14.104  27.877  0.00  0.00     0.018 C 
ATOM     53  H33 non d ame     -33.262  13.621  27.644  0.00  0.00     0.048 H 
ATOM     54  H34 non d ame     -32.148  14.535  28.864  0.00  0.00     0.048 H 
BRANCH  52  55
ATOM     55  C23 non d ame     -32.173  15.278  26.868  0.00  0.00     0.259 C 
ATOM     56  O7  non d ame     -32.600  16.355  27.133  0.00  0.00    -0.265 OA
BRANCH  55  57
ATOM     57  O8  non d ame     -31.538  15.048  25.616  0.00  0.00    -0.317 OA
BRANCH  57  58
ATOM     58  C29 non d ame     -31.778  16.070  24.645  0.00  0.00     0.052 C 
ATOM     59  H47 non d ame     -32.846  16.030  24.432  0.00  0.00     0.082 H 
ATOM     60  H48 non d ame     -31.338  16.978  25.056  0.00  0.00     0.082 H 
BRANCH  58  61
ATOM     61  C35 non d ame     -31.006  15.694  23.352  0.00  0.00    -0.034 A 
ATOM     62  C30 non d ame     -29.932  14.810  23.416  0.00  0.00    -0.075 A 
ATOM     63  C31 non d ame     -29.237  14.472  22.255  0.00  0.00    -0.082 A 
ATOM     64  H49 non d ame     -29.634  14.384  24.373  0.00  0.00     0.084 H 
ATOM     65  C32 non d ame     -29.619  15.021  21.028  0.00  0.00    -0.083 A 
ATOM     66  H50 non d ame     -28.398  13.778  22.307  0.00  0.00     0.083 H 
ATOM     67  C33 non d ame     -30.688  15.905  20.971  0.00  0.00    -0.082 A 
ATOM     68  H51 non d ame     -29.082  14.761  20.115  0.00  0.00     0.083 H 
ATOM     69  C34 non d ame     -31.386  16.245  22.127  0.00  0.00    -0.075 A 
ATOM     70  H52 non d ame     -30.982  16.334  20.012  0.00  0.00     0.083 H 
ATOM     71  H53 non d ame     -32.226  16.938  22.074  0.00  0.00     0.084 H 
ENDBRANCH  58  61
ENDBRANCH  57  58
ENDBRANCH  55  57
ENDBRANCH  52  55
ENDBRANCH  49  52
ENDBRANCH  47  49
BRANCH  47  72
ATOM     72  C24 non d ame     -32.128  11.596  25.877  0.00  0.00    -0.039 C 
ATOM     73  H35 non d ame     -33.206  11.447  25.810  0.00  0.00     0.036 H 
ATOM     74  H36 non d ame     -31.674  12.491  25.451  0.00  0.00     0.036 H 
BRANCH  72  75
ATOM     75  C25 non d ame     -31.431  10.334  25.180  0.00  0.00    -0.001 C 
ATOM     76  C26 non d ame     -30.642  10.812  23.819  0.00  0.00    -0.035 C 
ATOM     77  C27 non d ame     -31.030  10.022  22.789  0.00  0.00     0.085 C 
ATOM     78  H38 non d ame     -30.978  11.804  23.520  0.00  0.00     0.036 H 
ATOM     79  H39 non d ame     -29.575  10.603  23.912  0.00  0.00     0.036 H 
ATOM     80  N5  non d ame     -32.252   9.264  23.250  0.00  0.00    -0.049 N 
ATOM     81  H40 non d ame     -31.315  10.706  21.989  0.00  0.00     0.075 H 
ATOM     82  H41 non d ame     -30.212   9.319  22.637  0.00  0.00     0.075 H 
ATOM     83  C28 non d ame     -32.304   9.440  24.854  0.00  0.00     0.193 C 
ATOM     84  H42 non d ame     -33.049   9.737  22.849  0.00  0.00     0.280 HD
ATOM     85  H43 non d ame     -32.081   8.292  23.037  0.00  0.00     0.280 HD
ATOM     86  H44 non d ame     -32.004   8.622  25.509  0.00  0.00     0.129 H 
ATOM     87  H37 non d ame     -30.872   9.726  25.890  0.00  0.00     0.046 H 
BRANCH  83  88
ATOM     88  O6  non d ame     -33.624   9.798  25.268  0.00  0.00    -0.369 OA
ATOM     89  H45 non d ame     -33.812   9.397  26.120  0.00  0.00     0.212 HD
ENDBRANCH  83  88
ENDBRANCH  72  75
ENDBRANCH  47  72
ENDBRANCH  45  47
ENDBRANCH   1  43
BRANCH   1  90
ATOM     90  C16 non d ame     -34.528  10.188  30.820  0.00  0.00    -0.035 C 
ATOM     91  H21 non d ame     -33.690   9.567  31.132  0.00  0.00     0.037 H 
ATOM     92  H22 non d ame     -34.442  11.274  30.845  0.00  0.00     0.037 H 
BRANCH  90  93
ATOM     93  C17 non d ame     -35.723   9.817  31.757  0.00  0.00    -0.059 C 
ATOM     94  H23 non d ame     -35.931   8.756  31.622  0.00  0.00     0.038 H 
BRANCH  93  95
ATOM     95  C18 non d ame     -35.384  10.049  33.264  0.00  0.00    -0.073 C 
ATOM     96  H24 non d ame     -36.283   9.913  33.864  0.00  0.00     0.028 H 
ATOM     97  H25 non d ame     -34.626   9.332  33.580  0.00  0.00     0.028 H 
ATOM     98  H26 non d ame     -35.006  11.062  33.400  0.00  0.00     0.028 H 
ENDBRANCH  93  95
BRANCH  93  99
ATOM     99  C19 non d ame     -36.987  10.583  31.359  0.00  0.00    -0.073 C 
ATOM    100  H27 non d ame     -37.258  11.277  32.157  0.00  0.00     0.028 H 
ATOM    101  H28 non d ame     -36.802  11.141  30.441  0.00  0.00     0.028 H 
ATOM    102  H29 non d ame     -37.803   9.879  31.198  0.00  0.00     0.028 H 
ENDBRANCH  93  99
ENDBRANCH  90  93
ENDBRANCH   1  90
TORSDOF 26
ENDMDL
MODEL 15
REMARK VINA RESULT:      -6.5      3.006     10.274
REMARK  26 active torsions:
REMARK  status: ('A' for Active; 'I' for Inactive)
REMARK    1  A    between atoms: C2_2  and  C3_3 
REMARK    2  A    between atoms: C4_6  and  C5_7 
REMARK       I    between atoms: C5_7  and  N2_9 
REMARK    3  A    between atoms: N2_9  and  C6_10 
REMARK    4  A    between atoms: C6_10  and  C7_11 
REMARK    5  A    between atoms: C6_10  and  C8_13 
REMARK       I    between atoms: C7_11  and  N3_14 
REMARK    6  A    between atoms: N3_14  and  C9_15 
REMARK    7  A    between atoms: C9_15  and  C10_16 
REMARK    8  A    between atoms: C9_15  and  C11_18 
REMARK       I    between atoms: C10_16  and  N4_21 
REMARK    9  A    between atoms: C11_18  and  C12_19 
REMARK   10  A    between atoms: C11_18  and  C13_20 
REMARK   11  A    between atoms: N4_21  and  C14_22 
REMARK   12  A    between atoms: C14_22  and  C15_23 
REMARK   13  A    between atoms: C14_22  and  C16_25 
REMARK       I    between atoms: C15_23  and  N6_40 
REMARK   14  A    between atoms: C16_25  and  C17_26 
REMARK   15  A    between atoms: C17_26  and  C18_27 
REMARK   16  A    between atoms: C17_26  and  C19_28 
REMARK   17  A    between atoms: C20_29  and  C21_30 
REMARK   18  A    between atoms: C20_29  and  C24_33 
REMARK   19  A    between atoms: C20_29  and  N6_40 
REMARK   20  A    between atoms: C21_30  and  C22_31 
REMARK   21  A    between atoms: C22_31  and  C23_32 
REMARK   22  A    between atoms: C23_32  and  O8_43 
REMARK   23  A    between atoms: C24_33  and  C25_34 
REMARK   24  A    between atoms: C28_38  and  O6_39 
REMARK   25  A    between atoms: C29_42  and  O8_43 
REMARK   26  A    between atoms: C29_42  and  C35_49 
ROOT
ATOM      1  C14 non d ame     -35.198   9.400  29.158  0.00  0.00     0.089 C 
ATOM      2  H20 non d ame     -35.688   9.397  28.184  0.00  0.00     0.087 H 
ENDROOT
BRANCH   1   3
ATOM      3  N4  non d ame     -34.848   8.024  29.478  0.00  0.00    -0.346 N 
ATOM      4  C10 non d ame     -35.616   6.881  28.864  0.00  0.00     0.241 C 
ATOM      5  O4  non d ame     -36.513   7.093  28.116  0.00  0.00    -0.271 OA
ATOM      6  H19 non d ame     -34.084   7.865  30.118  0.00  0.00     0.163 HD
BRANCH   4   7
ATOM      7  C9  non d ame     -35.238   5.463  29.203  0.00  0.00     0.092 C 
ATOM      8  H11 non d ame     -36.144   4.873  29.337  0.00  0.00     0.088 H 
BRANCH   7   9
ATOM      9  N3  non d ame     -34.499   4.873  28.082  0.00  0.00    -0.346 N 
ATOM     10  C7  non d ame     -35.166   3.974  27.173  0.00  0.00     0.240 C 
ATOM     11  O3  non d ame     -36.297   3.714  27.328  0.00  0.00    -0.271 OA
ATOM     12  H10 non d ame     -33.523   5.087  27.937  0.00  0.00     0.163 HD
BRANCH  10  13
ATOM     13  C6  non d ame     -34.373   3.346  25.985  0.00  0.00     0.086 C 
ATOM     14  H6  non d ame     -35.009   3.113  25.131  0.00  0.00     0.086 H 
BRANCH  13  15
ATOM     15  N2  non d ame     -33.385   4.305  25.518  0.00  0.00    -0.343 N 
ATOM     16  C5  non d ame     -33.776   5.330  24.549  0.00  0.00     0.273 C 
ATOM     17  O2  non d ame     -34.887   5.374  24.147  0.00  0.00    -0.266 OA
ATOM     18  H5  non d ame     -32.437   4.258  25.864  0.00  0.00     0.163 HD
BRANCH  16  19
ATOM     19  C4  non d ame     -32.741   6.350  24.048  0.00  0.00     0.154 A 
ATOM     20  C1  non d ame     -32.983   7.702  23.649  0.00  0.00    -0.017 A 
ATOM     21  C2  non d ame     -31.716   8.204  23.278  0.00  0.00     0.077 A 
ATOM     22  H1  non d ame     -33.932   8.238  23.632  0.00  0.00     0.091 H 
ATOM     23  O1  non d ame     -30.854   7.245  23.448  0.00  0.00    -0.218 OA
ATOM     24  N1  non d ame     -31.429   6.153  23.897  0.00  0.00    -0.123 NA
BRANCH  21  25
ATOM     25  C3  non d ame     -31.414   9.608  22.773  0.00  0.00    -0.029 C 
ATOM     26  H2  non d ame     -30.481   9.960  23.212  0.00  0.00     0.036 H 
ATOM     27  H3  non d ame     -31.319   9.592  21.687  0.00  0.00     0.036 H 
ATOM     28  H4  non d ame     -32.225  10.279  23.056  0.00  0.00     0.036 H 
ENDBRANCH  21  25
ENDBRANCH  16  19
ENDBRANCH  13  15
BRANCH  13  29
ATOM     29  C8  non d ame     -33.692   2.083  26.443  0.00  0.00    -0.049 C 
ATOM     30  H7  non d ame     -34.019   1.248  25.824  0.00  0.00     0.030 H 
ATOM     31  H8  non d ame     -32.612   2.199  26.354  0.00  0.00     0.030 H 
ATOM     32  H9  non d ame     -33.952   1.886  27.484  0.00  0.00     0.030 H 
ENDBRANCH  13  29
ENDBRANCH  10  13
ENDBRANCH   7   9
BRANCH   7  33
ATOM     33  C11 non d ame     -34.339   5.455  30.474  0.00  0.00    -0.033 C 
ATOM     34  H12 non d ame     -33.780   6.391  30.487  0.00  0.00     0.042 H 
BRANCH  33  35
ATOM     35  C12 non d ame     -35.198   5.405  31.776  0.00  0.00    -0.071 C 
ATOM     36  H13 non d ame     -34.945   6.253  32.412  0.00  0.00     0.028 H 
ATOM     37  H14 non d ame     -36.256   5.448  31.516  0.00  0.00     0.028 H 
ATOM     38  H15 non d ame     -34.993   4.477  32.311  0.00  0.00     0.028 H 
ENDBRANCH  33  35
BRANCH  33  39
ATOM     39  C13 non d ame     -33.312   4.280  30.426  0.00  0.00    -0.071 C 
ATOM     40  H16 non d ame     -33.058   3.977  31.443  0.00  0.00     0.028 H 
ATOM     41  H17 non d ame     -33.751   3.435  29.894  0.00  0.00     0.028 H 
ATOM     42  H18 non d ame     -32.411   4.605  29.908  0.00  0.00     0.028 H 
ENDBRANCH  33  39
ENDBRANCH   7  33
ENDBRANCH   4   7
ENDBRANCH   1   3
BRANCH   1  43
ATOM     43  C15 non d ame     -33.896  10.254  29.157  0.00  0.00     0.240 C 
ATOM     44  O5  non d ame     -32.960   9.904  29.800  0.00  0.00    -0.271 OA
ATOM     45  N6  non d ame     -33.814  11.501  28.345  0.00  0.00    -0.355 N 
ATOM     46  H46 non d ame     -34.602  11.806  27.791  0.00  0.00     0.162 HD
BRANCH  45  47
ATOM     47  C20 non d ame     -32.570  12.300  28.354  0.00  0.00     0.013 C 
ATOM     48  H30 non d ame     -31.763  11.659  28.709  0.00  0.00     0.072 H 
BRANCH  47  49
ATOM     49  C21 non d ame     -32.740  13.481  29.283  0.00  0.00    -0.038 C 
ATOM     50  H31 non d ame     -33.283  14.232  28.708  0.00  0.00     0.036 H 
ATOM     51  H32 non d ame     -33.175  13.075  30.197  0.00  0.00     0.036 H 
BRANCH  49  52
ATOM     52  C22 non d ame     -31.396  14.125  29.687  0.00  0.00     0.018 C 
ATOM     53  H33 non d ame     -31.156  13.717  30.668  0.00  0.00     0.048 H 
ATOM     54  H34 non d ame     -30.724  13.955  28.846  0.00  0.00     0.048 H 
BRANCH  52  55
ATOM     55  C23 non d ame     -31.470  15.666  29.870  0.00  0.00     0.259 C 
ATOM     56  O7  non d ame     -30.634  16.241  30.490  0.00  0.00    -0.265 OA
BRANCH  55  57
ATOM     57  O8  non d ame     -32.559  16.384  29.301  0.00  0.00    -0.317 OA
BRANCH  57  58
ATOM     58  C29 non d ame     -32.199  17.662  28.767  0.00  0.00     0.052 C 
ATOM     59  H47 non d ame     -32.304  18.366  29.592  0.00  0.00     0.082 H 
ATOM     60  H48 non d ame     -31.229  17.520  28.291  0.00  0.00     0.082 H 
BRANCH  58  61
ATOM     61  C35 non d ame     -33.234  18.031  27.671  0.00  0.00    -0.034 A 
ATOM     62  C30 non d ame     -34.561  17.634  27.804  0.00  0.00    -0.075 A 
ATOM     63  C31 non d ame     -35.491  17.965  26.819  0.00  0.00    -0.082 A 
ATOM     64  H49 non d ame     -34.872  17.063  28.679  0.00  0.00     0.084 H 
ATOM     65  C32 non d ame     -35.089  18.694  25.697  0.00  0.00    -0.083 A 
ATOM     66  H50 non d ame     -36.531  17.654  26.928  0.00  0.00     0.083 H 
ATOM     67  C33 non d ame     -33.763  19.085  25.567  0.00  0.00    -0.082 A 
ATOM     68  H51 non d ame     -35.810  18.958  24.923  0.00  0.00     0.083 H 
ATOM     69  C34 non d ame     -32.831  18.758  26.549  0.00  0.00    -0.075 A 
ATOM     70  H52 non d ame     -33.452  19.652  24.689  0.00  0.00     0.083 H 
ATOM     71  H53 non d ame     -31.792  19.070  26.441  0.00  0.00     0.084 H 
ENDBRANCH  58  61
ENDBRANCH  57  58
ENDBRANCH  55  57
ENDBRANCH  52  55
ENDBRANCH  49  52
ENDBRANCH  47  49
BRANCH  47  72
ATOM     72  C24 non d ame     -32.267  12.800  26.943  0.00  0.00    -0.039 C 
ATOM     73  H35 non d ame     -31.180  12.786  26.858  0.00  0.00     0.036 H 
ATOM     74  H36 non d ame     -32.874  12.183  26.280  0.00  0.00     0.036 H 
BRANCH  72  75
ATOM     75  C25 non d ame     -32.738  14.318  26.738  0.00  0.00    -0.001 C 
ATOM     76  C26 non d ame     -34.153  14.357  25.902  0.00  0.00    -0.035 C 
ATOM     77  C27 non d ame     -34.021  15.209  24.858  0.00  0.00     0.085 C 
ATOM     78  H38 non d ame     -34.332  13.394  25.424  0.00  0.00     0.036 H 
ATOM     79  H39 non d ame     -34.934  14.817  26.509  0.00  0.00     0.036 H 
ATOM     80  N5  non d ame     -32.546  15.504  24.714  0.00  0.00    -0.049 N 
ATOM     81  H40 non d ame     -34.360  14.653  23.984  0.00  0.00     0.075 H 
ATOM     82  H41 non d ame     -34.537  16.120  25.158  0.00  0.00     0.075 H 
ATOM     83  C28 non d ame     -31.856  14.995  26.082  0.00  0.00     0.193 C 
ATOM     84  H42 non d ame     -32.213  14.930  23.953  0.00  0.00     0.280 HD
ATOM     85  H43 non d ame     -32.461  16.509  24.664  0.00  0.00     0.280 HD
ATOM     86  H44 non d ame     -31.548  15.711  26.845  0.00  0.00     0.129 H 
ATOM     87  H37 non d ame     -32.692  14.893  27.663  0.00  0.00     0.046 H 
BRANCH  83  88
ATOM     88  O6  non d ame     -30.691  14.223  25.788  0.00  0.00    -0.369 OA
ATOM     89  H45 non d ame     -30.702  13.416  26.309  0.00  0.00     0.212 HD
ENDBRANCH  83  88
ENDBRANCH  72  75
ENDBRANCH  47  72
ENDBRANCH  45  47
ENDBRANCH   1  43
BRANCH   1  90
ATOM     90  C16 non d ame     -36.154   9.929  30.214  0.00  0.00    -0.035 C 
ATOM     91  H21 non d ame     -35.706  10.855  30.572  0.00  0.00     0.037 H 
ATOM     92  H22 non d ame     -37.133   9.946  29.734  0.00  0.00     0.037 H 
BRANCH  90  93
ATOM     93  C17 non d ame     -36.289   8.996  31.460  0.00  0.00    -0.059 C 
ATOM     94  H23 non d ame     -35.814   8.046  31.214  0.00  0.00     0.038 H 
BRANCH  93  95
ATOM     95  C18 non d ame     -35.566   9.579  32.715  0.00  0.00    -0.073 C 
ATOM     96  H24 non d ame     -34.588   9.109  32.823  0.00  0.00     0.028 H 
ATOM     97  H25 non d ame     -35.438  10.655  32.594  0.00  0.00     0.028 H 
ATOM     98  H26 non d ame     -36.164   9.382  33.604  0.00  0.00     0.028 H 
ENDBRANCH  93  95
BRANCH  93  99
ATOM     99  C19 non d ame     -37.761   8.703  31.767  0.00  0.00    -0.073 C 
ATOM    100  H27 non d ame     -37.957   7.640  31.622  0.00  0.00     0.028 H 
ATOM    101  H28 non d ame     -37.978   8.975  32.800  0.00  0.00     0.028 H 
ATOM    102  H29 non d ame     -38.394   9.284  31.097  0.00  0.00     0.028 H 
ENDBRANCH  93  99
ENDBRANCH  90  93
ENDBRANCH   1  90
TORSDOF 26
ENDMDL
MODEL 16
REMARK VINA RESULT:      -6.4      3.979      8.720
REMARK  26 active torsions:
REMARK  status: ('A' for Active; 'I' for Inactive)
REMARK    1  A    between atoms: C2_2  and  C3_3 
REMARK    2  A    between atoms: C4_6  and  C5_7 
REMARK       I    between atoms: C5_7  and  N2_9 
REMARK    3  A    between atoms: N2_9  and  C6_10 
REMARK    4  A    between atoms: C6_10  and  C7_11 
REMARK    5  A    between atoms: C6_10  and  C8_13 
REMARK       I    between atoms: C7_11  and  N3_14 
REMARK    6  A    between atoms: N3_14  and  C9_15 
REMARK    7  A    between atoms: C9_15  and  C10_16 
REMARK    8  A    between atoms: C9_15  and  C11_18 
REMARK       I    between atoms: C10_16  and  N4_21 
REMARK    9  A    between atoms: C11_18  and  C12_19 
REMARK   10  A    between atoms: C11_18  and  C13_20 
REMARK   11  A    between atoms: N4_21  and  C14_22 
REMARK   12  A    between atoms: C14_22  and  C15_23 
REMARK   13  A    between atoms: C14_22  and  C16_25 
REMARK       I    between atoms: C15_23  and  N6_40 
REMARK   14  A    between atoms: C16_25  and  C17_26 
REMARK   15  A    between atoms: C17_26  and  C18_27 
REMARK   16  A    between atoms: C17_26  and  C19_28 
REMARK   17  A    between atoms: C20_29  and  C21_30 
REMARK   18  A    between atoms: C20_29  and  C24_33 
REMARK   19  A    between atoms: C20_29  and  N6_40 
REMARK   20  A    between atoms: C21_30  and  C22_31 
REMARK   21  A    between atoms: C22_31  and  C23_32 
REMARK   22  A    between atoms: C23_32  and  O8_43 
REMARK   23  A    between atoms: C24_33  and  C25_34 
REMARK   24  A    between atoms: C28_38  and  O6_39 
REMARK   25  A    between atoms: C29_42  and  O8_43 
REMARK   26  A    between atoms: C29_42  and  C35_49 
ROOT
ATOM      1  C14 non d ame     -36.502   9.942  28.301  0.00  0.00     0.089 C 
ATOM      2  H20 non d ame     -37.270   9.748  27.552  0.00  0.00     0.087 H 
ENDROOT
BRANCH   1   3
ATOM      3  N4  non d ame     -35.822   8.683  28.568  0.00  0.00    -0.346 N 
ATOM      4  C10 non d ame     -36.492   7.372  28.246  0.00  0.00     0.241 C 
ATOM      5  O4  non d ame     -37.581   7.354  27.774  0.00  0.00    -0.271 OA
ATOM      6  H19 non d ame     -34.897   8.720  28.972  0.00  0.00     0.163 HD
BRANCH   4   7
ATOM      7  C9  non d ame     -35.772   6.079  28.525  0.00  0.00     0.092 C 
ATOM      8  H11 non d ame     -36.423   5.243  28.269  0.00  0.00     0.088 H 
BRANCH   7   9
ATOM      9  N3  non d ame     -34.587   5.984  27.667  0.00  0.00    -0.346 N 
ATOM     10  C7  non d ame     -34.536   4.997  26.616  0.00  0.00     0.240 C 
ATOM     11  O3  non d ame     -35.439   4.272  26.447  0.00  0.00    -0.271 OA
ATOM     12  H10 non d ame     -33.800   6.602  27.802  0.00  0.00     0.163 HD
BRANCH  10  13
ATOM     13  C6  non d ame     -33.271   4.899  25.708  0.00  0.00     0.086 C 
ATOM     14  H6  non d ame     -32.887   3.882  25.629  0.00  0.00     0.086 H 
BRANCH  13  15
ATOM     15  N2  non d ame     -33.624   5.315  24.361  0.00  0.00    -0.343 N 
ATOM     16  C5  non d ame     -33.592   4.337  23.272  0.00  0.00     0.273 C 
ATOM     17  O2  non d ame     -33.279   3.218  23.488  0.00  0.00    -0.266 OA
ATOM     18  H5  non d ame     -33.888   6.274  24.184  0.00  0.00     0.163 HD
BRANCH  16  19
ATOM     19  C4  non d ame     -33.964   4.763  21.843  0.00  0.00     0.154 A 
ATOM     20  C1  non d ame     -33.067   5.096  20.779  0.00  0.00    -0.017 A 
ATOM     21  C2  non d ame     -33.903   5.416  19.686  0.00  0.00     0.077 A 
ATOM     22  H1  non d ame     -31.977   5.104  20.797  0.00  0.00     0.091 H 
ATOM     23  O1  non d ame     -35.133   5.278  20.085  0.00  0.00    -0.218 OA
ATOM     24  N1  non d ame     -35.194   4.898  21.341  0.00  0.00    -0.123 NA
BRANCH  21  25
ATOM     25  C3  non d ame     -33.447   5.840  18.297  0.00  0.00    -0.029 C 
ATOM     26  H2  non d ame     -33.605   6.911  18.174  0.00  0.00     0.036 H 
ATOM     27  H3  non d ame     -32.387   5.616  18.177  0.00  0.00     0.036 H 
ATOM     28  H4  non d ame     -34.020   5.299  17.544  0.00  0.00     0.036 H 
ENDBRANCH  21  25
ENDBRANCH  16  19
ENDBRANCH  13  15
BRANCH  13  29
ATOM     29  C8  non d ame     -32.185   5.788  26.256  0.00  0.00    -0.049 C 
ATOM     30  H7  non d ame     -31.499   5.196  26.860  0.00  0.00     0.030 H 
ATOM     31  H8  non d ame     -31.639   6.246  25.432  0.00  0.00     0.030 H 
ATOM     32  H9  non d ame     -32.632   6.569  26.874  0.00  0.00     0.030 H 
ENDBRANCH  13  29
ENDBRANCH  10  13
ENDBRANCH   7   9
BRANCH   7  33
ATOM     33  C11 non d ame     -35.331   6.043  30.018  0.00  0.00    -0.033 C 
ATOM     34  H12 non d ame     -34.936   7.027  30.268  0.00  0.00     0.042 H 
BRANCH  33  35
ATOM     35  C12 non d ame     -36.544   5.771  30.962  0.00  0.00    -0.071 C 
ATOM     36  H13 non d ame     -36.762   4.703  30.976  0.00  0.00     0.028 H 
ATOM     37  H14 non d ame     -36.304   6.107  31.970  0.00  0.00     0.028 H 
ATOM     38  H15 non d ame     -37.417   6.313  30.597  0.00  0.00     0.028 H 
ENDBRANCH  33  35
BRANCH  33  39
ATOM     39  C13 non d ame     -34.195   4.995  30.241  0.00  0.00    -0.071 C 
ATOM     40  H16 non d ame     -34.246   4.614  31.261  0.00  0.00     0.028 H 
ATOM     41  H17 non d ame     -34.317   4.170  29.537  0.00  0.00     0.028 H 
ATOM     42  H18 non d ame     -33.226   5.468  30.079  0.00  0.00     0.028 H 
ENDBRANCH  33  39
ENDBRANCH   7  33
ENDBRANCH   4   7
ENDBRANCH   1   3
BRANCH   1  43
ATOM     43  C15 non d ame     -35.450  10.978  27.808  0.00  0.00     0.240 C 
ATOM     44  O5  non d ame     -35.811  11.987  27.294  0.00  0.00    -0.271 OA
ATOM     45  N6  non d ame     -33.993  10.716  27.985  0.00  0.00    -0.355 N 
ATOM     46  H46 non d ame     -33.675   9.864  28.425  0.00  0.00     0.162 HD
BRANCH  45  47
ATOM     47  C20 non d ame     -33.007  11.711  27.512  0.00  0.00     0.013 C 
ATOM     48  H30 non d ame     -33.519  12.668  27.411  0.00  0.00     0.072 H 
BRANCH  47  49
ATOM     49  C21 non d ame     -32.459  11.274  26.173  0.00  0.00    -0.038 C 
ATOM     50  H31 non d ame     -33.194  11.597  25.434  0.00  0.00     0.036 H 
ATOM     51  H32 non d ame     -31.440  11.659  26.132  0.00  0.00     0.036 H 
BRANCH  49  52
ATOM     52  C22 non d ame     -32.351   9.739  26.041  0.00  0.00     0.018 C 
ATOM     53  H33 non d ame     -31.415   9.553  25.516  0.00  0.00     0.048 H 
ATOM     54  H34 non d ame     -32.500   9.346  27.047  0.00  0.00     0.048 H 
BRANCH  52  55
ATOM     55  C23 non d ame     -33.467   9.106  25.165  0.00  0.00     0.259 C 
ATOM     56  O7  non d ame     -34.287   8.397  25.653  0.00  0.00    -0.265 OA
BRANCH  55  57
ATOM     57  O8  non d ame     -33.492   9.372  23.768  0.00  0.00    -0.317 OA
BRANCH  57  58
ATOM     58  C29 non d ame     -33.096   8.263  22.956  0.00  0.00     0.052 C 
ATOM     59  H47 non d ame     -33.355   7.372  23.528  0.00  0.00     0.082 H 
ATOM     60  H48 non d ame     -33.547   8.435  21.980  0.00  0.00     0.082 H 
BRANCH  58  61
ATOM     61  C35 non d ame     -31.553   8.312  22.797  0.00  0.00    -0.034 A 
ATOM     62  C30 non d ame     -30.806   7.141  22.885  0.00  0.00    -0.075 A 
ATOM     63  C31 non d ame     -29.419   7.186  22.743  0.00  0.00    -0.082 A 
ATOM     64  H49 non d ame     -31.306   6.190  23.066  0.00  0.00     0.084 H 
ATOM     65  C32 non d ame     -28.780   8.407  22.515  0.00  0.00    -0.083 A 
ATOM     66  H50 non d ame     -28.837   6.266  22.811  0.00  0.00     0.083 H 
ATOM     67  C33 non d ame     -29.529   9.573  22.432  0.00  0.00    -0.082 A 
ATOM     68  H51 non d ame     -27.696   8.450  22.402  0.00  0.00     0.083 H 
ATOM     69  C34 non d ame     -30.915   9.533  22.571  0.00  0.00    -0.075 A 
ATOM     70  H52 non d ame     -29.027  10.525  22.256  0.00  0.00     0.083 H 
ATOM     71  H53 non d ame     -31.496  10.452  22.503  0.00  0.00     0.084 H 
ENDBRANCH  58  61
ENDBRANCH  57  58
ENDBRANCH  55  57
ENDBRANCH  52  55
ENDBRANCH  49  52
ENDBRANCH  47  49
BRANCH  47  72
ATOM     72  C24 non d ame     -31.865  11.825  28.519  0.00  0.00    -0.039 C 
ATOM     73  H35 non d ame     -31.809  10.850  29.005  0.00  0.00     0.036 H 
ATOM     74  H36 non d ame     -31.013  12.200  27.951  0.00  0.00     0.036 H 
BRANCH  72  75
ATOM     75  C25 non d ame     -32.184  12.903  29.659  0.00  0.00    -0.001 C 
ATOM     76  C26 non d ame     -32.567  14.347  28.973  0.00  0.00    -0.035 C 
ATOM     77  C27 non d ame     -31.807  15.315  29.537  0.00  0.00     0.085 C 
ATOM     78  H38 non d ame     -32.258  14.358  27.927  0.00  0.00     0.036 H 
ATOM     79  H39 non d ame     -33.584  14.632  29.243  0.00  0.00     0.036 H 
ATOM     80  N5  non d ame     -30.712  14.620  30.312  0.00  0.00    -0.049 N 
ATOM     81  H40 non d ame     -31.363  15.860  28.704  0.00  0.00     0.075 H 
ATOM     82  H41 non d ame     -32.464  15.831  30.237  0.00  0.00     0.075 H 
ATOM     83  C28 non d ame     -31.167  13.077  30.436  0.00  0.00     0.193 C 
ATOM     84  H42 non d ame     -29.883  14.665  29.737  0.00  0.00     0.280 HD
ATOM     85  H43 non d ame     -30.710  15.031  31.234  0.00  0.00     0.280 HD
ATOM     86  H44 non d ame     -31.568  12.693  31.375  0.00  0.00     0.129 H 
ATOM     87  H37 non d ame     -32.868  12.516  30.414  0.00  0.00     0.046 H 
BRANCH  83  88
ATOM     88  O6  non d ame     -30.080  12.213  30.102  0.00  0.00    -0.369 OA
ATOM     89  H45 non d ame     -29.697  12.489  29.265  0.00  0.00     0.212 HD
ENDBRANCH  83  88
ENDBRANCH  72  75
ENDBRANCH  47  72
ENDBRANCH  45  47
ENDBRANCH   1  43
BRANCH   1  90
ATOM     90  C16 non d ame     -37.147  10.441  29.583  0.00  0.00    -0.035 C 
ATOM     91  H21 non d ame     -36.701  11.416  29.770  0.00  0.00     0.037 H 
ATOM     92  H22 non d ame     -38.221  10.353  29.418  0.00  0.00     0.037 H 
BRANCH  90  93
ATOM     93  C17 non d ame     -36.819   9.561  30.832  0.00  0.00    -0.059 C 
ATOM     94  H23 non d ame     -36.250   8.698  30.487  0.00  0.00     0.038 H 
BRANCH  93  95
ATOM     95  C18 non d ame     -35.943  10.323  31.876  0.00  0.00    -0.073 C 
ATOM     96  H24 non d ame     -35.767  11.341  31.530  0.00  0.00     0.028 H 
ATOM     97  H25 non d ame     -36.461  10.351  32.835  0.00  0.00     0.028 H 
ATOM     98  H26 non d ame     -34.989   9.809  31.994  0.00  0.00     0.028 H 
ENDBRANCH  93  95
BRANCH  93  99
ATOM     99  C19 non d ame     -38.102   9.032  31.480  0.00  0.00    -0.073 C 
ATOM    100  H27 non d ame     -38.331   9.625  32.367  0.00  0.00     0.028 H 
ATOM    101  H28 non d ame     -38.926   9.107  30.771  0.00  0.00     0.028 H 
ATOM    102  H29 non d ame     -37.962   7.990  31.766  0.00  0.00     0.028 H 
ENDBRANCH  93  99
ENDBRANCH  90  93
ENDBRANCH   1  90
TORSDOF 26
ENDMDL
MODEL 17
REMARK VINA RESULT:      -6.4      3.102     10.552
REMARK  26 active torsions:
REMARK  status: ('A' for Active; 'I' for Inactive)
REMARK    1  A    between atoms: C2_2  and  C3_3 
REMARK    2  A    between atoms: C4_6  and  C5_7 
REMARK       I    between atoms: C5_7  and  N2_9 
REMARK    3  A    between atoms: N2_9  and  C6_10 
REMARK    4  A    between atoms: C6_10  and  C7_11 
REMARK    5  A    between atoms: C6_10  and  C8_13 
REMARK       I    between atoms: C7_11  and  N3_14 
REMARK    6  A    between atoms: N3_14  and  C9_15 
REMARK    7  A    between atoms: C9_15  and  C10_16 
REMARK    8  A    between atoms: C9_15  and  C11_18 
REMARK       I    between atoms: C10_16  and  N4_21 
REMARK    9  A    between atoms: C11_18  and  C12_19 
REMARK   10  A    between atoms: C11_18  and  C13_20 
REMARK   11  A    between atoms: N4_21  and  C14_22 
REMARK   12  A    between atoms: C14_22  and  C15_23 
REMARK   13  A    between atoms: C14_22  and  C16_25 
REMARK       I    between atoms: C15_23  and  N6_40 
REMARK   14  A    between atoms: C16_25  and  C17_26 
REMARK   15  A    between atoms: C17_26  and  C18_27 
REMARK   16  A    between atoms: C17_26  and  C19_28 
REMARK   17  A    between atoms: C20_29  and  C21_30 
REMARK   18  A    between atoms: C20_29  and  C24_33 
REMARK   19  A    between atoms: C20_29  and  N6_40 
REMARK   20  A    between atoms: C21_30  and  C22_31 
REMARK   21  A    between atoms: C22_31  and  C23_32 
REMARK   22  A    between atoms: C23_32  and  O8_43 
REMARK   23  A    between atoms: C24_33  and  C25_34 
REMARK   24  A    between atoms: C28_38  and  O6_39 
REMARK   25  A    between atoms: C29_42  and  O8_43 
REMARK   26  A    between atoms: C29_42  and  C35_49 
ROOT
ATOM      1  C14 non d ame     -32.720  10.005  25.669  0.00  0.00     0.089 C 
ATOM      2  H20 non d ame     -32.231   9.031  25.722  0.00  0.00     0.087 H 
ENDROOT
BRANCH   1   3
ATOM      3  N4  non d ame     -33.482  10.181  26.896  0.00  0.00    -0.346 N 
ATOM      4  C10 non d ame     -33.310   9.219  28.044  0.00  0.00     0.241 C 
ATOM      5  O4  non d ame     -32.553   8.308  27.957  0.00  0.00    -0.271 OA
ATOM      6  H19 non d ame     -34.122  10.959  26.949  0.00  0.00     0.163 HD
BRANCH   4   7
ATOM      7  C9  non d ame     -34.104   9.418  29.309  0.00  0.00     0.092 C 
ATOM      8  H11 non d ame     -35.041   9.918  29.068  0.00  0.00     0.088 H 
BRANCH   7   9
ATOM      9  N3  non d ame     -34.443   8.113  29.884  0.00  0.00    -0.346 N 
ATOM     10  C7  non d ame     -35.824   7.716  30.002  0.00  0.00     0.240 C 
ATOM     11  O3  non d ame     -36.675   8.433  29.640  0.00  0.00    -0.271 OA
ATOM     12  H10 non d ame     -33.720   7.484  30.202  0.00  0.00     0.163 HD
BRANCH  10  13
ATOM     13  C6  non d ame     -36.180   6.327  30.618  0.00  0.00     0.086 C 
ATOM     14  H6  non d ame     -37.178   6.303  31.056  0.00  0.00     0.086 H 
BRANCH  13  15
ATOM     15  N2  non d ame     -36.164   5.326  29.565  0.00  0.00    -0.343 N 
ATOM     16  C5  non d ame     -37.389   5.051  28.812  0.00  0.00     0.273 C 
ATOM     17  O2  non d ame     -38.384   5.639  29.062  0.00  0.00    -0.266 OA
ATOM     18  H5  non d ame     -35.311   4.826  29.359  0.00  0.00     0.163 HD
BRANCH  16  19
ATOM     19  C4  non d ame     -37.386   3.995  27.695  0.00  0.00     0.154 A 
ATOM     20  C1  non d ame     -38.508   3.260  27.197  0.00  0.00    -0.017 A 
ATOM     21  C2  non d ame     -37.977   2.429  26.186  0.00  0.00     0.077 A 
ATOM     22  H1  non d ame     -39.548   3.322  27.519  0.00  0.00     0.091 H 
ATOM     23  O1  non d ame     -36.701   2.667  26.118  0.00  0.00    -0.218 OA
ATOM     24  N1  non d ame     -36.332   3.577  26.990  0.00  0.00    -0.123 NA
BRANCH  21  25
ATOM     25  C3  non d ame     -38.757   1.438  25.332  0.00  0.00    -0.029 C 
ATOM     26  H2  non d ame     -39.509   0.942  25.945  0.00  0.00     0.036 H 
ATOM     27  H3  non d ame     -39.249   1.969  24.516  0.00  0.00     0.036 H 
ATOM     28  H4  non d ame     -38.074   0.694  24.921  0.00  0.00     0.036 H 
ENDBRANCH  21  25
ENDBRANCH  16  19
ENDBRANCH  13  15
BRANCH  13  29
ATOM     29  C8  non d ame     -35.173   5.973  31.683  0.00  0.00    -0.049 C 
ATOM     30  H7  non d ame     -34.326   6.655  31.623  0.00  0.00     0.030 H 
ATOM     31  H8  non d ame     -35.637   6.058  32.665  0.00  0.00     0.030 H 
ATOM     32  H9  non d ame     -34.828   4.950  31.531  0.00  0.00     0.030 H 
ENDBRANCH  13  29
ENDBRANCH  10  13
ENDBRANCH   7   9
BRANCH   7  33
ATOM     33  C11 non d ame     -33.253  10.227  30.332  0.00  0.00    -0.033 C 
ATOM     34  H12 non d ame     -32.509   9.549  30.749  0.00  0.00     0.042 H 
BRANCH  33  35
ATOM     35  C12 non d ame     -32.486  11.394  29.636  0.00  0.00    -0.071 C 
ATOM     36  H13 non d ame     -33.131  12.272  29.581  0.00  0.00     0.028 H 
ATOM     37  H14 non d ame     -31.592  11.636  30.209  0.00  0.00     0.028 H 
ATOM     38  H15 non d ame     -32.202  11.092  28.628  0.00  0.00     0.028 H 
ENDBRANCH  33  35
BRANCH  33  39
ATOM     39  C13 non d ame     -34.140  10.752  31.506  0.00  0.00    -0.071 C 
ATOM     40  H16 non d ame     -35.090  10.217  31.511  0.00  0.00     0.028 H 
ATOM     41  H17 non d ame     -33.625  10.589  32.453  0.00  0.00     0.028 H 
ATOM     42  H18 non d ame     -34.325  11.818  31.373  0.00  0.00     0.028 H 
ENDBRANCH  33  39
ENDBRANCH   7  33
ENDBRANCH   4   7
ENDBRANCH   1   3
BRANCH   1  43
ATOM     43  C15 non d ame     -31.694  11.170  25.552  0.00  0.00     0.240 C 
ATOM     44  O5  non d ame     -30.689  11.138  26.185  0.00  0.00    -0.271 OA
ATOM     45  N6  non d ame     -31.961  12.320  24.642  0.00  0.00    -0.355 N 
ATOM     46  H46 non d ame     -32.810  12.355  24.095  0.00  0.00     0.162 HD
BRANCH  45  47
ATOM     47  C20 non d ame     -30.976  13.418  24.541  0.00  0.00     0.013 C 
ATOM     48  H30 non d ame     -30.095  13.131  25.115  0.00  0.00     0.072 H 
BRANCH  47  49
ATOM     49  C21 non d ame     -31.577  14.683  25.113  0.00  0.00    -0.038 C 
ATOM     50  H31 non d ame     -31.123  14.806  26.096  0.00  0.00     0.036 H 
ATOM     51  H32 non d ame     -31.437  15.447  24.348  0.00  0.00     0.036 H 
BRANCH  49  52
ATOM     52  C22 non d ame     -33.100  14.571  25.345  0.00  0.00     0.018 C 
ATOM     53  H33 non d ame     -33.496  15.574  25.190  0.00  0.00     0.048 H 
ATOM     54  H34 non d ame     -33.434  13.748  24.713  0.00  0.00     0.048 H 
BRANCH  52  55
ATOM     55  C23 non d ame     -33.484  14.179  26.798  0.00  0.00     0.259 C 
ATOM     56  O7  non d ame     -33.951  13.111  27.031  0.00  0.00    -0.265 OA
BRANCH  55  57
ATOM     57  O8  non d ame     -33.284  15.116  27.850  0.00  0.00    -0.317 OA
BRANCH  57  58
ATOM     58  C29 non d ame     -34.361  16.043  28.016  0.00  0.00     0.052 C 
ATOM     59  H47 non d ame     -35.191  15.639  27.437  0.00  0.00     0.082 H 
ATOM     60  H48 non d ame     -34.464  16.187  29.091  0.00  0.00     0.082 H 
BRANCH  58  61
ATOM     61  C35 non d ame     -33.932  17.394  27.381  0.00  0.00    -0.034 A 
ATOM     62  C30 non d ame     -34.547  17.841  26.216  0.00  0.00    -0.075 A 
ATOM     63  C31 non d ame     -34.161  19.054  25.645  0.00  0.00    -0.082 A 
ATOM     64  H49 non d ame     -35.329  17.243  25.749  0.00  0.00     0.084 H 
ATOM     65  C32 non d ame     -33.156  19.818  26.243  0.00  0.00    -0.083 A 
ATOM     66  H50 non d ame     -34.646  19.403  24.732  0.00  0.00     0.083 H 
ATOM     67  C33 non d ame     -32.544  19.365  27.403  0.00  0.00    -0.082 A 
ATOM     68  H51 non d ame     -32.849  20.768  25.804  0.00  0.00     0.083 H 
ATOM     69  C34 non d ame     -32.927  18.155  27.978  0.00  0.00    -0.075 A 
ATOM     70  H52 non d ame     -31.757  19.963  27.867  0.00  0.00     0.083 H 
ATOM     71  H53 non d ame     -32.442  17.807  28.890  0.00  0.00     0.084 H 
ENDBRANCH  58  61
ENDBRANCH  57  58
ENDBRANCH  55  57
ENDBRANCH  52  55
ENDBRANCH  49  52
ENDBRANCH  47  49
BRANCH  47  72
ATOM     72  C24 non d ame     -30.605  13.646  23.078  0.00  0.00    -0.039 C 
ATOM     73  H35 non d ame     -29.715  13.038  22.907  0.00  0.00     0.036 H 
ATOM     74  H36 non d ame     -31.516  13.448  22.513  0.00  0.00     0.036 H 
BRANCH  72  75
ATOM     75  C25 non d ame     -30.197  15.170  22.799  0.00  0.00    -0.001 C 
ATOM     76  C26 non d ame     -31.293  15.866  21.790  0.00  0.00    -0.035 C 
ATOM     77  C27 non d ame     -30.631  16.450  20.763  0.00  0.00     0.085 C 
ATOM     78  H38 non d ame     -31.894  15.099  21.303  0.00  0.00     0.036 H 
ATOM     79  H39 non d ame     -31.780  16.705  22.288  0.00  0.00     0.036 H 
ATOM     80  N5  non d ame     -29.212  15.936  20.804  0.00  0.00    -0.049 N 
ATOM     81  H40 non d ame     -31.117  16.083  19.858  0.00  0.00     0.075 H 
ATOM     82  H41 non d ame     -30.629  17.516  20.986  0.00  0.00     0.075 H 
ATOM     83  C28 non d ame     -29.030  15.249  22.253  0.00  0.00     0.193 C 
ATOM     84  H42 non d ame     -29.147  15.218  20.097  0.00  0.00     0.280 HD
ATOM     85  H43 non d ame     -28.613  16.748  20.755  0.00  0.00     0.280 HD
ATOM     86  H44 non d ame     -28.477  15.759  23.042  0.00  0.00     0.129 H 
ATOM     87  H37 non d ame     -29.956  15.706  23.716  0.00  0.00     0.046 H 
BRANCH  83  88
ATOM     88  O6  non d ame     -28.410  13.969  22.117  0.00  0.00    -0.369 OA
ATOM     89  H45 non d ame     -28.079  13.866  21.221  0.00  0.00     0.212 HD
ENDBRANCH  83  88
ENDBRANCH  72  75
ENDBRANCH  47  72
ENDBRANCH  45  47
ENDBRANCH   1  43
BRANCH   1  90
ATOM     90  C16 non d ame     -33.670  10.040  24.483  0.00  0.00    -0.035 C 
ATOM     91  H21 non d ame     -34.198  10.989  24.565  0.00  0.00     0.037 H 
ATOM     92  H22 non d ame     -33.051   9.832  23.611  0.00  0.00     0.037 H 
BRANCH  90  93
ATOM     93  C17 non d ame     -34.763   8.924  24.525  0.00  0.00    -0.059 C 
ATOM     94  H23 non d ame     -35.163   8.891  25.538  0.00  0.00     0.038 H 
BRANCH  93  95
ATOM     95  C18 non d ame     -35.950   9.225  23.555  0.00  0.00    -0.073 C 
ATOM     96  H24 non d ame     -36.399   8.288  23.227  0.00  0.00     0.028 H 
ATOM     97  H25 non d ame     -36.699   9.824  24.072  0.00  0.00     0.028 H 
ATOM     98  H26 non d ame     -35.581   9.774  22.688  0.00  0.00     0.028 H 
ENDBRANCH  93  95
BRANCH  93  99
ATOM     99  C19 non d ame     -34.154   7.551  24.230  0.00  0.00    -0.073 C 
ATOM    100  H27 non d ame     -34.439   7.236  23.225  0.00  0.00     0.028 H 
ATOM    101  H28 non d ame     -33.068   7.612  24.297  0.00  0.00     0.028 H 
ATOM    102  H29 non d ame     -34.523   6.826  24.956  0.00  0.00     0.028 H 
ENDBRANCH  93  99
ENDBRANCH  90  93
ENDBRANCH   1  90
TORSDOF 26
ENDMDL
MODEL 18
REMARK VINA RESULT:      -6.3      3.185     10.184
REMARK  26 active torsions:
REMARK  status: ('A' for Active; 'I' for Inactive)
REMARK    1  A    between atoms: C2_2  and  C3_3 
REMARK    2  A    between atoms: C4_6  and  C5_7 
REMARK       I    between atoms: C5_7  and  N2_9 
REMARK    3  A    between atoms: N2_9  and  C6_10 
REMARK    4  A    between atoms: C6_10  and  C7_11 
REMARK    5  A    between atoms: C6_10  and  C8_13 
REMARK       I    between atoms: C7_11  and  N3_14 
REMARK    6  A    between atoms: N3_14  and  C9_15 
REMARK    7  A    between atoms: C9_15  and  C10_16 
REMARK    8  A    between atoms: C9_15  and  C11_18 
REMARK       I    between atoms: C10_16  and  N4_21 
REMARK    9  A    between atoms: C11_18  and  C12_19 
REMARK   10  A    between atoms: C11_18  and  C13_20 
REMARK   11  A    between atoms: N4_21  and  C14_22 
REMARK   12  A    between atoms: C14_22  and  C15_23 
REMARK   13  A    between atoms: C14_22  and  C16_25 
REMARK       I    between atoms: C15_23  and  N6_40 
REMARK   14  A    between atoms: C16_25  and  C17_26 
REMARK   15  A    between atoms: C17_26  and  C18_27 
REMARK   16  A    between atoms: C17_26  and  C19_28 
REMARK   17  A    between atoms: C20_29  and  C21_30 
REMARK   18  A    between atoms: C20_29  and  C24_33 
REMARK   19  A    between atoms: C20_29  and  N6_40 
REMARK   20  A    between atoms: C21_30  and  C22_31 
REMARK   21  A    between atoms: C22_31  and  C23_32 
REMARK   22  A    between atoms: C23_32  and  O8_43 
REMARK   23  A    between atoms: C24_33  and  C25_34 
REMARK   24  A    between atoms: C28_38  and  O6_39 
REMARK   25  A    between atoms: C29_42  and  O8_43 
REMARK   26  A    between atoms: C29_42  and  C35_49 
ROOT
ATOM      1  C14 non d ame     -31.818   8.767  24.162  0.00  0.00     0.089 C 
ATOM      2  H20 non d ame     -30.932   8.385  24.669  0.00  0.00     0.087 H 
ENDROOT
BRANCH   1   3
ATOM      3  N4  non d ame     -32.749   7.658  24.012  0.00  0.00    -0.346 N 
ATOM      4  C10 non d ame     -32.443   6.318  24.629  0.00  0.00     0.241 C 
ATOM      5  O4  non d ame     -31.440   6.153  25.241  0.00  0.00    -0.271 OA
ATOM      6  H19 non d ame     -33.596   7.818  23.485  0.00  0.00     0.163 HD
BRANCH   4   7
ATOM      7  C9  non d ame     -33.420   5.182  24.467  0.00  0.00     0.092 C 
ATOM      8  H11 non d ame     -32.915   4.241  24.681  0.00  0.00     0.088 H 
BRANCH   7   9
ATOM      9  N3  non d ame     -34.503   5.326  25.446  0.00  0.00    -0.346 N 
ATOM     10  C7  non d ame     -34.537   4.477  26.611  0.00  0.00     0.240 C 
ATOM     11  O3  non d ame     -33.703   3.673  26.777  0.00  0.00    -0.271 OA
ATOM     12  H10 non d ame     -35.230   6.014  25.315  0.00  0.00     0.163 HD
BRANCH  10  13
ATOM     13  C6  non d ame     -35.693   4.631  27.647  0.00  0.00     0.086 C 
ATOM     14  H6  non d ame     -35.381   4.397  28.665  0.00  0.00     0.086 H 
BRANCH  13  15
ATOM     15  N2  non d ame     -36.136   6.015  27.657  0.00  0.00    -0.343 N 
ATOM     16  C5  non d ame     -35.528   6.961  28.595  0.00  0.00     0.273 C 
ATOM     17  O2  non d ame     -34.685   6.599  29.340  0.00  0.00    -0.266 OA
ATOM     18  H5  non d ame     -36.860   6.316  27.019  0.00  0.00     0.163 HD
BRANCH  16  19
ATOM     19  C4  non d ame     -35.987   8.428  28.615  0.00  0.00     0.154 A 
ATOM     20  C1  non d ame     -36.192   9.285  27.488  0.00  0.00    -0.017 A 
ATOM     21  C2  non d ame     -36.607  10.518  28.040  0.00  0.00     0.077 A 
ATOM     22  H1  non d ame     -36.061   9.049  26.432  0.00  0.00     0.091 H 
ATOM     23  O1  non d ame     -36.635  10.374  29.332  0.00  0.00    -0.218 OA
ATOM     24  N1  non d ame     -36.277   9.163  29.692  0.00  0.00    -0.123 NA
BRANCH  21  25
ATOM     25  C3  non d ame     -36.958  11.780  27.265  0.00  0.00    -0.029 C 
ATOM     26  H2  non d ame     -36.062  12.174  26.786  0.00  0.00     0.036 H 
ATOM     27  H3  non d ame     -37.701  11.544  26.503  0.00  0.00     0.036 H 
ATOM     28  H4  non d ame     -37.363  12.526  27.948  0.00  0.00     0.036 H 
ENDBRANCH  21  25
ENDBRANCH  16  19
ENDBRANCH  13  15
BRANCH  13  29
ATOM     29  C8  non d ame     -36.837   3.725  27.268  0.00  0.00    -0.049 C 
ATOM     30  H7  non d ame     -36.589   2.697  27.530  0.00  0.00     0.030 H 
ATOM     31  H8  non d ame     -37.735   4.030  27.804  0.00  0.00     0.030 H 
ATOM     32  H9  non d ame     -37.013   3.793  26.193  0.00  0.00     0.030 H 
ENDBRANCH  13  29
ENDBRANCH  10  13
ENDBRANCH   7   9
BRANCH   7  33
ATOM     33  C11 non d ame     -34.018   5.214  23.029  0.00  0.00    -0.033 C 
ATOM     34  H12 non d ame     -34.245   6.253  22.791  0.00  0.00     0.042 H 
BRANCH  33  35
ATOM     35  C12 non d ame     -32.986   4.706  21.975  0.00  0.00    -0.071 C 
ATOM     36  H13 non d ame     -32.867   5.456  21.192  0.00  0.00     0.028 H 
ATOM     37  H14 non d ame     -32.026   4.531  22.460  0.00  0.00     0.028 H 
ATOM     38  H15 non d ame     -33.345   3.776  21.533  0.00  0.00     0.028 H 
ENDBRANCH  33  35
BRANCH  33  39
ATOM     39  C13 non d ame     -35.348   4.399  22.959  0.00  0.00    -0.071 C 
ATOM     40  H16 non d ame     -35.125   3.356  22.733  0.00  0.00     0.028 H 
ATOM     41  H17 non d ame     -35.865   4.461  23.917  0.00  0.00     0.028 H 
ATOM     42  H18 non d ame     -35.986   4.811  22.177  0.00  0.00     0.028 H 
ENDBRANCH  33  39
ENDBRANCH   7  33
ENDBRANCH   4   7
ENDBRANCH   1   3
BRANCH   1  43
ATOM     43  C15 non d ame     -32.518   9.894  24.975  0.00  0.00     0.240 C 
ATOM     44  O5  non d ame     -33.701  10.004  24.936  0.00  0.00    -0.271 OA
ATOM     45  N6  non d ame     -31.714  10.831  25.811  0.00  0.00    -0.355 N 
ATOM     46  H46 non d ame     -30.708  10.744  25.856  0.00  0.00     0.162 HD
BRANCH  45  47
ATOM     47  C20 non d ame     -32.394  11.896  26.579  0.00  0.00     0.013 C 
ATOM     48  H30 non d ame     -33.319  12.145  26.058  0.00  0.00     0.072 H 
BRANCH  47  49
ATOM     49  C21 non d ame     -31.498  13.112  26.650  0.00  0.00    -0.038 C 
ATOM     50  H31 non d ame     -32.100  13.895  27.111  0.00  0.00     0.036 H 
ATOM     51  H32 non d ame     -30.581  12.773  27.133  0.00  0.00     0.036 H 
BRANCH  49  52
ATOM     52  C22 non d ame     -31.089  13.637  25.256  0.00  0.00     0.018 C 
ATOM     53  H33 non d ame     -30.004  13.556  25.217  0.00  0.00     0.048 H 
ATOM     54  H34 non d ame     -31.704  13.089  24.543  0.00  0.00     0.048 H 
BRANCH  52  55
ATOM     55  C23 non d ame     -31.414  15.141  25.034  0.00  0.00     0.259 C 
ATOM     56  O7  non d ame     -30.690  15.824  24.385  0.00  0.00    -0.265 OA
BRANCH  55  57
ATOM     57  O8  non d ame     -32.581  15.696  25.628  0.00  0.00    -0.317 OA
BRANCH  57  58
ATOM     58  C29 non d ame     -33.019  16.916  25.022  0.00  0.00     0.052 C 
ATOM     59  H47 non d ame     -32.276  17.150  24.260  0.00  0.00     0.082 H 
ATOM     60  H48 non d ame     -34.057  16.748  24.737  0.00  0.00     0.082 H 
BRANCH  58  61
ATOM     61  C35 non d ame     -32.982  18.028  26.103  0.00  0.00    -0.034 A 
ATOM     62  C30 non d ame     -32.597  17.721  27.405  0.00  0.00    -0.075 A 
ATOM     63  C31 non d ame     -32.564  18.720  28.377  0.00  0.00    -0.082 A 
ATOM     64  H49 non d ame     -32.322  16.699  27.664  0.00  0.00     0.084 H 
ATOM     65  C32 non d ame     -32.920  20.030  28.044  0.00  0.00    -0.083 A 
ATOM     66  H50 non d ame     -32.260  18.477  29.396  0.00  0.00     0.083 H 
ATOM     67  C33 non d ame     -33.307  20.330  26.745  0.00  0.00    -0.082 A 
ATOM     68  H51 non d ame     -32.896  20.817  28.798  0.00  0.00     0.083 H 
ATOM     69  C34 non d ame     -33.340  19.336  25.770  0.00  0.00    -0.075 A 
ATOM     70  H52 non d ame     -33.587  21.353  26.489  0.00  0.00     0.083 H 
ATOM     71  H53 non d ame     -33.643  19.580  24.752  0.00  0.00     0.084 H 
ENDBRANCH  58  61
ENDBRANCH  57  58
ENDBRANCH  55  57
ENDBRANCH  52  55
ENDBRANCH  49  52
ENDBRANCH  47  49
BRANCH  47  72
ATOM     72  C24 non d ame     -32.697  11.402  27.991  0.00  0.00    -0.039 C 
ATOM     73  H35 non d ame     -33.783  11.317  28.042  0.00  0.00     0.036 H 
ATOM     74  H36 non d ame     -32.075  10.517  28.129  0.00  0.00     0.036 H 
BRANCH  72  75
ATOM     75  C25 non d ame     -32.254  12.468  29.101  0.00  0.00    -0.001 C 
ATOM     76  C26 non d ame     -30.688  12.211  29.531  0.00  0.00    -0.035 C 
ATOM     77  C27 non d ame     -30.613  12.130  30.881  0.00  0.00     0.085 C 
ATOM     78  H38 non d ame     -30.366  11.224  29.199  0.00  0.00     0.036 H 
ATOM     79  H39 non d ame     -30.085  13.088  29.294  0.00  0.00     0.036 H 
ATOM     80  N5  non d ame     -32.026  11.982  31.393  0.00  0.00    -0.049 N 
ATOM     81  H40 non d ame     -30.061  11.213  31.088  0.00  0.00     0.075 H 
ATOM     82  H41 non d ame     -30.216  13.090  31.208  0.00  0.00     0.075 H 
ATOM     83  C28 non d ame     -32.989  12.375  30.158  0.00  0.00     0.193 C 
ATOM     84  H42 non d ame     -32.153  11.002  31.600  0.00  0.00     0.280 HD
ATOM     85  H43 non d ame     -32.138  12.672  32.122  0.00  0.00     0.280 HD
ATOM     86  H44 non d ame     -33.491  13.343  30.136  0.00  0.00     0.129 H 
ATOM     87  H37 non d ame     -32.532  13.486  28.830  0.00  0.00     0.046 H 
BRANCH  83  88
ATOM     88  O6  non d ame     -34.025  11.402  30.011  0.00  0.00    -0.369 OA
ATOM     89  H45 non d ame     -34.115  11.168  29.084  0.00  0.00     0.212 HD
ENDBRANCH  83  88
ENDBRANCH  72  75
ENDBRANCH  47  72
ENDBRANCH  45  47
ENDBRANCH   1  43
BRANCH   1  90
ATOM     90  C16 non d ame     -31.440   9.289  22.786  0.00  0.00    -0.035 C 
ATOM     91  H21 non d ame     -31.500   8.427  22.124  0.00  0.00     0.037 H 
ATOM     92  H22 non d ame     -32.084  10.152  22.618  0.00  0.00     0.037 H 
BRANCH  90  93
ATOM     93  C17 non d ame     -29.970   9.811  22.697  0.00  0.00    -0.059 C 
ATOM     94  H23 non d ame     -29.509   9.668  23.674  0.00  0.00     0.038 H 
BRANCH  93  95
ATOM     95  C18 non d ame     -29.125   9.016  21.651  0.00  0.00    -0.073 C 
ATOM     96  H24 non d ame     -28.131   9.457  21.575  0.00  0.00     0.028 H 
ATOM     97  H25 non d ame     -29.037   7.977  21.969  0.00  0.00     0.028 H 
ATOM     98  H26 non d ame     -29.616   9.058  20.679  0.00  0.00     0.028 H 
ENDBRANCH  93  95
BRANCH  93  99
ATOM     99  C19 non d ame     -29.940  11.311  22.394  0.00  0.00    -0.073 C 
ATOM    100  H27 non d ame     -30.453  11.502  21.450  0.00  0.00     0.028 H 
ATOM    101  H28 non d ame     -30.441  11.855  23.195  0.00  0.00     0.028 H 
ATOM    102  H29 non d ame     -28.906  11.646  22.319  0.00  0.00     0.028 H 
ENDBRANCH  93  99
ENDBRANCH  90  93
ENDBRANCH   1  90
TORSDOF 26
ENDMDL
MODEL 19
REMARK VINA RESULT:      -6.3      3.671      7.539
REMARK  26 active torsions:
REMARK  status: ('A' for Active; 'I' for Inactive)
REMARK    1  A    between atoms: C2_2  and  C3_3 
REMARK    2  A    between atoms: C4_6  and  C5_7 
REMARK       I    between atoms: C5_7  and  N2_9 
REMARK    3  A    between atoms: N2_9  and  C6_10 
REMARK    4  A    between atoms: C6_10  and  C7_11 
REMARK    5  A    between atoms: C6_10  and  C8_13 
REMARK       I    between atoms: C7_11  and  N3_14 
REMARK    6  A    between atoms: N3_14  and  C9_15 
REMARK    7  A    between atoms: C9_15  and  C10_16 
REMARK    8  A    between atoms: C9_15  and  C11_18 
REMARK       I    between atoms: C10_16  and  N4_21 
REMARK    9  A    between atoms: C11_18  and  C12_19 
REMARK   10  A    between atoms: C11_18  and  C13_20 
REMARK   11  A    between atoms: N4_21  and  C14_22 
REMARK   12  A    between atoms: C14_22  and  C15_23 
REMARK   13  A    between atoms: C14_22  and  C16_25 
REMARK       I    between atoms: C15_23  and  N6_40 
REMARK   14  A    between atoms: C16_25  and  C17_26 
REMARK   15  A    between atoms: C17_26  and  C18_27 
REMARK   16  A    between atoms: C17_26  and  C19_28 
REMARK   17  A    between atoms: C20_29  and  C21_30 
REMARK   18  A    between atoms: C20_29  and  C24_33 
REMARK   19  A    between atoms: C20_29  and  N6_40 
REMARK   20  A    between atoms: C21_30  and  C22_31 
REMARK   21  A    between atoms: C22_31  and  C23_32 
REMARK   22  A    between atoms: C23_32  and  O8_43 
REMARK   23  A    between atoms: C24_33  and  C25_34 
REMARK   24  A    between atoms: C28_38  and  O6_39 
REMARK   25  A    between atoms: C29_42  and  O8_43 
REMARK   26  A    between atoms: C29_42  and  C35_49 
ROOT
ATOM      1  C14 non d ame     -35.593   6.479  26.437  0.00  0.00     0.089 C 
ATOM      2  H20 non d ame     -36.485   6.807  25.903  0.00  0.00     0.087 H 
ENDROOT
BRANCH   1   3
ATOM      3  N4  non d ame     -34.593   6.121  25.442  0.00  0.00    -0.346 N 
ATOM      4  C10 non d ame     -34.892   6.273  23.972  0.00  0.00     0.241 C 
ATOM      5  O4  non d ame     -35.946   6.684  23.613  0.00  0.00    -0.271 OA
ATOM      6  H19 non d ame     -33.704   5.771  25.768  0.00  0.00     0.163 HD
BRANCH   4   7
ATOM      7  C9  non d ame     -33.844   5.902  22.956  0.00  0.00     0.092 C 
ATOM      8  H11 non d ame     -34.221   6.119  21.957  0.00  0.00     0.088 H 
BRANCH   7   9
ATOM      9  N3  non d ame     -32.651   6.731  23.159  0.00  0.00    -0.346 N 
ATOM     10  C7  non d ame     -32.094   7.474  22.056  0.00  0.00     0.240 C 
ATOM     11  O3  non d ame     -32.593   7.417  20.998  0.00  0.00    -0.271 OA
ATOM     12  H10 non d ame     -32.210   6.788  24.066  0.00  0.00     0.163 HD
BRANCH  10  13
ATOM     13  C6  non d ame     -30.823   8.351  22.277  0.00  0.00     0.086 C 
ATOM     14  H6  non d ame     -30.502   8.863  21.371  0.00  0.00     0.086 H 
BRANCH  13  15
ATOM     15  N2  non d ame     -31.127   9.384  23.253  0.00  0.00    -0.343 N 
ATOM     16  C5  non d ame     -30.520  10.709  23.113  0.00  0.00     0.273 C 
ATOM     17  O2  non d ame     -29.785  10.934  22.215  0.00  0.00    -0.266 OA
ATOM     18  H5  non d ame     -31.753   9.183  24.020  0.00  0.00     0.163 HD
BRANCH  16  19
ATOM     19  C4  non d ame     -30.833  11.812  24.138  0.00  0.00     0.154 A 
ATOM     20  C1  non d ame     -30.940  13.217  23.891  0.00  0.00    -0.017 A 
ATOM     21  C2  non d ame     -31.238  13.785  25.149  0.00  0.00     0.077 A 
ATOM     22  H1  non d ame     -30.820  13.743  22.944  0.00  0.00     0.091 H 
ATOM     23  O1  non d ame     -31.295  12.812  26.010  0.00  0.00    -0.218 OA
ATOM     24  N1  non d ame     -31.062  11.651  25.444  0.00  0.00    -0.123 NA
BRANCH  21  25
ATOM     25  C3  non d ame     -31.455  15.263  25.442  0.00  0.00    -0.029 C 
ATOM     26  H2  non d ame     -32.162  15.677  24.723  0.00  0.00     0.036 H 
ATOM     27  H3  non d ame     -31.856  15.379  26.450  0.00  0.00     0.036 H 
ATOM     28  H4  non d ame     -30.507  15.793  25.365  0.00  0.00     0.036 H 
ENDBRANCH  21  25
ENDBRANCH  16  19
ENDBRANCH  13  15
BRANCH  13  29
ATOM     29  C8  non d ame     -29.693   7.486  22.774  0.00  0.00    -0.049 C 
ATOM     30  H7  non d ame     -28.770   8.066  22.788  0.00  0.00     0.030 H 
ATOM     31  H8  non d ame     -29.917   7.139  23.783  0.00  0.00     0.030 H 
ATOM     32  H9  non d ame     -29.574   6.628  22.112  0.00  0.00     0.030 H 
ENDBRANCH  13  29
ENDBRANCH  10  13
ENDBRANCH   7   9
BRANCH   7  33
ATOM     33  C11 non d ame     -33.465   4.402  23.127  0.00  0.00    -0.033 C 
ATOM     34  H12 non d ame     -32.861   4.316  24.030  0.00  0.00     0.042 H 
BRANCH  33  35
ATOM     35  C12 non d ame     -34.734   3.515  23.325  0.00  0.00    -0.071 C 
ATOM     36  H13 non d ame     -35.216   3.350  22.361  0.00  0.00     0.028 H 
ATOM     37  H14 non d ame     -34.445   2.557  23.756  0.00  0.00     0.028 H 
ATOM     38  H15 non d ame     -35.429   4.020  23.995  0.00  0.00     0.028 H 
ENDBRANCH  33  35
BRANCH  33  39
ATOM     39  C13 non d ame     -32.606   3.901  21.923  0.00  0.00    -0.071 C 
ATOM     40  H16 non d ame     -32.891   2.879  21.672  0.00  0.00     0.028 H 
ATOM     41  H17 non d ame     -32.775   4.548  21.061  0.00  0.00     0.028 H 
ATOM     42  H18 non d ame     -31.550   3.927  22.193  0.00  0.00     0.028 H 
ENDBRANCH  33  39
ENDBRANCH   7  33
ENDBRANCH   4   7
ENDBRANCH   1   3
BRANCH   1  43
ATOM     43  C15 non d ame     -35.009   7.599  27.346  0.00  0.00     0.240 C 
ATOM     44  O5  non d ame     -34.031   7.389  27.988  0.00  0.00    -0.271 OA
ATOM     45  N6  non d ame     -35.662   8.938  27.407  0.00  0.00    -0.355 N 
ATOM     46  H46 non d ame     -36.490   9.130  26.862  0.00  0.00     0.162 HD
BRANCH  45  47
ATOM     47  C20 non d ame     -35.093   9.991  28.275  0.00  0.00     0.013 C 
ATOM     48  H30 non d ame     -34.771   9.521  29.204  0.00  0.00     0.072 H 
BRANCH  47  49
ATOM     49  C21 non d ame     -36.154  11.030  28.561  0.00  0.00    -0.038 C 
ATOM     50  H31 non d ame     -35.976  11.359  29.585  0.00  0.00     0.036 H 
ATOM     51  H32 non d ame     -36.094  11.746  27.741  0.00  0.00     0.036 H 
BRANCH  49  52
ATOM     52  C22 non d ame     -37.585  10.450  28.530  0.00  0.00     0.018 C 
ATOM     53  H33 non d ame     -38.068  10.902  27.665  0.00  0.00     0.048 H 
ATOM     54  H34 non d ame     -37.465   9.368  28.585  0.00  0.00     0.048 H 
BRANCH  52  55
ATOM     55  C23 non d ame     -38.448  10.848  29.759  0.00  0.00     0.259 C 
ATOM     56  O7  non d ame     -39.399  11.550  29.626  0.00  0.00    -0.265 OA
BRANCH  55  57
ATOM     57  O8  non d ame     -38.082  10.376  31.050  0.00  0.00    -0.317 OA
BRANCH  57  58
ATOM     58  C29 non d ame     -38.632   9.097  31.380  0.00  0.00     0.052 C 
ATOM     59  H47 non d ame     -38.930   9.165  32.426  0.00  0.00     0.082 H 
ATOM     60  H48 non d ame     -39.377   8.888  30.613  0.00  0.00     0.082 H 
BRANCH  58  61
ATOM     61  C35 non d ame     -37.498   8.044  31.260  0.00  0.00    -0.034 A 
ATOM     62  C30 non d ame     -37.810   6.711  31.009  0.00  0.00    -0.075 A 
ATOM     63  C31 non d ame     -36.791   5.764  30.903  0.00  0.00    -0.082 A 
ATOM     64  H49 non d ame     -38.850   6.407  30.898  0.00  0.00     0.084 H 
ATOM     65  C32 non d ame     -35.457   6.155  31.049  0.00  0.00    -0.083 A 
ATOM     66  H50 non d ame     -37.038   4.721  30.704  0.00  0.00     0.083 H 
ATOM     67  C33 non d ame     -35.152   7.485  31.303  0.00  0.00    -0.082 A 
ATOM     68  H51 non d ame     -34.655   5.421  30.966  0.00  0.00     0.083 H 
ATOM     69  C34 non d ame     -36.166   8.434  31.409  0.00  0.00    -0.075 A 
ATOM     70  H52 non d ame     -34.110   7.786  31.419  0.00  0.00     0.083 H 
ATOM     71  H53 non d ame     -35.919   9.477  31.607  0.00  0.00     0.084 H 
ENDBRANCH  58  61
ENDBRANCH  57  58
ENDBRANCH  55  57
ENDBRANCH  52  55
ENDBRANCH  49  52
ENDBRANCH  47  49
BRANCH  47  72
ATOM     72  C24 non d ame     -33.907  10.652  27.575  0.00  0.00    -0.039 C 
ATOM     73  H35 non d ame     -33.505   9.890  26.906  0.00  0.00     0.036 H 
ATOM     74  H36 non d ame     -34.294  11.586  27.168  0.00  0.00     0.036 H 
BRANCH  72  75
ATOM     75  C25 non d ame     -32.745  11.032  28.610  0.00  0.00    -0.001 C 
ATOM     76  C26 non d ame     -33.077  10.389  30.086  0.00  0.00    -0.035 C 
ATOM     77  C27 non d ame     -32.985  11.366  31.020  0.00  0.00     0.085 C 
ATOM     78  H38 non d ame     -34.123  10.087  30.136  0.00  0.00     0.036 H 
ATOM     79  H39 non d ame     -32.294   9.687  30.374  0.00  0.00     0.036 H 
ATOM     80  N5  non d ame     -32.943  12.681  30.279  0.00  0.00    -0.049 N 
ATOM     81  H40 non d ame     -33.911  11.310  31.593  0.00  0.00     0.075 H 
ATOM     82  H41 non d ame     -32.028  11.206  31.515  0.00  0.00     0.075 H 
ATOM     83  C28 non d ame     -32.634  12.312  28.738  0.00  0.00     0.193 C 
ATOM     84  H42 non d ame     -33.872  13.072  30.336  0.00  0.00     0.280 HD
ATOM     85  H43 non d ame     -32.155  13.192  30.652  0.00  0.00     0.280 HD
ATOM     86  H44 non d ame     -31.639  12.467  28.321  0.00  0.00     0.129 H 
ATOM     87  H37 non d ame     -31.752  10.849  28.201  0.00  0.00     0.046 H 
BRANCH  83  88
ATOM     88  O6  non d ame     -33.526  13.020  27.874  0.00  0.00    -0.369 OA
ATOM     89  H45 non d ame     -33.173  13.020  26.980  0.00  0.00     0.212 HD
ENDBRANCH  83  88
ENDBRANCH  72  75
ENDBRANCH  47  72
ENDBRANCH  45  47
ENDBRANCH   1  43
BRANCH   1  90
ATOM     90  C16 non d ame     -35.918   5.256  27.278  0.00  0.00    -0.035 C 
ATOM     91  H21 non d ame     -35.185   4.504  26.989  0.00  0.00     0.037 H 
ATOM     92  H22 non d ame     -35.954   5.615  28.307  0.00  0.00     0.037 H 
BRANCH  90  93
ATOM     93  C17 non d ame     -37.322   4.642  26.975  0.00  0.00    -0.059 C 
ATOM     94  H23 non d ame     -37.445   4.618  25.892  0.00  0.00     0.038 H 
BRANCH  93  95
ATOM     95  C18 non d ame     -37.451   3.177  27.501  0.00  0.00    -0.073 C 
ATOM     96  H24 non d ame     -38.452   3.023  27.906  0.00  0.00     0.028 H 
ATOM     97  H25 non d ame     -37.281   2.480  26.681  0.00  0.00     0.028 H 
ATOM     98  H26 non d ame     -36.712   3.005  28.284  0.00  0.00     0.028 H 
ENDBRANCH  93  95
BRANCH  93  99
ATOM     99  C19 non d ame     -38.438   5.524  27.541  0.00  0.00    -0.073 C 
ATOM    100  H27 non d ame     -38.221   6.570  27.321  0.00  0.00     0.028 H 
ATOM    101  H28 non d ame     -39.388   5.248  27.083  0.00  0.00     0.028 H 
ATOM    102  H29 non d ame     -38.500   5.385  28.620  0.00  0.00     0.028 H 
ENDBRANCH  93  99
ENDBRANCH  90  93
ENDBRANCH   1  90
TORSDOF 26
ENDMDL
MODEL 20
REMARK VINA RESULT:      -6.3      3.131      8.571
REMARK  26 active torsions:
REMARK  status: ('A' for Active; 'I' for Inactive)
REMARK    1  A    between atoms: C2_2  and  C3_3 
REMARK    2  A    between atoms: C4_6  and  C5_7 
REMARK       I    between atoms: C5_7  and  N2_9 
REMARK    3  A    between atoms: N2_9  and  C6_10 
REMARK    4  A    between atoms: C6_10  and  C7_11 
REMARK    5  A    between atoms: C6_10  and  C8_13 
REMARK       I    between atoms: C7_11  and  N3_14 
REMARK    6  A    between atoms: N3_14  and  C9_15 
REMARK    7  A    between atoms: C9_15  and  C10_16 
REMARK    8  A    between atoms: C9_15  and  C11_18 
REMARK       I    between atoms: C10_16  and  N4_21 
REMARK    9  A    between atoms: C11_18  and  C12_19 
REMARK   10  A    between atoms: C11_18  and  C13_20 
REMARK   11  A    between atoms: N4_21  and  C14_22 
REMARK   12  A    between atoms: C14_22  and  C15_23 
REMARK   13  A    between atoms: C14_22  and  C16_25 
REMARK       I    between atoms: C15_23  and  N6_40 
REMARK   14  A    between atoms: C16_25  and  C17_26 
REMARK   15  A    between atoms: C17_26  and  C18_27 
REMARK   16  A    between atoms: C17_26  and  C19_28 
REMARK   17  A    between atoms: C20_29  and  C21_30 
REMARK   18  A    between atoms: C20_29  and  C24_33 
REMARK   19  A    between atoms: C20_29  and  N6_40 
REMARK   20  A    between atoms: C21_30  and  C22_31 
REMARK   21  A    between atoms: C22_31  and  C23_32 
REMARK   22  A    between atoms: C23_32  and  O8_43 
REMARK   23  A    between atoms: C24_33  and  C25_34 
REMARK   24  A    between atoms: C28_38  and  O6_39 
REMARK   25  A    between atoms: C29_42  and  O8_43 
REMARK   26  A    between atoms: C29_42  and  C35_49 
ROOT
ATOM      1  C14 non d ame     -35.157  10.628  25.134  0.00  0.00     0.089 C 
ATOM      2  H20 non d ame     -35.108  11.175  24.192  0.00  0.00     0.087 H 
ENDROOT
BRANCH   1   3
ATOM      3  N4  non d ame     -34.309   9.453  25.004  0.00  0.00    -0.346 N 
ATOM      4  C10 non d ame     -34.178   8.751  23.677  0.00  0.00     0.241 C 
ATOM      5  O4  non d ame     -34.766   9.149  22.726  0.00  0.00    -0.271 OA
ATOM      6  H19 non d ame     -33.819   9.128  25.826  0.00  0.00     0.163 HD
BRANCH   4   7
ATOM      7  C9  non d ame     -33.292   7.538  23.559  0.00  0.00     0.092 C 
ATOM      8  H11 non d ame     -33.557   6.987  22.657  0.00  0.00     0.088 H 
BRANCH   7   9
ATOM      9  N3  non d ame     -31.897   7.964  23.412  0.00  0.00    -0.346 N 
ATOM     10  C7  non d ame     -31.345   8.183  22.099  0.00  0.00     0.240 C 
ATOM     11  O3  non d ame     -32.008   8.021  21.148  0.00  0.00    -0.271 OA
ATOM     12  H10 non d ame     -31.312   8.106  24.223  0.00  0.00     0.163 HD
BRANCH  10  13
ATOM     13  C6  non d ame     -29.858   8.633  21.949  0.00  0.00     0.086 C 
ATOM     14  H6  non d ame     -29.393   8.254  21.039  0.00  0.00     0.086 H 
BRANCH  13  15
ATOM     15  N2  non d ame     -29.810  10.083  21.866  0.00  0.00    -0.343 N 
ATOM     16  C5  non d ame     -30.181  10.885  23.034  0.00  0.00     0.273 C 
ATOM     17  O2  non d ame     -30.520  10.355  24.034  0.00  0.00    -0.266 OA
ATOM     18  H5  non d ame     -29.522  10.529  21.006  0.00  0.00     0.163 HD
BRANCH  16  19
ATOM     19  C4  non d ame     -30.134  12.420  22.960  0.00  0.00     0.154 A 
ATOM     20  C1  non d ame     -29.413  13.218  22.017  0.00  0.00    -0.017 A 
ATOM     21  C2  non d ame     -29.699  14.554  22.379  0.00  0.00     0.077 A 
ATOM     22  H1  non d ame     -28.779  12.881  21.197  0.00  0.00     0.091 H 
ATOM     23  O1  non d ame     -30.493  14.516  23.408  0.00  0.00    -0.218 OA
ATOM     24  N1  non d ame     -30.762  13.281  23.766  0.00  0.00    -0.123 NA
BRANCH  21  25
ATOM     25  C3  non d ame     -29.176  15.806  21.689  0.00  0.00    -0.029 C 
ATOM     26  H2  non d ame     -28.141  15.979  21.984  0.00  0.00     0.036 H 
ATOM     27  H3  non d ame     -29.226  15.674  20.608  0.00  0.00     0.036 H 
ATOM     28  H4  non d ame     -29.784  16.663  21.979  0.00  0.00     0.036 H 
ENDBRANCH  21  25
ENDBRANCH  16  19
ENDBRANCH  13  15
BRANCH  13  29
ATOM     29  C8  non d ame     -29.064   8.157  23.138  0.00  0.00    -0.049 C 
ATOM     30  H7  non d ame     -29.063   7.067  23.162  0.00  0.00     0.030 H 
ATOM     31  H8  non d ame     -28.039   8.518  23.059  0.00  0.00     0.030 H 
ATOM     32  H9  non d ame     -29.515   8.540  24.054  0.00  0.00     0.030 H 
ENDBRANCH  13  29
ENDBRANCH  10  13
ENDBRANCH   7   9
BRANCH   7  33
ATOM     33  C11 non d ame     -33.433   6.667  24.842  0.00  0.00    -0.033 C 
ATOM     34  H12 non d ame     -33.907   7.282  25.607  0.00  0.00     0.042 H 
BRANCH  33  35
ATOM     35  C12 non d ame     -34.358   5.435  24.592  0.00  0.00    -0.071 C 
ATOM     36  H13 non d ame     -35.106   5.376  25.384  0.00  0.00     0.028 H 
ATOM     37  H14 non d ame     -34.857   5.543  23.630  0.00  0.00     0.028 H 
ATOM     38  H15 non d ame     -33.759   4.525  24.592  0.00  0.00     0.028 H 
ENDBRANCH  33  35
BRANCH  33  39
ATOM     39  C13 non d ame     -32.033   6.226  25.375  0.00  0.00    -0.071 C 
ATOM     40  H16 non d ame     -31.766   6.832  26.241  0.00  0.00     0.028 H 
ATOM     41  H17 non d ame     -32.068   5.175  25.664  0.00  0.00     0.028 H 
ATOM     42  H18 non d ame     -31.287   6.361  24.593  0.00  0.00     0.028 H 
ENDBRANCH  33  39
ENDBRANCH   7  33
ENDBRANCH   4   7
ENDBRANCH   1   3
BRANCH   1  43
ATOM     43  C15 non d ame     -34.644  11.478  26.333  0.00  0.00     0.240 C 
ATOM     44  O5  non d ame     -35.211  11.430  27.376  0.00  0.00    -0.271 OA
ATOM     45  N6  non d ame     -33.441  12.345  26.182  0.00  0.00    -0.355 N 
ATOM     46  H46 non d ame     -32.948  12.390  25.301  0.00  0.00     0.162 HD
BRANCH  45  47
ATOM     47  C20 non d ame     -32.966  13.146  27.331  0.00  0.00     0.013 C 
ATOM     48  H30 non d ame     -33.474  12.783  28.224  0.00  0.00     0.072 H 
BRANCH  47  49
ATOM     49  C21 non d ame     -33.302  14.602  27.099  0.00  0.00    -0.038 C 
ATOM     50  H31 non d ame     -33.974  14.882  27.911  0.00  0.00     0.036 H 
ATOM     51  H32 non d ame     -32.344  15.110  26.984  0.00  0.00     0.036 H 
BRANCH  49  52
ATOM     52  C22 non d ame     -34.081  14.835  25.786  0.00  0.00     0.018 C 
ATOM     53  H33 non d ame     -33.543  15.622  25.259  0.00  0.00     0.048 H 
ATOM     54  H34 non d ame     -34.192  13.851  25.331  0.00  0.00     0.048 H 
BRANCH  52  55
ATOM     55  C23 non d ame     -35.523  15.372  26.001  0.00  0.00     0.259 C 
ATOM     56  O7  non d ame     -36.257  14.840  26.770  0.00  0.00    -0.265 OA
BRANCH  55  57
ATOM     57  O8  non d ame     -35.964  16.502  25.257  0.00  0.00    -0.317 OA
BRANCH  57  58
ATOM     58  C29 non d ame     -36.271  17.645  26.061  0.00  0.00     0.052 C 
ATOM     59  H47 non d ame     -36.855  18.307  25.421  0.00  0.00     0.082 H 
ATOM     60  H48 non d ame     -36.704  17.253  26.980  0.00  0.00     0.082 H 
BRANCH  58  61
ATOM     61  C35 non d ame     -34.936  18.355  26.412  0.00  0.00    -0.034 A 
ATOM     62  C30 non d ame     -34.536  18.466  27.741  0.00  0.00    -0.075 A 
ATOM     63  C31 non d ame     -33.337  19.104  28.057  0.00  0.00    -0.082 A 
ATOM     64  H49 non d ame     -35.161  18.056  28.533  0.00  0.00     0.084 H 
ATOM     65  C32 non d ame     -32.537  19.632  27.040  0.00  0.00    -0.083 A 
ATOM     66  H50 non d ame     -33.025  19.188  29.099  0.00  0.00     0.083 H 
ATOM     67  C33 non d ame     -32.943  19.521  25.717  0.00  0.00    -0.082 A 
ATOM     68  H51 non d ame     -31.598  20.131  27.279  0.00  0.00     0.083 H 
ATOM     69  C34 non d ame     -34.139  18.884  25.396  0.00  0.00    -0.075 A 
ATOM     70  H52 non d ame     -32.318  19.937  24.925  0.00  0.00     0.083 H 
ATOM     71  H53 non d ame     -34.450  18.799  24.354  0.00  0.00     0.084 H 
ENDBRANCH  58  61
ENDBRANCH  57  58
ENDBRANCH  55  57
ENDBRANCH  52  55
ENDBRANCH  49  52
ENDBRANCH  47  49
BRANCH  47  72
ATOM     72  C24 non d ame     -31.454  12.988  27.480  0.00  0.00    -0.039 C 
ATOM     73  H35 non d ame     -31.139  12.393  26.623  0.00  0.00     0.036 H 
ATOM     74  H36 non d ame     -31.069  13.999  27.613  0.00  0.00     0.036 H 
BRANCH  72  75
ATOM     75  C25 non d ame     -31.072  12.160  28.797  0.00  0.00    -0.001 C 
ATOM     76  C26 non d ame     -32.410  11.422  29.402  0.00  0.00    -0.035 C 
ATOM     77  C27 non d ame     -32.516  11.721  30.719  0.00  0.00     0.085 C 
ATOM     78  H38 non d ame     -33.308  11.860  28.968  0.00  0.00     0.036 H 
ATOM     79  H39 non d ame     -32.275  10.340  29.397  0.00  0.00     0.036 H 
ATOM     80  N5  non d ame     -31.560  12.858  30.992  0.00  0.00    -0.049 N 
ATOM     81  H40 non d ame     -33.538  12.075  30.856  0.00  0.00     0.075 H 
ATOM     82  H41 non d ame     -32.172  10.833  31.248  0.00  0.00     0.075 H 
ATOM     83  C28 non d ame     -30.583  12.933  29.709  0.00  0.00     0.193 C 
ATOM     84  H42 non d ame     -32.118  13.699  31.021  0.00  0.00     0.280 HD
ATOM     85  H43 non d ame     -31.015  12.584  31.797  0.00  0.00     0.280 HD
ATOM     86  H44 non d ame     -29.564  12.550  29.767  0.00  0.00     0.129 H 
ATOM     87  H37 non d ame     -30.186  11.542  28.653  0.00  0.00     0.046 H 
BRANCH  83  88
ATOM     88  O6  non d ame     -30.459  14.284  29.262  0.00  0.00    -0.369 OA
ATOM     89  H45 non d ame     -30.518  14.311  28.303  0.00  0.00     0.212 HD
ENDBRANCH  83  88
ENDBRANCH  72  75
ENDBRANCH  47  72
ENDBRANCH  45  47
ENDBRANCH   1  43
BRANCH   1  90
ATOM     90  C16 non d ame     -36.586  10.184  25.398  0.00  0.00    -0.035 C 
ATOM     91  H21 non d ame     -36.696   9.238  24.870  0.00  0.00     0.037 H 
ATOM     92  H22 non d ame     -36.705  10.222  26.481  0.00  0.00     0.037 H 
BRANCH  90  93
ATOM     93  C17 non d ame     -37.661  11.147  24.801  0.00  0.00    -0.059 C 
ATOM     94  H23 non d ame     -38.255  11.534  25.630  0.00  0.00     0.038 H 
BRANCH  93  95
ATOM     95  C18 non d ame     -37.018  12.367  24.068  0.00  0.00    -0.073 C 
ATOM     96  H24 non d ame     -36.776  12.089  23.042  0.00  0.00     0.028 H 
ATOM     97  H25 non d ame     -37.722  13.199  24.060  0.00  0.00     0.028 H 
ATOM     98  H26 non d ame     -36.108  12.665  24.588  0.00  0.00     0.028 H 
ENDBRANCH  93  95
BRANCH  93  99
ATOM     99  C19 non d ame     -38.615  10.394  23.871  0.00  0.00    -0.073 C 
ATOM    100  H27 non d ame     -38.156  10.290  22.887  0.00  0.00     0.028 H 
ATOM    101  H28 non d ame     -38.819   9.405  24.281  0.00  0.00     0.028 H 
ATOM    102  H29 non d ame     -39.549  10.949  23.780  0.00  0.00     0.028 H 
ENDBRANCH  93  99
ENDBRANCH  90  93
ENDBRANCH   1  90
TORSDOF 26
ENDMDL
