MODEL 1
REMARK VINA RESULT:      -7.2      0.000      0.000
REMARK  26 active torsions:
REMARK  status: ('A' for Active; 'I' for Inactive)
REMARK    1  A    between atoms: C2_2  and  C3_3 
REMARK    2  A    between atoms: C4_6  and  C5_7 
REMARK       I    between atoms: C5_7  and  N2_9 
REMARK    3  A    between atoms: N2_9  and  C6_10 
REMARK    4  A    between atoms: C6_10  and  C7_11 
REMARK    5  A    between atoms: C6_10  and  C8_13 
REMARK       I    between atoms: C7_11  and  N3_14 
REMARK    6  A    between atoms: N3_14  and  C9_15 
REMARK    7  A    between atoms: C9_15  and  C10_16 
REMARK    8  A    between atoms: C9_15  and  C11_18 
REMARK       I    between atoms: C10_16  and  N4_21 
REMARK    9  A    between atoms: C11_18  and  C12_19 
REMARK   10  A    between atoms: C11_18  and  C13_20 
REMARK   11  A    between atoms: N4_21  and  C14_22 
REMARK   12  A    between atoms: C14_22  and  C15_23 
REMARK   13  A    between atoms: C14_22  and  C16_25 
REMARK       I    between atoms: C15_23  and  N6_40 
REMARK   14  A    between atoms: C16_25  and  C17_26 
REMARK   15  A    between atoms: C17_26  and  C18_27 
REMARK   16  A    between atoms: C17_26  and  C19_28 
REMARK   17  A    between atoms: C20_29  and  C21_30 
REMARK   18  A    between atoms: C20_29  and  C24_33 
REMARK   19  A    between atoms: C20_29  and  N6_40 
REMARK   20  A    between atoms: C21_30  and  C22_31 
REMARK   21  A    between atoms: C22_31  and  C23_32 
REMARK   22  A    between atoms: C23_32  and  O8_43 
REMARK   23  A    between atoms: C24_33  and  C25_34 
REMARK   24  A    between atoms: C28_38  and  O6_39 
REMARK   25  A    between atoms: C29_42  and  O8_43 
REMARK   26  A    between atoms: C29_42  and  C35_49 
ROOT
ATOM      1  C14 non d ame     -33.010  10.213  25.427  0.00  0.00     0.089 C 
ATOM      2  H20 non d ame     -33.675  10.287  24.566  0.00  0.00     0.087 H 
ENDROOT
BRANCH   1   3
ATOM      3  N4  non d ame     -32.423   8.882  25.414  0.00  0.00    -0.346 N 
ATOM      4  C10 non d ame     -33.145   7.737  24.751  0.00  0.00     0.241 C 
ATOM      5  O4  non d ame     -34.199   7.910  24.234  0.00  0.00    -0.271 OA
ATOM      6  H19 non d ame     -31.526   8.754  25.862  0.00  0.00     0.163 HD
BRANCH   4   7
ATOM      7  C9  non d ame     -32.521   6.366  24.744  0.00  0.00     0.092 C 
ATOM      8  H11 non d ame     -31.454   6.456  24.948  0.00  0.00     0.088 H 
BRANCH   7   9
ATOM      9  N3  non d ame     -33.101   5.558  25.821  0.00  0.00    -0.346 N 
ATOM     10  C7  non d ame     -32.687   5.772  27.185  0.00  0.00     0.240 C 
ATOM     11  O3  non d ame     -31.887   6.590  27.435  0.00  0.00    -0.271 OA
ATOM     12  H10 non d ame     -33.791   4.848  25.620  0.00  0.00     0.163 HD
BRANCH  10  13
ATOM     13  C6  non d ame     -33.306   4.908  28.327  0.00  0.00     0.086 C 
ATOM     14  H6  non d ame     -32.658   4.837  29.201  0.00  0.00     0.086 H 
BRANCH  13  15
ATOM     15  N2  non d ame     -34.540   5.531  28.774  0.00  0.00    -0.343 N 
ATOM     16  C5  non d ame     -34.887   5.507  30.197  0.00  0.00     0.273 C 
ATOM     17  O2  non d ame     -34.167   4.982  30.974  0.00  0.00    -0.266 OA
ATOM     18  H5  non d ame     -35.151   5.975  28.103  0.00  0.00     0.163 HD
BRANCH  16  19
ATOM     19  C4  non d ame     -36.189   6.163  30.683  0.00  0.00     0.154 A 
ATOM     20  C1  non d ame     -36.500   7.559  30.701  0.00  0.00    -0.017 A 
ATOM     21  C2  non d ame     -37.805   7.633  31.235  0.00  0.00     0.077 A 
ATOM     22  H1  non d ame     -35.874   8.390  30.376  0.00  0.00     0.091 H 
ATOM     23  O1  non d ame     -38.191   6.418  31.489  0.00  0.00    -0.218 OA
ATOM     24  N1  non d ame     -37.264   5.541  31.175  0.00  0.00    -0.123 NA
BRANCH  21  25
ATOM     25  C3  non d ame     -38.613   8.903  31.468  0.00  0.00    -0.029 C 
ATOM     26  H2  non d ame     -38.453   9.593  30.640  0.00  0.00     0.036 H 
ATOM     27  H3  non d ame     -39.673   8.654  31.531  0.00  0.00     0.036 H 
ATOM     28  H4  non d ame     -38.294   9.372  32.399  0.00  0.00     0.036 H 
ENDBRANCH  21  25
ENDBRANCH  16  19
ENDBRANCH  13  15
BRANCH  13  29
ATOM     29  C8  non d ame     -33.584   3.518  27.814  0.00  0.00    -0.049 C 
ATOM     30  H7  non d ame     -32.734   2.873  28.032  0.00  0.00     0.030 H 
ATOM     31  H8  non d ame     -34.474   3.121  28.302  0.00  0.00     0.030 H 
ATOM     32  H9  non d ame     -33.746   3.554  26.736  0.00  0.00     0.030 H 
ENDBRANCH  13  29
ENDBRANCH  10  13
ENDBRANCH   7   9
BRANCH   7  33
ATOM     33  C11 non d ame     -32.799   5.677  23.375  0.00  0.00    -0.033 C 
ATOM     34  H12 non d ame     -33.690   6.139  22.950  0.00  0.00     0.042 H 
BRANCH  33  35
ATOM     35  C12 non d ame     -31.626   5.911  22.373  0.00  0.00    -0.071 C 
ATOM     36  H13 non d ame     -30.923   6.628  22.797  0.00  0.00     0.028 H 
ATOM     37  H14 non d ame     -31.114   4.968  22.185  0.00  0.00     0.028 H 
ATOM     38  H15 non d ame     -32.022   6.303  21.436  0.00  0.00     0.028 H 
ENDBRANCH  33  35
BRANCH  33  39
ATOM     39  C13 non d ame     -33.088   4.154  23.564  0.00  0.00    -0.071 C 
ATOM     40  H16 non d ame     -32.173   3.645  23.868  0.00  0.00     0.028 H 
ATOM     41  H17 non d ame     -33.851   4.020  24.332  0.00  0.00     0.028 H 
ATOM     42  H18 non d ame     -33.443   3.731  22.624  0.00  0.00     0.028 H 
ENDBRANCH  33  39
ENDBRANCH   7  33
ENDBRANCH   4   7
ENDBRANCH   1   3
BRANCH   1  43
ATOM     43  C15 non d ame     -31.861  11.261  25.372  0.00  0.00     0.240 C 
ATOM     44  O5  non d ame     -30.801  11.001  25.842  0.00  0.00    -0.271 OA
ATOM     45  N6  non d ame     -32.080  12.586  24.725  0.00  0.00    -0.355 N 
ATOM     46  H46 non d ame     -32.975  12.817  24.317  0.00  0.00     0.162 HD
BRANCH  45  47
ATOM     47  C20 non d ame     -30.977  13.571  24.681  0.00  0.00     0.013 C 
ATOM     48  H30 non d ame     -30.175  13.204  25.321  0.00  0.00     0.072 H 
BRANCH  47  49
ATOM     49  C21 non d ame     -31.477  14.904  25.188  0.00  0.00    -0.038 C 
ATOM     50  H31 non d ame     -30.781  15.199  25.975  0.00  0.00     0.036 H 
ATOM     51  H32 non d ame     -31.596  15.530  24.303  0.00  0.00     0.036 H 
BRANCH  49  52
ATOM     52  C22 non d ame     -32.870  14.811  25.848  0.00  0.00     0.018 C 
ATOM     53  H33 non d ame     -33.329  15.788  25.708  0.00  0.00     0.048 H 
ATOM     54  H34 non d ame     -33.337  13.922  25.424  0.00  0.00     0.048 H 
BRANCH  52  55
ATOM     55  C23 non d ame     -32.820  14.577  27.384  0.00  0.00     0.259 C 
ATOM     56  O7  non d ame     -32.432  13.543  27.824  0.00  0.00    -0.265 OA
BRANCH  55  57
ATOM     57  O8  non d ame     -33.258  15.608  28.261  0.00  0.00    -0.317 OA
BRANCH  57  58
ATOM     58  C29 non d ame     -34.432  16.292  27.814  0.00  0.00     0.052 C 
ATOM     59  H47 non d ame     -34.717  15.810  26.879  0.00  0.00     0.082 H 
ATOM     60  H48 non d ame     -35.117  16.288  28.662  0.00  0.00     0.082 H 
BRANCH  58  61
ATOM     61  C35 non d ame     -34.042  17.763  27.509  0.00  0.00    -0.034 A 
ATOM     62  C30 non d ame     -35.033  18.718  27.300  0.00  0.00    -0.075 A 
ATOM     63  C31 non d ame     -34.682  20.039  27.026  0.00  0.00    -0.082 A 
ATOM     64  H49 non d ame     -36.083  18.431  27.351  0.00  0.00     0.084 H 
ATOM     65  C32 non d ame     -33.335  20.404  26.959  0.00  0.00    -0.083 A 
ATOM     66  H50 non d ame     -35.461  20.786  26.864  0.00  0.00     0.083 H 
ATOM     67  C33 non d ame     -32.350  19.447  27.164  0.00  0.00    -0.082 A 
ATOM     68  H51 non d ame     -33.052  21.436  26.746  0.00  0.00     0.083 H 
ATOM     69  C34 non d ame     -32.696  18.126  27.440  0.00  0.00    -0.075 A 
ATOM     70  H52 non d ame     -31.299  19.735  27.109  0.00  0.00     0.083 H 
ATOM     71  H53 non d ame     -31.917  17.381  27.602  0.00  0.00     0.084 H 
ENDBRANCH  58  61
ENDBRANCH  57  58
ENDBRANCH  55  57
ENDBRANCH  52  55
ENDBRANCH  49  52
ENDBRANCH  47  49
BRANCH  47  72
ATOM     72  C24 non d ame     -30.480  13.725  23.245  0.00  0.00    -0.039 C 
ATOM     73  H35 non d ame     -29.512  13.222  23.218  0.00  0.00     0.036 H 
ATOM     74  H36 non d ame     -31.296  13.369  22.615  0.00  0.00     0.036 H 
BRANCH  72  75
ATOM     75  C25 non d ame     -30.226  15.260  22.866  0.00  0.00    -0.001 C 
ATOM     76  C26 non d ame     -31.311  15.743  21.730  0.00  0.00    -0.035 C 
ATOM     77  C27 non d ame     -30.642  16.321  20.704  0.00  0.00     0.085 C 
ATOM     78  H38 non d ame     -31.783  14.875  21.270  0.00  0.00     0.036 H 
ATOM     79  H39 non d ame     -31.927  16.554  22.121  0.00  0.00     0.036 H 
ATOM     80  N5  non d ame     -29.181  15.983  20.885  0.00  0.00    -0.049 N 
ATOM     81  H40 non d ame     -31.012  15.832  19.803  0.00  0.00     0.075 H 
ATOM     82  H41 non d ame     -30.777  17.394  20.836  0.00  0.00     0.075 H 
ATOM     83  C28 non d ame     -29.036  15.435  22.396  0.00  0.00     0.193 C 
ATOM     84  H42 non d ame     -28.982  15.226  20.248  0.00  0.00     0.280 HD
ATOM     85  H43 non d ame     -28.676  16.855  20.808  0.00  0.00     0.280 HD
ATOM     86  H44 non d ame     -28.607  16.066  23.175  0.00  0.00     0.129 H 
ATOM     87  H37 non d ame     -30.119  15.890  23.749  0.00  0.00     0.046 H 
BRANCH  83  88
ATOM     88  O6  non d ame     -28.268  14.231  22.412  0.00  0.00    -0.369 OA
ATOM     89  H45 non d ame     -27.463  14.358  21.903  0.00  0.00     0.212 HD
ENDBRANCH  83  88
ENDBRANCH  72  75
ENDBRANCH  47  72
ENDBRANCH  45  47
ENDBRANCH   1  43
BRANCH   1  90
ATOM     90  C16 non d ame     -33.806  10.394  26.709  0.00  0.00    -0.035 C 
ATOM     91  H21 non d ame     -33.791   9.421  27.197  0.00  0.00     0.037 H 
ATOM     92  H22 non d ame     -33.364  11.260  27.203  0.00  0.00     0.037 H 
BRANCH  90  93
ATOM     93  C17 non d ame     -35.310  10.743  26.468  0.00  0.00    -0.059 C 
ATOM     94  H23 non d ame     -35.904   9.894  26.806  0.00  0.00     0.038 H 
BRANCH  93  95
ATOM     95  C18 non d ame     -35.763  11.995  27.285  0.00  0.00    -0.073 C 
ATOM     96  H24 non d ame     -35.981  12.816  26.601  0.00  0.00     0.028 H 
ATOM     97  H25 non d ame     -36.658  11.752  27.856  0.00  0.00     0.028 H 
ATOM     98  H26 non d ame     -34.966  12.292  27.966  0.00  0.00     0.028 H 
ENDBRANCH  93  95
BRANCH  93  99
ATOM     99  C19 non d ame     -35.595  10.934  24.976  0.00  0.00    -0.073 C 
ATOM    100  H27 non d ame     -35.601   9.962  24.480  0.00  0.00     0.028 H 
ATOM    101  H28 non d ame     -36.566  11.411  24.849  0.00  0.00     0.028 H 
ATOM    102  H29 non d ame     -34.821  11.562  24.536  0.00  0.00     0.028 H 
ENDBRANCH  93  99
ENDBRANCH  90  93
ENDBRANCH   1  90
TORSDOF 26
ENDMDL
MODEL 2
REMARK VINA RESULT:      -7.2      2.259      5.046
REMARK  26 active torsions:
REMARK  status: ('A' for Active; 'I' for Inactive)
REMARK    1  A    between atoms: C2_2  and  C3_3 
REMARK    2  A    between atoms: C4_6  and  C5_7 
REMARK       I    between atoms: C5_7  and  N2_9 
REMARK    3  A    between atoms: N2_9  and  C6_10 
REMARK    4  A    between atoms: C6_10  and  C7_11 
REMARK    5  A    between atoms: C6_10  and  C8_13 
REMARK       I    between atoms: C7_11  and  N3_14 
REMARK    6  A    between atoms: N3_14  and  C9_15 
REMARK    7  A    between atoms: C9_15  and  C10_16 
REMARK    8  A    between atoms: C9_15  and  C11_18 
REMARK       I    between atoms: C10_16  and  N4_21 
REMARK    9  A    between atoms: C11_18  and  C12_19 
REMARK   10  A    between atoms: C11_18  and  C13_20 
REMARK   11  A    between atoms: N4_21  and  C14_22 
REMARK   12  A    between atoms: C14_22  and  C15_23 
REMARK   13  A    between atoms: C14_22  and  C16_25 
REMARK       I    between atoms: C15_23  and  N6_40 
REMARK   14  A    between atoms: C16_25  and  C17_26 
REMARK   15  A    between atoms: C17_26  and  C18_27 
REMARK   16  A    between atoms: C17_26  and  C19_28 
REMARK   17  A    between atoms: C20_29  and  C21_30 
REMARK   18  A    between atoms: C20_29  and  C24_33 
REMARK   19  A    between atoms: C20_29  and  N6_40 
REMARK   20  A    between atoms: C21_30  and  C22_31 
REMARK   21  A    between atoms: C22_31  and  C23_32 
REMARK   22  A    between atoms: C23_32  and  O8_43 
REMARK   23  A    between atoms: C24_33  and  C25_34 
REMARK   24  A    between atoms: C28_38  and  O6_39 
REMARK   25  A    between atoms: C29_42  and  O8_43 
REMARK   26  A    between atoms: C29_42  and  C35_49 
ROOT
ATOM      1  C14 non d ame     -32.393   9.671  24.262  0.00  0.00     0.089 C 
ATOM      2  H20 non d ame     -32.153   8.834  24.919  0.00  0.00     0.087 H 
ENDROOT
BRANCH   1   3
ATOM      3  N4  non d ame     -33.710  10.160  24.639  0.00  0.00    -0.346 N 
ATOM      4  C10 non d ame     -34.540   9.413  25.651  0.00  0.00     0.241 C 
ATOM      5  O4  non d ame     -34.127   8.417  26.149  0.00  0.00    -0.271 OA
ATOM      6  H19 non d ame     -34.045  11.007  24.202  0.00  0.00     0.163 HD
BRANCH   4   7
ATOM      7  C9  non d ame     -35.900   9.936  26.033  0.00  0.00     0.092 C 
ATOM      8  H11 non d ame     -36.665   9.353  25.521  0.00  0.00     0.088 H 
BRANCH   7   9
ATOM      9  N3  non d ame     -36.108   9.754  27.473  0.00  0.00    -0.346 N 
ATOM     10  C7  non d ame     -37.260   9.029  27.949  0.00  0.00     0.240 C 
ATOM     11  O3  non d ame     -38.030   8.585  27.187  0.00  0.00    -0.271 OA
ATOM     12  H10 non d ame     -35.452  10.133  28.142  0.00  0.00     0.163 HD
BRANCH  10  13
ATOM     13  C6  non d ame     -37.477   8.841  29.482  0.00  0.00     0.086 C 
ATOM     14  H6  non d ame     -38.401   8.313  29.715  0.00  0.00     0.086 H 
BRANCH  13  15
ATOM     15  N2  non d ame     -36.392   8.036  30.018  0.00  0.00    -0.343 N 
ATOM     16  C5  non d ame     -36.465   6.577  29.930  0.00  0.00     0.273 C 
ATOM     17  O2  non d ame     -37.403   6.059  29.430  0.00  0.00    -0.266 OA
ATOM     18  H5  non d ame     -35.596   8.487  30.446  0.00  0.00     0.163 HD
BRANCH  16  19
ATOM     19  C4  non d ame     -35.324   5.713  30.492  0.00  0.00     0.154 A 
ATOM     20  C1  non d ame     -34.296   5.050  29.750  0.00  0.00    -0.017 A 
ATOM     21  C2  non d ame     -33.508   4.399  30.725  0.00  0.00     0.077 A 
ATOM     22  H1  non d ame     -34.146   5.042  28.670  0.00  0.00     0.091 H 
ATOM     23  O1  non d ame     -34.029   4.665  31.886  0.00  0.00    -0.218 OA
ATOM     24  N1  non d ame     -35.090   5.431  31.776  0.00  0.00    -0.123 NA
BRANCH  21  25
ATOM     25  C3  non d ame     -32.274   3.546  30.463  0.00  0.00    -0.029 C 
ATOM     26  H2  non d ame     -31.843   3.230  31.413  0.00  0.00     0.036 H 
ATOM     27  H3  non d ame     -32.556   2.666  29.884  0.00  0.00     0.036 H 
ATOM     28  H4  non d ame     -31.540   4.127  29.906  0.00  0.00     0.036 H 
ENDBRANCH  21  25
ENDBRANCH  16  19
ENDBRANCH  13  15
BRANCH  13  29
ATOM     29  C8  non d ame     -37.503  10.189  30.157  0.00  0.00    -0.049 C 
ATOM     30  H7  non d ame     -37.141  10.090  31.180  0.00  0.00     0.030 H 
ATOM     31  H8  non d ame     -36.863  10.882  29.612  0.00  0.00     0.030 H 
ATOM     32  H9  non d ame     -38.525  10.570  30.169  0.00  0.00     0.030 H 
ENDBRANCH  13  29
ENDBRANCH  10  13
ENDBRANCH   7   9
BRANCH   7  33
ATOM     33  C11 non d ame     -35.988  11.452  25.687  0.00  0.00    -0.033 C 
ATOM     34  H12 non d ame     -35.090  11.714  25.127  0.00  0.00     0.042 H 
BRANCH  33  35
ATOM     35  C12 non d ame     -37.216  11.755  24.773  0.00  0.00    -0.071 C 
ATOM     36  H13 non d ame     -37.503  10.850  24.237  0.00  0.00     0.028 H 
ATOM     37  H14 non d ame     -38.050  12.094  25.386  0.00  0.00     0.028 H 
ATOM     38  H15 non d ame     -36.952  12.532  24.055  0.00  0.00     0.028 H 
ENDBRANCH  33  35
BRANCH  33  39
ATOM     39  C13 non d ame     -36.018  12.321  26.984  0.00  0.00    -0.071 C 
ATOM     40  H16 non d ame     -37.050  12.457  27.307  0.00  0.00     0.028 H 
ATOM     41  H17 non d ame     -35.453  11.820  27.771  0.00  0.00     0.028 H 
ATOM     42  H18 non d ame     -35.570  13.294  26.781  0.00  0.00     0.028 H 
ENDBRANCH  33  39
ENDBRANCH   7  33
ENDBRANCH   4   7
ENDBRANCH   1   3
BRANCH   1  43
ATOM     43  C15 non d ame     -31.372  10.838  24.403  0.00  0.00     0.240 C 
ATOM     44  O5  non d ame     -30.230  10.599  24.629  0.00  0.00    -0.271 OA
ATOM     45  N6  non d ame     -31.817  12.251  24.246  0.00  0.00    -0.355 N 
ATOM     46  H46 non d ame     -32.785  12.466  24.049  0.00  0.00     0.162 HD
BRANCH  45  47
ATOM     47  C20 non d ame     -30.835  13.348  24.382  0.00  0.00     0.013 C 
ATOM     48  H30 non d ame     -30.093  13.043  25.120  0.00  0.00     0.072 H 
BRANCH  47  49
ATOM     49  C21 non d ame     -31.544  14.600  24.847  0.00  0.00    -0.038 C 
ATOM     50  H31 non d ame     -30.758  15.272  25.193  0.00  0.00     0.036 H 
ATOM     51  H32 non d ame     -32.190  14.896  24.021  0.00  0.00     0.036 H 
BRANCH  49  52
ATOM     52  C22 non d ame     -32.469  14.349  26.058  0.00  0.00     0.018 C 
ATOM     53  H33 non d ame     -33.473  14.601  25.719  0.00  0.00     0.048 H 
ATOM     54  H34 non d ame     -32.245  13.338  26.396  0.00  0.00     0.048 H 
BRANCH  52  55
ATOM     55  C23 non d ame     -32.180  15.279  27.270  0.00  0.00     0.259 C 
ATOM     56  O7  non d ame     -32.391  16.446  27.197  0.00  0.00    -0.265 OA
BRANCH  55  57
ATOM     57  O8  non d ame     -31.647  14.720  28.465  0.00  0.00    -0.317 OA
BRANCH  57  58
ATOM     58  C29 non d ame     -30.980  13.469  28.276  0.00  0.00     0.052 C 
ATOM     59  H47 non d ame     -31.010  13.278  27.204  0.00  0.00     0.082 H 
ATOM     60  H48 non d ame     -30.022  13.565  28.787  0.00  0.00     0.082 H 
BRANCH  58  61
ATOM     61  C35 non d ame     -31.810  12.371  28.995  0.00  0.00    -0.034 A 
ATOM     62  C30 non d ame     -32.273  11.271  28.280  0.00  0.00    -0.075 A 
ATOM     63  C31 non d ame     -33.019  10.285  28.925  0.00  0.00    -0.082 A 
ATOM     64  H49 non d ame     -32.054  11.180  27.217  0.00  0.00     0.084 H 
ATOM     65  C32 non d ame     -33.302  10.403  30.289  0.00  0.00    -0.083 A 
ATOM     66  H50 non d ame     -33.380   9.422  28.364  0.00  0.00     0.083 H 
ATOM     67  C33 non d ame     -32.841  11.506  30.995  0.00  0.00    -0.082 A 
ATOM     68  H51 non d ame     -33.884   9.636  30.801  0.00  0.00     0.083 H 
ATOM     69  C34 non d ame     -32.094  12.492  30.356  0.00  0.00    -0.075 A 
ATOM     70  H52 non d ame     -33.066  11.597  32.059  0.00  0.00     0.083 H 
ATOM     71  H53 non d ame     -31.733  13.354  30.918  0.00  0.00     0.084 H 
ENDBRANCH  58  61
ENDBRANCH  57  58
ENDBRANCH  55  57
ENDBRANCH  52  55
ENDBRANCH  49  52
ENDBRANCH  47  49
BRANCH  47  72
ATOM     72  C24 non d ame     -30.166  13.612  23.035  0.00  0.00    -0.039 C 
ATOM     73  H35 non d ame     -29.119  13.337  23.172  0.00  0.00     0.036 H 
ATOM     74  H36 non d ame     -30.775  13.084  22.300  0.00  0.00     0.036 H 
BRANCH  72  75
ATOM     75  C25 non d ame     -30.200  15.166  22.649  0.00  0.00    -0.001 C 
ATOM     76  C26 non d ame     -31.206  15.404  21.371  0.00  0.00    -0.035 C 
ATOM     77  C27 non d ame     -30.549  16.113  20.423  0.00  0.00     0.085 C 
ATOM     78  H38 non d ame     -31.417  14.455  20.879  0.00  0.00     0.036 H 
ATOM     79  H39 non d ame     -32.027  16.062  21.658  0.00  0.00     0.036 H 
ATOM     80  N5  non d ame     -29.085  16.098  20.797  0.00  0.00    -0.049 N 
ATOM     81  H40 non d ame     -30.685  15.556  19.496  0.00  0.00     0.075 H 
ATOM     82  H41 non d ame     -30.926  17.131  20.507  0.00  0.00     0.075 H 
ATOM     83  C28 non d ame     -29.024  15.593  22.329  0.00  0.00     0.193 C 
ATOM     84  H42 non d ame     -28.648  15.402  20.211  0.00  0.00     0.280 HD
ATOM     85  H43 non d ame     -28.773  17.058  20.761  0.00  0.00     0.280 HD
ATOM     86  H44 non d ame     -28.844  16.302  23.138  0.00  0.00     0.129 H 
ATOM     87  H37 non d ame     -30.345  15.804  23.520  0.00  0.00     0.046 H 
BRANCH  83  88
ATOM     88  O6  non d ame     -28.024  14.584  22.476  0.00  0.00    -0.369 OA
ATOM     89  H45 non d ame     -27.496  14.538  21.675  0.00  0.00     0.212 HD
ENDBRANCH  83  88
ENDBRANCH  72  75
ENDBRANCH  47  72
ENDBRANCH  45  47
ENDBRANCH   1  43
BRANCH   1  90
ATOM     90  C16 non d ame     -32.432   9.198  22.818  0.00  0.00    -0.035 C 
ATOM     91  H21 non d ame     -33.480   8.992  22.610  0.00  0.00     0.037 H 
ATOM     92  H22 non d ame     -31.902   9.963  22.250  0.00  0.00     0.037 H 
BRANCH  90  93
ATOM     93  C17 non d ame     -31.664   7.859  22.578  0.00  0.00    -0.059 C 
ATOM     94  H23 non d ame     -32.151   7.344  21.750  0.00  0.00     0.038 H 
BRANCH  93  95
ATOM     95  C18 non d ame     -30.173   8.097  22.179  0.00  0.00    -0.073 C 
ATOM     96  H24 non d ame     -30.119   8.389  21.130  0.00  0.00     0.028 H 
ATOM     97  H25 non d ame     -29.754   8.890  22.798  0.00  0.00     0.028 H 
ATOM     98  H26 non d ame     -29.605   7.179  22.330  0.00  0.00     0.028 H 
ENDBRANCH  93  95
BRANCH  93  99
ATOM     99  C19 non d ame     -31.761   6.945  23.803  0.00  0.00    -0.073 C 
ATOM    100  H27 non d ame     -30.966   6.199  23.763  0.00  0.00     0.028 H 
ATOM    101  H28 non d ame     -31.655   7.540  24.710  0.00  0.00     0.028 H 
ATOM    102  H29 non d ame     -32.729   6.445  23.807  0.00  0.00     0.028 H 
ENDBRANCH  93  99
ENDBRANCH  90  93
ENDBRANCH   1  90
TORSDOF 26
ENDMDL
MODEL 3
REMARK VINA RESULT:      -7.1      2.720      9.725
REMARK  26 active torsions:
REMARK  status: ('A' for Active; 'I' for Inactive)
REMARK    1  A    between atoms: C2_2  and  C3_3 
REMARK    2  A    between atoms: C4_6  and  C5_7 
REMARK       I    between atoms: C5_7  and  N2_9 
REMARK    3  A    between atoms: N2_9  and  C6_10 
REMARK    4  A    between atoms: C6_10  and  C7_11 
REMARK    5  A    between atoms: C6_10  and  C8_13 
REMARK       I    between atoms: C7_11  and  N3_14 
REMARK    6  A    between atoms: N3_14  and  C9_15 
REMARK    7  A    between atoms: C9_15  and  C10_16 
REMARK    8  A    between atoms: C9_15  and  C11_18 
REMARK       I    between atoms: C10_16  and  N4_21 
REMARK    9  A    between atoms: C11_18  and  C12_19 
REMARK   10  A    between atoms: C11_18  and  C13_20 
REMARK   11  A    between atoms: N4_21  and  C14_22 
REMARK   12  A    between atoms: C14_22  and  C15_23 
REMARK   13  A    between atoms: C14_22  and  C16_25 
REMARK       I    between atoms: C15_23  and  N6_40 
REMARK   14  A    between atoms: C16_25  and  C17_26 
REMARK   15  A    between atoms: C17_26  and  C18_27 
REMARK   16  A    between atoms: C17_26  and  C19_28 
REMARK   17  A    between atoms: C20_29  and  C21_30 
REMARK   18  A    between atoms: C20_29  and  C24_33 
REMARK   19  A    between atoms: C20_29  and  N6_40 
REMARK   20  A    between atoms: C21_30  and  C22_31 
REMARK   21  A    between atoms: C22_31  and  C23_32 
REMARK   22  A    between atoms: C23_32  and  O8_43 
REMARK   23  A    between atoms: C24_33  and  C25_34 
REMARK   24  A    between atoms: C28_38  and  O6_39 
REMARK   25  A    between atoms: C29_42  and  O8_43 
REMARK   26  A    between atoms: C29_42  and  C35_49 
ROOT
ATOM      1  C14 non d ame     -33.054   9.233  27.439  0.00  0.00     0.089 C 
ATOM      2  H20 non d ame     -32.048   8.813  27.408  0.00  0.00     0.087 H 
ENDROOT
BRANCH   1   3
ATOM      3  N4  non d ame     -32.932  10.642  27.781  0.00  0.00    -0.346 N 
ATOM      4  C10 non d ame     -31.803  11.467  27.217  0.00  0.00     0.241 C 
ATOM      5  O4  non d ame     -31.004  10.975  26.491  0.00  0.00    -0.271 OA
ATOM      6  H19 non d ame     -33.620  11.041  28.403  0.00  0.00     0.163 HD
BRANCH   4   7
ATOM      7  C9  non d ame     -31.694  12.926  27.578  0.00  0.00     0.092 C 
ATOM      8  H11 non d ame     -30.653  13.238  27.498  0.00  0.00     0.088 H 
BRANCH   7   9
ATOM      9  N3  non d ame     -32.462  13.726  26.619  0.00  0.00    -0.346 N 
ATOM     10  C7  non d ame     -31.791  14.363  25.513  0.00  0.00     0.240 C 
ATOM     11  O3  non d ame     -30.635  14.244  25.380  0.00  0.00    -0.271 OA
ATOM     12  H10 non d ame     -33.460  13.839  26.722  0.00  0.00     0.163 HD
BRANCH  10  13
ATOM     13  C6  non d ame     -32.613  15.216  24.498  0.00  0.00     0.086 C 
ATOM     14  H6  non d ame     -33.533  14.725  24.182  0.00  0.00     0.086 H 
BRANCH  13  15
ATOM     15  N2  non d ame     -33.004  16.462  25.135  0.00  0.00    -0.343 N 
ATOM     16  C5  non d ame     -34.282  16.540  25.845  0.00  0.00     0.273 C 
ATOM     17  O2  non d ame     -34.991  15.595  25.895  0.00  0.00    -0.266 OA
ATOM     18  H5  non d ame     -32.393  17.266  25.085  0.00  0.00     0.163 HD
BRANCH  16  19
ATOM     19  C4  non d ame     -34.707  17.851  26.524  0.00  0.00     0.154 A 
ATOM     20  C1  non d ame     -35.437  17.995  27.746  0.00  0.00    -0.017 A 
ATOM     21  C2  non d ame     -35.568  19.390  27.929  0.00  0.00     0.077 A 
ATOM     22  H1  non d ame     -35.814  17.208  28.400  0.00  0.00     0.091 H 
ATOM     23  O1  non d ame     -34.978  19.970  26.926  0.00  0.00    -0.218 OA
ATOM     24  N1  non d ame     -34.467  19.092  26.092  0.00  0.00    -0.123 NA
BRANCH  21  25
ATOM     25  C3  non d ame     -36.269  20.085  29.088  0.00  0.00    -0.029 C 
ATOM     26  H2  non d ame     -35.580  20.181  29.926  0.00  0.00     0.036 H 
ATOM     27  H3  non d ame     -36.595  21.077  28.774  0.00  0.00     0.036 H 
ATOM     28  H4  non d ame     -37.135  19.499  29.395  0.00  0.00     0.036 H 
ENDBRANCH  21  25
ENDBRANCH  16  19
ENDBRANCH  13  15
BRANCH  13  29
ATOM     29  C8  non d ame     -31.772  15.500  23.280  0.00  0.00    -0.049 C 
ATOM     30  H7  non d ame     -31.363  16.508  23.346  0.00  0.00     0.030 H 
ATOM     31  H8  non d ame     -30.955  14.781  23.226  0.00  0.00     0.030 H 
ATOM     32  H9  non d ame     -32.389  15.417  22.384  0.00  0.00     0.030 H 
ENDBRANCH  13  29
ENDBRANCH  10  13
ENDBRANCH   7   9
BRANCH   7  33
ATOM     33  C11 non d ame     -32.265  13.149  29.010  0.00  0.00    -0.033 C 
ATOM     34  H12 non d ame     -33.098  12.459  29.143  0.00  0.00     0.042 H 
BRANCH  33  35
ATOM     35  C12 non d ame     -31.202  12.818  30.103  0.00  0.00    -0.071 C 
ATOM     36  H13 non d ame     -30.212  13.106  29.747  0.00  0.00     0.028 H 
ATOM     37  H14 non d ame     -31.434  13.366  31.015  0.00  0.00     0.028 H 
ATOM     38  H15 non d ame     -31.214  11.747  30.309  0.00  0.00     0.028 H 
ENDBRANCH  33  35
BRANCH  33  39
ATOM     39  C13 non d ame     -32.812  14.603  29.173  0.00  0.00    -0.071 C 
ATOM     40  H16 non d ame     -33.556  14.800  28.402  0.00  0.00     0.028 H 
ATOM     41  H17 non d ame     -33.269  14.712  30.157  0.00  0.00     0.028 H 
ATOM     42  H18 non d ame     -31.991  15.313  29.076  0.00  0.00     0.028 H 
ENDBRANCH  33  39
ENDBRANCH   7  33
ENDBRANCH   4   7
ENDBRANCH   1   3
BRANCH   1  43
ATOM     43  C15 non d ame     -33.780   9.117  26.067  0.00  0.00     0.240 C 
ATOM     44  O5  non d ame     -34.796   9.707  25.885  0.00  0.00    -0.271 OA
ATOM     45  N6  non d ame     -33.204   8.279  24.978  0.00  0.00    -0.355 N 
ATOM     46  H46 non d ame     -32.339   7.777  25.119  0.00  0.00     0.162 HD
BRANCH  45  47
ATOM     47  C20 non d ame     -33.906   8.181  23.680  0.00  0.00     0.013 C 
ATOM     48  H30 non d ame     -34.808   8.790  23.740  0.00  0.00     0.072 H 
BRANCH  47  49
ATOM     49  C21 non d ame     -34.272   6.738  23.417  0.00  0.00    -0.038 C 
ATOM     50  H31 non d ame     -35.314   6.638  23.722  0.00  0.00     0.036 H 
ATOM     51  H32 non d ame     -33.986   6.546  22.382  0.00  0.00     0.036 H 
BRANCH  49  52
ATOM     52  C22 non d ame     -33.465   5.748  24.285  0.00  0.00     0.018 C 
ATOM     53  H33 non d ame     -33.195   4.927  23.622  0.00  0.00     0.048 H 
ATOM     54  H34 non d ame     -32.687   6.342  24.763  0.00  0.00     0.048 H 
BRANCH  52  55
ATOM     55  C23 non d ame     -34.289   5.113  25.439  0.00  0.00     0.259 C 
ATOM     56  O7  non d ame     -35.049   4.224  25.220  0.00  0.00    -0.265 OA
BRANCH  55  57
ATOM     57  O8  non d ame     -34.137   5.614  26.762  0.00  0.00    -0.317 OA
BRANCH  57  58
ATOM     58  C29 non d ame     -34.158   4.603  27.774  0.00  0.00     0.052 C 
ATOM     59  H47 non d ame     -34.634   3.736  27.315  0.00  0.00     0.082 H 
ATOM     60  H48 non d ame     -33.136   4.533  28.144  0.00  0.00     0.082 H 
BRANCH  58  61
ATOM     61  C35 non d ame     -35.064   5.105  28.931  0.00  0.00    -0.034 A 
ATOM     62  C30 non d ame     -34.528   5.297  30.201  0.00  0.00    -0.075 A 
ATOM     63  C31 non d ame     -35.341   5.746  31.241  0.00  0.00    -0.082 A 
ATOM     64  H49 non d ame     -33.472   5.094  30.382  0.00  0.00     0.084 H 
ATOM     65  C32 non d ame     -36.694   6.003  31.007  0.00  0.00    -0.083 A 
ATOM     66  H50 non d ame     -34.918   5.898  32.235  0.00  0.00     0.083 H 
ATOM     67  C33 non d ame     -37.225   5.806  29.739  0.00  0.00    -0.082 A 
ATOM     68  H51 non d ame     -37.337   6.356  31.814  0.00  0.00     0.083 H 
ATOM     69  C34 non d ame     -36.416   5.358  28.697  0.00  0.00    -0.075 A 
ATOM     70  H52 non d ame     -38.283   6.005  29.561  0.00  0.00     0.083 H 
ATOM     71  H53 non d ame     -36.839   5.208  27.704  0.00  0.00     0.084 H 
ENDBRANCH  58  61
ENDBRANCH  57  58
ENDBRANCH  55  57
ENDBRANCH  52  55
ENDBRANCH  49  52
ENDBRANCH  47  49
BRANCH  47  72
ATOM     72  C24 non d ame     -32.998   8.690  22.562  0.00  0.00    -0.039 C 
ATOM     73  H35 non d ame     -33.132   7.988  21.738  0.00  0.00     0.036 H 
ATOM     74  H36 non d ame     -33.259   9.740  22.431  0.00  0.00     0.036 H 
BRANCH  72  75
ATOM     75  C25 non d ame     -31.453   8.635  22.982  0.00  0.00    -0.001 C 
ATOM     76  C26 non d ame     -30.842  10.159  23.066  0.00  0.00    -0.035 C 
ATOM     77  C27 non d ame     -29.704  10.215  22.333  0.00  0.00     0.085 C 
ATOM     78  H38 non d ame     -31.507  10.857  22.559  0.00  0.00     0.036 H 
ATOM     79  H39 non d ame     -30.501  10.370  24.080  0.00  0.00     0.036 H 
ATOM     80  N5  non d ame     -29.660   8.961  21.492  0.00  0.00    -0.049 N 
ATOM     81  H40 non d ame     -29.822  11.078  21.678  0.00  0.00     0.075 H 
ATOM     82  H41 non d ame     -28.890  10.186  23.055  0.00  0.00     0.075 H 
ATOM     83  C28 non d ame     -30.760   7.963  22.125  0.00  0.00     0.193 C 
ATOM     84  H42 non d ame     -29.963   9.227  20.566  0.00  0.00     0.280 HD
ATOM     85  H43 non d ame     -28.744   8.559  21.628  0.00  0.00     0.280 HD
ATOM     86  H44 non d ame     -30.449   7.118  22.741  0.00  0.00     0.129 H 
ATOM     87  H37 non d ame     -31.281   7.984  23.839  0.00  0.00     0.046 H 
BRANCH  83  88
ATOM     88  O6  non d ame     -31.573   7.405  21.092  0.00  0.00    -0.369 OA
ATOM     89  H45 non d ame     -32.092   6.680  21.449  0.00  0.00     0.212 HD
ENDBRANCH  83  88
ENDBRANCH  72  75
ENDBRANCH  47  72
ENDBRANCH  45  47
ENDBRANCH   1  43
BRANCH   1  90
ATOM     90  C16 non d ame     -33.872   8.530  28.510  0.00  0.00    -0.035 C 
ATOM     91  H21 non d ame     -34.611   7.941  27.969  0.00  0.00     0.037 H 
ATOM     92  H22 non d ame     -33.143   8.035  29.152  0.00  0.00     0.037 H 
BRANCH  90  93
ATOM     93  C17 non d ame     -34.675   9.508  29.427  0.00  0.00    -0.059 C 
ATOM     94  H23 non d ame     -34.380  10.524  29.164  0.00  0.00     0.038 H 
BRANCH  93  95
ATOM     95  C18 non d ame     -36.217   9.388  29.210  0.00  0.00    -0.073 C 
ATOM     96  H24 non d ame     -36.634  10.375  29.010  0.00  0.00     0.028 H 
ATOM     97  H25 non d ame     -36.414   8.733  28.361  0.00  0.00     0.028 H 
ATOM     98  H26 non d ame     -36.679   8.973  30.105  0.00  0.00     0.028 H 
ENDBRANCH  93  95
BRANCH  93  99
ATOM     99  C19 non d ame     -34.314   9.296  30.900  0.00  0.00    -0.073 C 
ATOM    100  H27 non d ame     -33.278   9.593  31.067  0.00  0.00     0.028 H 
ATOM    101  H28 non d ame     -34.970   9.902  31.526  0.00  0.00     0.028 H 
ATOM    102  H29 non d ame     -34.437   8.244  31.157  0.00  0.00     0.028 H 
ENDBRANCH  93  99
ENDBRANCH  90  93
ENDBRANCH   1  90
TORSDOF 26
ENDMDL
MODEL 4
REMARK VINA RESULT:      -7.1      2.593      4.785
REMARK  26 active torsions:
REMARK  status: ('A' for Active; 'I' for Inactive)
REMARK    1  A    between atoms: C2_2  and  C3_3 
REMARK    2  A    between atoms: C4_6  and  C5_7 
REMARK       I    between atoms: C5_7  and  N2_9 
REMARK    3  A    between atoms: N2_9  and  C6_10 
REMARK    4  A    between atoms: C6_10  and  C7_11 
REMARK    5  A    between atoms: C6_10  and  C8_13 
REMARK       I    between atoms: C7_11  and  N3_14 
REMARK    6  A    between atoms: N3_14  and  C9_15 
REMARK    7  A    between atoms: C9_15  and  C10_16 
REMARK    8  A    between atoms: C9_15  and  C11_18 
REMARK       I    between atoms: C10_16  and  N4_21 
REMARK    9  A    between atoms: C11_18  and  C12_19 
REMARK   10  A    between atoms: C11_18  and  C13_20 
REMARK   11  A    between atoms: N4_21  and  C14_22 
REMARK   12  A    between atoms: C14_22  and  C15_23 
REMARK   13  A    between atoms: C14_22  and  C16_25 
REMARK       I    between atoms: C15_23  and  N6_40 
REMARK   14  A    between atoms: C16_25  and  C17_26 
REMARK   15  A    between atoms: C17_26  and  C18_27 
REMARK   16  A    between atoms: C17_26  and  C19_28 
REMARK   17  A    between atoms: C20_29  and  C21_30 
REMARK   18  A    between atoms: C20_29  and  C24_33 
REMARK   19  A    between atoms: C20_29  and  N6_40 
REMARK   20  A    between atoms: C21_30  and  C22_31 
REMARK   21  A    between atoms: C22_31  and  C23_32 
REMARK   22  A    between atoms: C23_32  and  O8_43 
REMARK   23  A    between atoms: C24_33  and  C25_34 
REMARK   24  A    between atoms: C28_38  and  O6_39 
REMARK   25  A    between atoms: C29_42  and  O8_43 
REMARK   26  A    between atoms: C29_42  and  C35_49 
ROOT
ATOM      1  C14 non d ame     -32.475   8.860  23.439  0.00  0.00     0.089 C 
ATOM      2  H20 non d ame     -32.245   7.973  24.029  0.00  0.00     0.087 H 
ENDROOT
BRANCH   1   3
ATOM      3  N4  non d ame     -33.741   9.392  23.922  0.00  0.00    -0.346 N 
ATOM      4  C10 non d ame     -34.460   8.725  25.067  0.00  0.00     0.241 C 
ATOM      5  O4  non d ame     -34.002   7.758  25.582  0.00  0.00    -0.271 OA
ATOM      6  H19 non d ame     -34.115  10.213  23.469  0.00  0.00     0.163 HD
BRANCH   4   7
ATOM      7  C9  non d ame     -35.766   9.291  25.558  0.00  0.00     0.092 C 
ATOM      8  H11 non d ame     -36.505   8.492  25.615  0.00  0.00     0.088 H 
BRANCH   7   9
ATOM      9  N3  non d ame     -35.592   9.818  26.915  0.00  0.00    -0.346 N 
ATOM     10  C7  non d ame     -36.177   9.127  28.037  0.00  0.00     0.240 C 
ATOM     11  O3  non d ame     -36.792   8.145  27.866  0.00  0.00    -0.271 OA
ATOM     12  H10 non d ame     -35.065  10.664  27.077  0.00  0.00     0.163 HD
BRANCH  10  13
ATOM     13  C6  non d ame     -35.991   9.693  29.478  0.00  0.00     0.086 C 
ATOM     14  H6  non d ame     -35.704   8.927  30.198  0.00  0.00     0.086 H 
BRANCH  13  15
ATOM     15  N2  non d ame     -34.918  10.674  29.465  0.00  0.00    -0.343 N 
ATOM     16  C5  non d ame     -33.798  10.530  30.396  0.00  0.00     0.273 C 
ATOM     17  O2  non d ame     -33.769   9.624  31.155  0.00  0.00    -0.266 OA
ATOM     18  H5  non d ame     -34.952  11.447  28.815  0.00  0.00     0.163 HD
BRANCH  16  19
ATOM     19  C4  non d ame     -32.656  11.560  30.392  0.00  0.00     0.154 A 
ATOM     20  C1  non d ame     -32.663  12.856  29.786  0.00  0.00    -0.017 A 
ATOM     21  C2  non d ame     -31.388  13.394  30.066  0.00  0.00     0.077 A 
ATOM     22  H1  non d ame     -33.470  13.332  29.229  0.00  0.00     0.091 H 
ATOM     23  O1  non d ame     -30.734  12.505  30.754  0.00  0.00    -0.218 OA
ATOM     24  N1  non d ame     -31.453  11.426  30.957  0.00  0.00    -0.123 NA
BRANCH  21  25
ATOM     25  C3  non d ame     -30.874  14.764  29.643  0.00  0.00    -0.029 C 
ATOM     26  H2  non d ame     -29.846  14.887  29.980  0.00  0.00     0.036 H 
ATOM     27  H3  non d ame     -30.911  14.846  28.556  0.00  0.00     0.036 H 
ATOM     28  H4  non d ame     -31.498  15.540  30.086  0.00  0.00     0.036 H 
ENDBRANCH  21  25
ENDBRANCH  16  19
ENDBRANCH  13  15
BRANCH  13  29
ATOM     29  C8  non d ame     -37.274  10.337  29.938  0.00  0.00    -0.049 C 
ATOM     30  H7  non d ame     -37.798  10.756  29.080  0.00  0.00     0.030 H 
ATOM     31  H8  non d ame     -37.905   9.589  30.418  0.00  0.00     0.030 H 
ATOM     32  H9  non d ame     -37.047  11.132  30.650  0.00  0.00     0.030 H 
ENDBRANCH  13  29
ENDBRANCH  10  13
ENDBRANCH   7   9
BRANCH   7  33
ATOM     33  C11 non d ame     -36.220  10.443  24.612  0.00  0.00    -0.033 C 
ATOM     34  H12 non d ame     -35.471  10.537  23.826  0.00  0.00     0.042 H 
BRANCH  33  35
ATOM     35  C12 non d ame     -37.581  10.111  23.926  0.00  0.00    -0.071 C 
ATOM     36  H13 non d ame     -37.408   9.857  22.880  0.00  0.00     0.028 H 
ATOM     37  H14 non d ame     -38.048   9.267  24.432  0.00  0.00     0.028 H 
ATOM     38  H15 non d ame     -38.238  10.978  23.984  0.00  0.00     0.028 H 
ENDBRANCH  33  35
BRANCH  33  39
ATOM     39  C13 non d ame     -36.288  11.802  25.379  0.00  0.00    -0.071 C 
ATOM     40  H16 non d ame     -36.934  11.696  26.250  0.00  0.00     0.028 H 
ATOM     41  H17 non d ame     -35.286  12.089  25.702  0.00  0.00     0.028 H 
ATOM     42  H18 non d ame     -36.690  12.571  24.720  0.00  0.00     0.028 H 
ENDBRANCH  33  39
ENDBRANCH   7  33
ENDBRANCH   4   7
ENDBRANCH   1   3
BRANCH   1  43
ATOM     43  C15 non d ame     -31.386   9.962  23.585  0.00  0.00     0.240 C 
ATOM     44  O5  non d ame     -30.256   9.717  23.311  0.00  0.00    -0.271 OA
ATOM     45  N6  non d ame     -31.754  11.327  24.059  0.00  0.00    -0.355 N 
ATOM     46  H46 non d ame     -32.712  11.549  24.291  0.00  0.00     0.162 HD
BRANCH  45  47
ATOM     47  C20 non d ame     -30.707  12.363  24.192  0.00  0.00     0.013 C 
ATOM     48  H30 non d ame     -29.811  11.884  24.586  0.00  0.00     0.072 H 
BRANCH  47  49
ATOM     49  C21 non d ame     -31.183  13.435  25.146  0.00  0.00    -0.038 C 
ATOM     50  H31 non d ame     -30.516  13.381  26.007  0.00  0.00     0.036 H 
ATOM     51  H32 non d ame     -31.238  14.350  24.556  0.00  0.00     0.036 H 
BRANCH  49  52
ATOM     52  C22 non d ame     -32.608  13.173  25.680  0.00  0.00     0.018 C 
ATOM     53  H33 non d ame     -33.150  12.707  24.858  0.00  0.00     0.048 H 
ATOM     54  H34 non d ame     -32.477  12.637  26.620  0.00  0.00     0.048 H 
BRANCH  52  55
ATOM     55  C23 non d ame     -33.393  14.467  26.031  0.00  0.00     0.259 C 
ATOM     56  O7  non d ame     -34.417  14.720  25.482  0.00  0.00    -0.265 OA
BRANCH  55  57
ATOM     57  O8  non d ame     -32.867  15.357  27.009  0.00  0.00    -0.317 OA
BRANCH  57  58
ATOM     58  C29 non d ame     -33.864  16.098  27.719  0.00  0.00     0.052 C 
ATOM     59  H47 non d ame     -34.820  15.784  27.299  0.00  0.00     0.082 H 
ATOM     60  H48 non d ame     -33.654  15.940  28.775  0.00  0.00     0.082 H 
BRANCH  58  61
ATOM     61  C35 non d ame     -33.659  17.603  27.399  0.00  0.00    -0.034 A 
ATOM     62  C30 non d ame     -32.686  18.332  28.077  0.00  0.00    -0.075 A 
ATOM     63  C31 non d ame     -32.502  19.685  27.791  0.00  0.00    -0.082 A 
ATOM     64  H49 non d ame     -32.069  17.846  28.832  0.00  0.00     0.084 H 
ATOM     65  C32 non d ame     -33.296  20.308  26.824  0.00  0.00    -0.083 A 
ATOM     66  H50 non d ame     -31.738  20.253  28.322  0.00  0.00     0.083 H 
ATOM     67  C33 non d ame     -34.267  19.577  26.154  0.00  0.00    -0.082 A 
ATOM     68  H51 non d ame     -33.158  21.365  26.594  0.00  0.00     0.083 H 
ATOM     69  C34 non d ame     -34.454  18.225  26.435  0.00  0.00    -0.075 A 
ATOM     70  H52 non d ame     -34.887  20.067  25.401  0.00  0.00     0.083 H 
ATOM     71  H53 non d ame     -35.218  17.658  25.903  0.00  0.00     0.084 H 
ENDBRANCH  58  61
ENDBRANCH  57  58
ENDBRANCH  55  57
ENDBRANCH  52  55
ENDBRANCH  49  52
ENDBRANCH  47  49
BRANCH  47  72
ATOM     72  C24 non d ame     -30.420  12.984  22.827  0.00  0.00    -0.039 C 
ATOM     73  H35 non d ame     -29.478  12.541  22.500  0.00  0.00     0.036 H 
ATOM     74  H36 non d ame     -31.326  12.831  22.242  0.00  0.00     0.036 H 
BRANCH  72  75
ATOM     75  C25 non d ame     -30.186  14.566  22.933  0.00  0.00    -0.001 C 
ATOM     76  C26 non d ame     -31.389  15.363  22.146  0.00  0.00    -0.035 C 
ATOM     77  C27 non d ame     -30.835  16.253  21.288  0.00  0.00     0.085 C 
ATOM     78  H38 non d ame     -31.926  14.678  21.491  0.00  0.00     0.036 H 
ATOM     79  H39 non d ame     -31.941  15.993  22.845  0.00  0.00     0.036 H 
ATOM     80  N5  non d ame     -29.369  15.906  21.179  0.00  0.00    -0.049 N 
ATOM     81  H40 non d ame     -31.317  16.069  20.327  0.00  0.00     0.075 H 
ATOM     82  H41 non d ame     -30.936  17.224  21.770  0.00  0.00     0.075 H 
ATOM     83  C28 non d ame     -29.057  14.907  22.407  0.00  0.00     0.193 C 
ATOM     84  H42 non d ame     -29.260  15.397  20.314  0.00  0.00     0.280 HD
ATOM     85  H43 non d ame     -28.862  16.767  21.326  0.00  0.00     0.280 HD
ATOM     86  H44 non d ame     -28.528  15.266  23.291  0.00  0.00     0.129 H 
ATOM     87  H37 non d ame     -29.964  14.883  23.952  0.00  0.00     0.046 H 
BRANCH  83  88
ATOM     88  O6  non d ame     -28.313  13.778  21.948  0.00  0.00    -0.369 OA
ATOM     89  H45 non d ame     -27.504  13.697  22.460  0.00  0.00     0.212 HD
ENDBRANCH  83  88
ENDBRANCH  72  75
ENDBRANCH  47  72
ENDBRANCH  45  47
ENDBRANCH   1  43
BRANCH   1  90
ATOM     90  C16 non d ame     -32.623   8.480  21.974  0.00  0.00    -0.035 C 
ATOM     91  H21 non d ame     -33.690   8.323  21.823  0.00  0.00     0.037 H 
ATOM     92  H22 non d ame     -32.102   9.261  21.420  0.00  0.00     0.037 H 
BRANCH  90  93
ATOM     93  C17 non d ame     -31.923   7.134  21.604  0.00  0.00    -0.059 C 
ATOM     94  H23 non d ame     -30.907   7.366  21.286  0.00  0.00     0.038 H 
BRANCH  93  95
ATOM     95  C18 non d ame     -31.829   6.163  22.823  0.00  0.00    -0.073 C 
ATOM     96  H24 non d ame     -30.844   5.697  22.843  0.00  0.00     0.028 H 
ATOM     97  H25 non d ame     -31.984   6.722  23.746  0.00  0.00     0.028 H 
ATOM     98  H26 non d ame     -32.594   5.391  22.734  0.00  0.00     0.028 H 
ENDBRANCH  93  95
BRANCH  93  99
ATOM     99  C19 non d ame     -32.626   6.458  20.423  0.00  0.00    -0.073 C 
ATOM    100  H27 non d ame     -33.700   6.635  20.491  0.00  0.00     0.028 H 
ATOM    101  H28 non d ame     -32.249   6.873  19.488  0.00  0.00     0.028 H 
ATOM    102  H29 non d ame     -32.432   5.386  20.449  0.00  0.00     0.028 H 
ENDBRANCH  93  99
ENDBRANCH  90  93
ENDBRANCH   1  90
TORSDOF 26
ENDMDL
MODEL 5
REMARK VINA RESULT:      -7.0      2.644      9.564
REMARK  26 active torsions:
REMARK  status: ('A' for Active; 'I' for Inactive)
REMARK    1  A    between atoms: C2_2  and  C3_3 
REMARK    2  A    between atoms: C4_6  and  C5_7 
REMARK       I    between atoms: C5_7  and  N2_9 
REMARK    3  A    between atoms: N2_9  and  C6_10 
REMARK    4  A    between atoms: C6_10  and  C7_11 
REMARK    5  A    between atoms: C6_10  and  C8_13 
REMARK       I    between atoms: C7_11  and  N3_14 
REMARK    6  A    between atoms: N3_14  and  C9_15 
REMARK    7  A    between atoms: C9_15  and  C10_16 
REMARK    8  A    between atoms: C9_15  and  C11_18 
REMARK       I    between atoms: C10_16  and  N4_21 
REMARK    9  A    between atoms: C11_18  and  C12_19 
REMARK   10  A    between atoms: C11_18  and  C13_20 
REMARK   11  A    between atoms: N4_21  and  C14_22 
REMARK   12  A    between atoms: C14_22  and  C15_23 
REMARK   13  A    between atoms: C14_22  and  C16_25 
REMARK       I    between atoms: C15_23  and  N6_40 
REMARK   14  A    between atoms: C16_25  and  C17_26 
REMARK   15  A    between atoms: C17_26  and  C18_27 
REMARK   16  A    between atoms: C17_26  and  C19_28 
REMARK   17  A    between atoms: C20_29  and  C21_30 
REMARK   18  A    between atoms: C20_29  and  C24_33 
REMARK   19  A    between atoms: C20_29  and  N6_40 
REMARK   20  A    between atoms: C21_30  and  C22_31 
REMARK   21  A    between atoms: C22_31  and  C23_32 
REMARK   22  A    between atoms: C23_32  and  O8_43 
REMARK   23  A    between atoms: C24_33  and  C25_34 
REMARK   24  A    between atoms: C28_38  and  O6_39 
REMARK   25  A    between atoms: C29_42  and  O8_43 
REMARK   26  A    between atoms: C29_42  and  C35_49 
ROOT
ATOM      1  C14 non d ame     -34.069   9.227  24.268  0.00  0.00     0.089 C 
ATOM      2  H20 non d ame     -34.324   9.076  23.219  0.00  0.00     0.087 H 
ENDROOT
BRANCH   1   3
ATOM      3  N4  non d ame     -34.852  10.354  24.752  0.00  0.00    -0.346 N 
ATOM      4  C10 non d ame     -36.182  10.682  24.124  0.00  0.00     0.241 C 
ATOM      5  O4  non d ame     -36.602  10.026  23.228  0.00  0.00    -0.271 OA
ATOM      6  H19 non d ame     -34.476  10.901  25.513  0.00  0.00     0.163 HD
BRANCH   4   7
ATOM      7  C9  non d ame     -36.983  11.849  24.640  0.00  0.00     0.092 C 
ATOM      8  H11 non d ame     -37.377  11.606  25.626  0.00  0.00     0.088 H 
BRANCH   7   9
ATOM      9  N3  non d ame     -36.104  13.012  24.800  0.00  0.00    -0.346 N 
ATOM     10  C7  non d ame     -35.960  13.634  26.093  0.00  0.00     0.240 C 
ATOM     11  O3  non d ame     -36.544  13.213  27.015  0.00  0.00    -0.271 OA
ATOM     12  H10 non d ame     -35.595  13.388  24.012  0.00  0.00     0.163 HD
BRANCH  10  13
ATOM     13  C6  non d ame     -35.026  14.873  26.256  0.00  0.00     0.086 C 
ATOM     14  H6  non d ame     -34.519  14.895  27.221  0.00  0.00     0.086 H 
BRANCH  13  15
ATOM     15  N2  non d ame     -33.987  14.818  25.242  0.00  0.00    -0.343 N 
ATOM     16  C5  non d ame     -32.591  15.038  25.626  0.00  0.00     0.273 C 
ATOM     17  O2  non d ame     -32.315  15.263  26.753  0.00  0.00    -0.266 OA
ATOM     18  H5  non d ame     -34.232  14.628  24.281  0.00  0.00     0.163 HD
BRANCH  16  19
ATOM     19  C4  non d ame     -31.482  14.982  24.564  0.00  0.00     0.154 A 
ATOM     20  C1  non d ame     -31.052  13.836  23.823  0.00  0.00    -0.017 A 
ATOM     21  C2  non d ame     -30.018  14.311  22.987  0.00  0.00     0.077 A 
ATOM     22  H1  non d ame     -31.433  12.816  23.882  0.00  0.00     0.091 H 
ATOM     23  O1  non d ame     -29.878  15.582  23.226  0.00  0.00    -0.218 OA
ATOM     24  N1  non d ame     -30.722  15.996  24.143  0.00  0.00    -0.123 NA
BRANCH  21  25
ATOM     25  C3  non d ame     -29.215  13.488  21.988  0.00  0.00    -0.029 C 
ATOM     26  H2  non d ame     -29.877  12.789  21.478  0.00  0.00     0.036 H 
ATOM     27  H3  non d ame     -28.756  14.152  21.255  0.00  0.00     0.036 H 
ATOM     28  H4  non d ame     -28.438  12.934  22.514  0.00  0.00     0.036 H 
ENDBRANCH  21  25
ENDBRANCH  16  19
ENDBRANCH  13  15
BRANCH  13  29
ATOM     29  C8  non d ame     -35.832  16.137  26.102  0.00  0.00    -0.049 C 
ATOM     30  H7  non d ame     -36.707  15.938  25.484  0.00  0.00     0.030 H 
ATOM     31  H8  non d ame     -36.154  16.486  27.083  0.00  0.00     0.030 H 
ATOM     32  H9  non d ame     -35.219  16.904  25.627  0.00  0.00     0.030 H 
ENDBRANCH  13  29
ENDBRANCH  10  13
ENDBRANCH   7   9
BRANCH   7  33
ATOM     33  C11 non d ame     -38.112  12.193  23.625  0.00  0.00    -0.033 C 
ATOM     34  H12 non d ame     -38.197  11.356  22.932  0.00  0.00     0.042 H 
BRANCH  33  35
ATOM     35  C12 non d ame     -39.490  12.350  24.340  0.00  0.00    -0.071 C 
ATOM     36  H13 non d ame     -39.978  11.377  24.407  0.00  0.00     0.028 H 
ATOM     37  H14 non d ame     -39.336  12.749  25.342  0.00  0.00     0.028 H 
ATOM     38  H15 non d ame     -40.120  13.032  23.770  0.00  0.00     0.028 H 
ENDBRANCH  33  35
BRANCH  33  39
ATOM     39  C13 non d ame     -37.753  13.469  22.799  0.00  0.00    -0.071 C 
ATOM     40  H16 non d ame     -38.659  14.045  22.608  0.00  0.00     0.028 H 
ATOM     41  H17 non d ame     -37.045  14.079  23.361  0.00  0.00     0.028 H 
ATOM     42  H18 non d ame     -37.304  13.174  21.851  0.00  0.00     0.028 H 
ENDBRANCH  33  39
ENDBRANCH   7  33
ENDBRANCH   4   7
ENDBRANCH   1   3
BRANCH   1  43
ATOM     43  C15 non d ame     -34.403   7.981  25.139  0.00  0.00     0.240 C 
ATOM     44  O5  non d ame     -34.288   6.891  24.679  0.00  0.00    -0.271 OA
ATOM     45  N6  non d ame     -34.858   8.147  26.549  0.00  0.00    -0.355 N 
ATOM     46  H46 non d ame     -34.955   9.068  26.952  0.00  0.00     0.162 HD
BRANCH  45  47
ATOM     47  C20 non d ame     -35.171   6.952  27.363  0.00  0.00     0.013 C 
ATOM     48  H30 non d ame     -35.351   6.121  26.681  0.00  0.00     0.072 H 
BRANCH  47  49
ATOM     49  C21 non d ame     -36.407   7.221  28.190  0.00  0.00    -0.038 C 
ATOM     50  H31 non d ame     -37.252   6.982  27.543  0.00  0.00     0.036 H 
ATOM     51  H32 non d ame     -36.262   6.674  29.122  0.00  0.00     0.036 H 
BRANCH  49  52
ATOM     52  C22 non d ame     -36.559   8.709  28.576  0.00  0.00     0.018 C 
ATOM     53  H33 non d ame     -35.882   9.254  27.920  0.00  0.00     0.048 H 
ATOM     54  H34 non d ame     -37.629   8.913  28.547  0.00  0.00     0.048 H 
BRANCH  52  55
ATOM     55  C23 non d ame     -36.101   9.029  30.026  0.00  0.00     0.259 C 
ATOM     56  O7  non d ame     -36.492   8.376  30.939  0.00  0.00    -0.265 OA
BRANCH  55  57
ATOM     57  O8  non d ame     -35.219  10.121  30.253  0.00  0.00    -0.317 OA
BRANCH  57  58
ATOM     58  C29 non d ame     -33.875   9.732  30.553  0.00  0.00     0.052 C 
ATOM     59  H47 non d ame     -33.734   9.950  31.611  0.00  0.00     0.082 H 
ATOM     60  H48 non d ame     -33.775   8.711  30.188  0.00  0.00     0.082 H 
BRANCH  58  61
ATOM     61  C35 non d ame     -32.920  10.641  29.733  0.00  0.00    -0.034 A 
ATOM     62  C30 non d ame     -32.937  10.593  28.342  0.00  0.00    -0.075 A 
ATOM     63  C31 non d ame     -32.079  11.409  27.606  0.00  0.00    -0.082 A 
ATOM     64  H49 non d ame     -33.620   9.916  27.830  0.00  0.00     0.084 H 
ATOM     65  C32 non d ame     -31.201  12.274  28.265  0.00  0.00    -0.083 A 
ATOM     66  H50 non d ame     -32.096  11.370  26.516  0.00  0.00     0.083 H 
ATOM     67  C33 non d ame     -31.186  12.315  29.652  0.00  0.00    -0.082 A 
ATOM     68  H51 non d ame     -30.528  12.916  27.696  0.00  0.00     0.083 H 
ATOM     69  C34 non d ame     -32.043  11.503  30.392  0.00  0.00    -0.075 A 
ATOM     70  H52 non d ame     -30.498  12.990  30.164  0.00  0.00     0.083 H 
ATOM     71  H53 non d ame     -32.026  11.542  31.482  0.00  0.00     0.084 H 
ENDBRANCH  58  61
ENDBRANCH  57  58
ENDBRANCH  55  57
ENDBRANCH  52  55
ENDBRANCH  49  52
ENDBRANCH  47  49
BRANCH  47  72
ATOM     72  C24 non d ame     -33.997   6.636  28.287  0.00  0.00    -0.039 C 
ATOM     73  H35 non d ame     -33.116   6.628  27.644  0.00  0.00     0.036 H 
ATOM     74  H36 non d ame     -34.069   7.354  29.104  0.00  0.00     0.036 H 
BRANCH  72  75
ATOM     75  C25 non d ame     -34.125   5.174  28.929  0.00  0.00    -0.001 C 
ATOM     76  C26 non d ame     -34.538   5.295  30.516  0.00  0.00    -0.035 C 
ATOM     77  C27 non d ame     -33.674   4.552  31.250  0.00  0.00     0.085 C 
ATOM     78  H38 non d ame     -34.366   6.310  30.872  0.00  0.00     0.036 H 
ATOM     79  H39 non d ame     -35.500   4.812  30.691  0.00  0.00     0.036 H 
ATOM     80  N5  non d ame     -32.516   4.201  30.345  0.00  0.00    -0.049 N 
ATOM     81  H40 non d ame     -33.320   5.213  32.041  0.00  0.00     0.075 H 
ATOM     82  H41 non d ame     -34.215   3.641  31.503  0.00  0.00     0.075 H 
ATOM     83  C28 non d ame     -33.011   4.527  28.844  0.00  0.00     0.193 C 
ATOM     84  H42 non d ame     -31.767   4.835  30.582  0.00  0.00     0.280 HD
ATOM     85  H43 non d ame     -32.381   3.204  30.431  0.00  0.00     0.280 HD
ATOM     86  H44 non d ame     -33.303   3.720  28.170  0.00  0.00     0.129 H 
ATOM     87  H37 non d ame     -34.722   4.503  28.312  0.00  0.00     0.046 H 
BRANCH  83  88
ATOM     88  O6  non d ame     -32.010   5.267  28.144  0.00  0.00    -0.369 OA
ATOM     89  H45 non d ame     -31.170   4.805  28.204  0.00  0.00     0.212 HD
ENDBRANCH  83  88
ENDBRANCH  72  75
ENDBRANCH  47  72
ENDBRANCH  45  47
ENDBRANCH   1  43
BRANCH   1  90
ATOM     90  C16 non d ame     -32.590   9.557  24.396  0.00  0.00    -0.035 C 
ATOM     91  H21 non d ame     -32.555  10.566  24.805  0.00  0.00     0.037 H 
ATOM     92  H22 non d ame     -32.157   8.726  24.953  0.00  0.00     0.037 H 
BRANCH  90  93
ATOM     93  C17 non d ame     -31.840   9.611  23.027  0.00  0.00    -0.059 C 
ATOM     94  H23 non d ame     -32.419  10.248  22.358  0.00  0.00     0.038 H 
BRANCH  93  95
ATOM     95  C18 non d ame     -30.414  10.233  23.160  0.00  0.00    -0.073 C 
ATOM     96  H24 non d ame     -30.438  11.049  23.882  0.00  0.00     0.028 H 
ATOM     97  H25 non d ame     -29.715   9.469  23.501  0.00  0.00     0.028 H 
ATOM     98  H26 non d ame     -30.092  10.615  22.191  0.00  0.00     0.028 H 
ENDBRANCH  93  95
BRANCH  93  99
ATOM     99  C19 non d ame     -31.771   8.222  22.386  0.00  0.00    -0.073 C 
ATOM    100  H27 non d ame     -31.355   7.512  23.103  0.00  0.00     0.028 H 
ATOM    101  H28 non d ame     -32.773   7.903  22.100  0.00  0.00     0.028 H 
ATOM    102  H29 non d ame     -31.135   8.261  21.502  0.00  0.00     0.028 H 
ENDBRANCH  93  99
ENDBRANCH  90  93
ENDBRANCH   1  90
TORSDOF 26
ENDMDL
MODEL 6
REMARK VINA RESULT:      -7.0      2.917      9.712
REMARK  26 active torsions:
REMARK  status: ('A' for Active; 'I' for Inactive)
REMARK    1  A    between atoms: C2_2  and  C3_3 
REMARK    2  A    between atoms: C4_6  and  C5_7 
REMARK       I    between atoms: C5_7  and  N2_9 
REMARK    3  A    between atoms: N2_9  and  C6_10 
REMARK    4  A    between atoms: C6_10  and  C7_11 
REMARK    5  A    between atoms: C6_10  and  C8_13 
REMARK       I    between atoms: C7_11  and  N3_14 
REMARK    6  A    between atoms: N3_14  and  C9_15 
REMARK    7  A    between atoms: C9_15  and  C10_16 
REMARK    8  A    between atoms: C9_15  and  C11_18 
REMARK       I    between atoms: C10_16  and  N4_21 
REMARK    9  A    between atoms: C11_18  and  C12_19 
REMARK   10  A    between atoms: C11_18  and  C13_20 
REMARK   11  A    between atoms: N4_21  and  C14_22 
REMARK   12  A    between atoms: C14_22  and  C15_23 
REMARK   13  A    between atoms: C14_22  and  C16_25 
REMARK       I    between atoms: C15_23  and  N6_40 
REMARK   14  A    between atoms: C16_25  and  C17_26 
REMARK   15  A    between atoms: C17_26  and  C18_27 
REMARK   16  A    between atoms: C17_26  and  C19_28 
REMARK   17  A    between atoms: C20_29  and  C21_30 
REMARK   18  A    between atoms: C20_29  and  C24_33 
REMARK   19  A    between atoms: C20_29  and  N6_40 
REMARK   20  A    between atoms: C21_30  and  C22_31 
REMARK   21  A    between atoms: C22_31  and  C23_32 
REMARK   22  A    between atoms: C23_32  and  O8_43 
REMARK   23  A    between atoms: C24_33  and  C25_34 
REMARK   24  A    between atoms: C28_38  and  O6_39 
REMARK   25  A    between atoms: C29_42  and  O8_43 
REMARK   26  A    between atoms: C29_42  and  C35_49 
ROOT
ATOM      1  C14 non d ame     -33.277   9.791  24.805  0.00  0.00     0.089 C 
ATOM      2  H20 non d ame     -33.553   8.933  24.191  0.00  0.00     0.087 H 
ENDROOT
BRANCH   1   3
ATOM      3  N4  non d ame     -34.373  10.746  24.744  0.00  0.00    -0.346 N 
ATOM      4  C10 non d ame     -35.802  10.267  24.750  0.00  0.00     0.241 C 
ATOM      5  O4  non d ame     -36.046   9.107  24.804  0.00  0.00    -0.271 OA
ATOM      6  H19 non d ame     -34.144  11.728  24.695  0.00  0.00     0.163 HD
BRANCH   4   7
ATOM      7  C9  non d ame     -36.924  11.270  24.691  0.00  0.00     0.092 C 
ATOM      8  H11 non d ame     -37.511  11.206  25.606  0.00  0.00     0.088 H 
BRANCH   7   9
ATOM      9  N3  non d ame     -36.367  12.624  24.626  0.00  0.00    -0.346 N 
ATOM     10  C7  non d ame     -35.852  13.249  25.819  0.00  0.00     0.240 C 
ATOM     11  O3  non d ame     -35.879  12.676  26.840  0.00  0.00    -0.271 OA
ATOM     12  H10 non d ame     -36.339  13.131  23.753  0.00  0.00     0.163 HD
BRANCH  10  13
ATOM     13  C6  non d ame     -35.263  14.692  25.745  0.00  0.00     0.086 C 
ATOM     14  H6  non d ame     -34.846  15.026  26.695  0.00  0.00     0.086 H 
BRANCH  13  15
ATOM     15  N2  non d ame     -34.174  14.708  24.783  0.00  0.00    -0.343 N 
ATOM     16  C5  non d ame     -32.839  15.130  25.212  0.00  0.00     0.273 C 
ATOM     17  O2  non d ame     -32.652  15.457  26.332  0.00  0.00    -0.266 OA
ATOM     18  H5  non d ame     -34.344  14.430  23.827  0.00  0.00     0.163 HD
BRANCH  16  19
ATOM     19  C4  non d ame     -31.678  15.151  24.205  0.00  0.00     0.154 A 
ATOM     20  C1  non d ame     -30.926  14.031  23.728  0.00  0.00    -0.017 A 
ATOM     21  C2  non d ame     -29.985  14.581  22.830  0.00  0.00     0.077 A 
ATOM     22  H1  non d ame     -31.046  12.980  23.993  0.00  0.00     0.091 H 
ATOM     23  O1  non d ame     -30.183  15.866  22.800  0.00  0.00    -0.218 OA
ATOM     24  N1  non d ame     -31.166  16.223  23.595  0.00  0.00    -0.123 NA
BRANCH  21  25
ATOM     25  C3  non d ame     -28.935  13.811  22.041  0.00  0.00    -0.029 C 
ATOM     26  H2  non d ame     -29.405  13.332  21.182  0.00  0.00     0.036 H 
ATOM     27  H3  non d ame     -28.164  14.499  21.694  0.00  0.00     0.036 H 
ATOM     28  H4  non d ame     -28.484  13.052  22.679  0.00  0.00     0.036 H 
ENDBRANCH  21  25
ENDBRANCH  16  19
ENDBRANCH  13  15
BRANCH  13  29
ATOM     29  C8  non d ame     -36.341  15.656  25.322  0.00  0.00    -0.049 C 
ATOM     30  H7  non d ame     -36.783  15.320  24.385  0.00  0.00     0.030 H 
ATOM     31  H8  non d ame     -37.113  15.700  26.091  0.00  0.00     0.030 H 
ATOM     32  H9  non d ame     -35.908  16.648  25.185  0.00  0.00     0.030 H 
ENDBRANCH  13  29
ENDBRANCH  10  13
ENDBRANCH   7   9
BRANCH   7  33
ATOM     33  C11 non d ame     -37.787  11.006  23.421  0.00  0.00    -0.033 C 
ATOM     34  H12 non d ame     -37.202  10.379  22.750  0.00  0.00     0.042 H 
BRANCH  33  35
ATOM     35  C12 non d ame     -39.091  10.225  23.774  0.00  0.00    -0.071 C 
ATOM     36  H13 non d ame     -39.160   9.333  23.151  0.00  0.00     0.028 H 
ATOM     37  H14 non d ame     -39.069   9.934  24.824  0.00  0.00     0.028 H 
ATOM     38  H15 non d ame     -39.957  10.861  23.592  0.00  0.00     0.028 H 
ENDBRANCH  33  35
BRANCH  33  39
ATOM     39  C13 non d ame     -38.110  12.341  22.678  0.00  0.00    -0.071 C 
ATOM     40  H16 non d ame     -39.185  12.412  22.508  0.00  0.00     0.028 H 
ATOM     41  H17 non d ame     -37.780  13.185  23.284  0.00  0.00     0.028 H 
ATOM     42  H18 non d ame     -37.590  12.359  21.720  0.00  0.00     0.028 H 
ENDBRANCH  33  39
ENDBRANCH   7  33
ENDBRANCH   4   7
ENDBRANCH   1   3
BRANCH   1  43
ATOM     43  C15 non d ame     -33.046   9.397  26.293  0.00  0.00     0.240 C 
ATOM     44  O5  non d ame     -32.466   8.393  26.555  0.00  0.00    -0.271 OA
ATOM     45  N6  non d ame     -33.538  10.277  27.390  0.00  0.00    -0.355 N 
ATOM     46  H46 non d ame     -34.027  11.136  27.179  0.00  0.00     0.162 HD
BRANCH  45  47
ATOM     47  C20 non d ame     -33.309   9.889  28.799  0.00  0.00     0.013 C 
ATOM     48  H30 non d ame     -33.124   8.816  28.824  0.00  0.00     0.072 H 
BRANCH  47  49
ATOM     49  C21 non d ame     -34.538  10.222  29.615  0.00  0.00    -0.038 C 
ATOM     50  H31 non d ame     -34.413  11.260  29.926  0.00  0.00     0.036 H 
ATOM     51  H32 non d ame     -35.389   9.937  28.995  0.00  0.00     0.036 H 
BRANCH  49  52
ATOM     52  C22 non d ame     -34.641   9.387  30.910  0.00  0.00     0.018 C 
ATOM     53  H33 non d ame     -33.991   8.526  30.759  0.00  0.00     0.048 H 
ATOM     54  H34 non d ame     -34.445  10.083  31.726  0.00  0.00     0.048 H 
BRANCH  52  55
ATOM     55  C23 non d ame     -36.061   8.811  31.171  0.00  0.00     0.259 C 
ATOM     56  O7  non d ame     -36.663   9.113  32.151  0.00  0.00    -0.265 OA
BRANCH  55  57
ATOM     57  O8  non d ame     -36.629   7.906  30.233  0.00  0.00    -0.317 OA
BRANCH  57  58
ATOM     58  C29 non d ame     -36.891   6.603  30.764  0.00  0.00     0.052 C 
ATOM     59  H47 non d ame     -37.102   6.753  31.822  0.00  0.00     0.082 H 
ATOM     60  H48 non d ame     -37.647   6.165  30.113  0.00  0.00     0.082 H 
BRANCH  58  61
ATOM     61  C35 non d ame     -35.591   5.765  30.636  0.00  0.00    -0.034 A 
ATOM     62  C30 non d ame     -34.962   5.278  31.778  0.00  0.00    -0.075 A 
ATOM     63  C31 non d ame     -33.793   4.525  31.663  0.00  0.00    -0.082 A 
ATOM     64  H49 non d ame     -35.382   5.486  32.761  0.00  0.00     0.084 H 
ATOM     65  C32 non d ame     -33.254   4.261  30.401  0.00  0.00    -0.083 A 
ATOM     66  H50 non d ame     -33.303   4.143  32.560  0.00  0.00     0.083 H 
ATOM     67  C33 non d ame     -33.884   4.752  29.266  0.00  0.00    -0.082 A 
ATOM     68  H51 non d ame     -32.341   3.672  30.303  0.00  0.00     0.083 H 
ATOM     69  C34 non d ame     -35.052   5.504  29.375  0.00  0.00    -0.075 A 
ATOM     70  H52 non d ame     -33.458   4.547  28.282  0.00  0.00     0.083 H 
ATOM     71  H53 non d ame     -35.541   5.884  28.479  0.00  0.00     0.084 H 
ENDBRANCH  58  61
ENDBRANCH  57  58
ENDBRANCH  55  57
ENDBRANCH  52  55
ENDBRANCH  49  52
ENDBRANCH  47  49
BRANCH  47  72
ATOM     72  C24 non d ame     -32.106  10.649  29.355  0.00  0.00    -0.039 C 
ATOM     73  H35 non d ame     -31.728  10.033  30.172  0.00  0.00     0.036 H 
ATOM     74  H36 non d ame     -31.473  10.859  28.493  0.00  0.00     0.036 H 
BRANCH  72  75
ATOM     75  C25 non d ame     -32.534  12.059  29.983  0.00  0.00    -0.001 C 
ATOM     76  C26 non d ame     -32.244  13.263  28.903  0.00  0.00    -0.035 C 
ATOM     77  C27 non d ame     -31.524  14.235  29.514  0.00  0.00     0.085 C 
ATOM     78  H38 non d ame     -31.578  12.909  28.116  0.00  0.00     0.036 H 
ATOM     79  H39 non d ame     -33.177  13.765  28.641  0.00  0.00     0.036 H 
ATOM     80  N5  non d ame     -31.016  13.656  30.813  0.00  0.00    -0.049 N 
ATOM     81  H40 non d ame     -30.677  14.427  28.855  0.00  0.00     0.075 H 
ATOM     82  H41 non d ame     -32.235  15.030  29.733  0.00  0.00     0.075 H 
ATOM     83  C28 non d ame     -31.871  12.309  31.062  0.00  0.00     0.193 C 
ATOM     84  H42 non d ame     -30.053  13.400  30.655  0.00  0.00     0.280 HD
ATOM     85  H43 non d ame     -31.250  14.324  31.533  0.00  0.00     0.280 HD
ATOM     86  H44 non d ame     -32.676  12.293  31.797  0.00  0.00     0.129 H 
ATOM     87  H37 non d ame     -33.524  12.026  30.435  0.00  0.00     0.046 H 
BRANCH  83  88
ATOM     88  O6  non d ame     -31.002  11.234  31.424  0.00  0.00    -0.369 OA
ATOM     89  H45 non d ame     -30.117  11.413  31.095  0.00  0.00     0.212 HD
ENDBRANCH  83  88
ENDBRANCH  72  75
ENDBRANCH  47  72
ENDBRANCH  45  47
ENDBRANCH   1  43
BRANCH   1  90
ATOM     90  C16 non d ame     -32.020  10.439  24.247  0.00  0.00    -0.035 C 
ATOM     91  H21 non d ame     -32.316  11.448  23.967  0.00  0.00     0.037 H 
ATOM     92  H22 non d ame     -31.254  10.286  25.008  0.00  0.00     0.037 H 
BRANCH  90  93
ATOM     93  C17 non d ame     -31.490   9.758  22.944  0.00  0.00    -0.059 C 
ATOM     94  H23 non d ame     -32.185   9.999  22.140  0.00  0.00     0.038 H 
BRANCH  93  95
ATOM     95  C18 non d ame     -30.081  10.291  22.532  0.00  0.00    -0.073 C 
ATOM     96  H24 non d ame     -30.134  10.722  21.532  0.00  0.00     0.028 H 
ATOM     97  H25 non d ame     -29.761  11.056  23.239  0.00  0.00     0.028 H 
ATOM     98  H26 non d ame     -29.366   9.469  22.536  0.00  0.00     0.028 H 
ENDBRANCH  93  95
BRANCH  93  99
ATOM     99  C19 non d ame     -31.474   8.234  23.091  0.00  0.00    -0.073 C 
ATOM    100  H27 non d ame     -31.026   7.967  24.049  0.00  0.00     0.028 H 
ATOM    101  H28 non d ame     -32.494   7.853  23.050  0.00  0.00     0.028 H 
ATOM    102  H29 non d ame     -30.890   7.797  22.282  0.00  0.00     0.028 H 
ENDBRANCH  93  99
ENDBRANCH  90  93
ENDBRANCH   1  90
TORSDOF 26
ENDMDL
MODEL 7
REMARK VINA RESULT:      -6.9      3.342     10.284
REMARK  26 active torsions:
REMARK  status: ('A' for Active; 'I' for Inactive)
REMARK    1  A    between atoms: C2_2  and  C3_3 
REMARK    2  A    between atoms: C4_6  and  C5_7 
REMARK       I    between atoms: C5_7  and  N2_9 
REMARK    3  A    between atoms: N2_9  and  C6_10 
REMARK    4  A    between atoms: C6_10  and  C7_11 
REMARK    5  A    between atoms: C6_10  and  C8_13 
REMARK       I    between atoms: C7_11  and  N3_14 
REMARK    6  A    between atoms: N3_14  and  C9_15 
REMARK    7  A    between atoms: C9_15  and  C10_16 
REMARK    8  A    between atoms: C9_15  and  C11_18 
REMARK       I    between atoms: C10_16  and  N4_21 
REMARK    9  A    between atoms: C11_18  and  C12_19 
REMARK   10  A    between atoms: C11_18  and  C13_20 
REMARK   11  A    between atoms: N4_21  and  C14_22 
REMARK   12  A    between atoms: C14_22  and  C15_23 
REMARK   13  A    between atoms: C14_22  and  C16_25 
REMARK       I    between atoms: C15_23  and  N6_40 
REMARK   14  A    between atoms: C16_25  and  C17_26 
REMARK   15  A    between atoms: C17_26  and  C18_27 
REMARK   16  A    between atoms: C17_26  and  C19_28 
REMARK   17  A    between atoms: C20_29  and  C21_30 
REMARK   18  A    between atoms: C20_29  and  C24_33 
REMARK   19  A    between atoms: C20_29  and  N6_40 
REMARK   20  A    between atoms: C21_30  and  C22_31 
REMARK   21  A    between atoms: C22_31  and  C23_32 
REMARK   22  A    between atoms: C23_32  and  O8_43 
REMARK   23  A    between atoms: C24_33  and  C25_34 
REMARK   24  A    between atoms: C28_38  and  O6_39 
REMARK   25  A    between atoms: C29_42  and  O8_43 
REMARK   26  A    between atoms: C29_42  and  C35_49 
ROOT
ATOM      1  C14 non d ame     -36.080  12.942  26.227  0.00  0.00     0.089 C 
ATOM      2  H20 non d ame     -36.859  12.769  26.970  0.00  0.00     0.087 H 
ENDROOT
BRANCH   1   3
ATOM      3  N4  non d ame     -35.813  14.372  26.195  0.00  0.00    -0.346 N 
ATOM      4  C10 non d ame     -36.891  15.357  26.571  0.00  0.00     0.241 C 
ATOM      5  O4  non d ame     -37.967  14.975  26.893  0.00  0.00    -0.271 OA
ATOM      6  H19 non d ame     -34.892  14.677  25.915  0.00  0.00     0.163 HD
BRANCH   4   7
ATOM      7  C9  non d ame     -36.596  16.834  26.537  0.00  0.00     0.092 C 
ATOM      8  H11 non d ame     -36.903  17.282  27.481  0.00  0.00     0.088 H 
BRANCH   7   9
ATOM      9  N3  non d ame     -35.150  17.041  26.408  0.00  0.00    -0.346 N 
ATOM     10  C7  non d ame     -34.380  17.474  27.548  0.00  0.00     0.240 C 
ATOM     11  O3  non d ame     -34.908  17.662  28.576  0.00  0.00    -0.271 OA
ATOM     12  H10 non d ame     -34.682  16.884  25.527  0.00  0.00     0.163 HD
BRANCH  10  13
ATOM     13  C6  non d ame     -32.843  17.696  27.405  0.00  0.00     0.086 C 
ATOM     14  H6  non d ame     -32.264  17.117  28.124  0.00  0.00     0.086 H 
BRANCH  13  15
ATOM     15  N2  non d ame     -32.424  17.257  26.084  0.00  0.00    -0.343 N 
ATOM     16  C5  non d ame     -31.802  15.940  25.925  0.00  0.00     0.273 C 
ATOM     17  O2  non d ame     -31.640  15.243  26.866  0.00  0.00    -0.266 OA
ATOM     18  H5  non d ame     -32.563  17.860  25.286  0.00  0.00     0.163 HD
BRANCH  16  19
ATOM     19  C4  non d ame     -31.355  15.463  24.534  0.00  0.00     0.154 A 
ATOM     20  C1  non d ame     -30.573  14.305  24.228  0.00  0.00    -0.017 A 
ATOM     21  C2  non d ame     -30.442  14.317  22.822  0.00  0.00     0.077 A 
ATOM     22  H1  non d ame     -30.165  13.568  24.920  0.00  0.00     0.091 H 
ATOM     23  O1  non d ame     -31.078  15.363  22.382  0.00  0.00    -0.218 OA
ATOM     24  N1  non d ame     -31.619  16.047  23.363  0.00  0.00    -0.123 NA
BRANCH  21  25
ATOM     25  C3  non d ame     -29.695  13.294  21.977  0.00  0.00    -0.029 C 
ATOM     26  H2  non d ame     -30.412  12.643  21.476  0.00  0.00     0.036 H 
ATOM     27  H3  non d ame     -29.092  13.810  21.230  0.00  0.00     0.036 H 
ATOM     28  H4  non d ame     -29.047  12.696  22.617  0.00  0.00     0.036 H 
ENDBRANCH  21  25
ENDBRANCH  16  19
ENDBRANCH  13  15
BRANCH  13  29
ATOM     29  C8  non d ame     -32.524  19.158  27.588  0.00  0.00    -0.049 C 
ATOM     30  H7  non d ame     -32.018  19.303  28.542  0.00  0.00     0.030 H 
ATOM     31  H8  non d ame     -31.875  19.493  26.779  0.00  0.00     0.030 H 
ATOM     32  H9  non d ame     -33.449  19.736  27.576  0.00  0.00     0.030 H 
ENDBRANCH  13  29
ENDBRANCH  10  13
ENDBRANCH   7   9
BRANCH   7  33
ATOM     33  C11 non d ame     -37.319  17.478  25.318  0.00  0.00    -0.033 C 
ATOM     34  H12 non d ame     -38.368  17.606  25.587  0.00  0.00     0.042 H 
BRANCH  33  35
ATOM     35  C12 non d ame     -36.742  18.892  24.998  0.00  0.00    -0.071 C 
ATOM     36  H13 non d ame     -35.705  18.945  25.331  0.00  0.00     0.028 H 
ATOM     37  H14 non d ame     -36.788  19.070  23.924  0.00  0.00     0.028 H 
ATOM     38  H15 non d ame     -37.328  19.650  25.518  0.00  0.00     0.028 H 
ENDBRANCH  33  35
BRANCH  33  39
ATOM     39  C13 non d ame     -37.252  16.543  24.069  0.00  0.00    -0.071 C 
ATOM     40  H16 non d ame     -36.821  15.584  24.356  0.00  0.00     0.028 H 
ATOM     41  H17 non d ame     -38.258  16.387  23.676  0.00  0.00     0.028 H 
ATOM     42  H18 non d ame     -36.632  17.005  23.301  0.00  0.00     0.028 H 
ENDBRANCH  33  39
ENDBRANCH   7  33
ENDBRANCH   4   7
ENDBRANCH   1   3
BRANCH   1  43
ATOM     43  C15 non d ame     -34.759  12.199  26.580  0.00  0.00     0.240 C 
ATOM     44  O5  non d ame     -33.721  12.618  26.181  0.00  0.00    -0.271 OA
ATOM     45  N6  non d ame     -34.787  10.972  27.425  0.00  0.00    -0.355 N 
ATOM     46  H46 non d ame     -35.663  10.609  27.775  0.00  0.00     0.162 HD
BRANCH  45  47
ATOM     47  C20 non d ame     -33.523  10.278  27.753  0.00  0.00     0.013 C 
ATOM     48  H30 non d ame     -32.729  10.733  27.161  0.00  0.00     0.072 H 
BRANCH  47  49
ATOM     49  C21 non d ame     -33.652   8.812  27.406  0.00  0.00    -0.038 C 
ATOM     50  H31 non d ame     -33.201   8.272  28.239  0.00  0.00     0.036 H 
ATOM     51  H32 non d ame     -34.703   8.659  27.161  0.00  0.00     0.036 H 
BRANCH  49  52
ATOM     52  C22 non d ame     -32.849   8.422  26.146  0.00  0.00     0.018 C 
ATOM     53  H33 non d ame     -32.543   9.362  25.688  0.00  0.00     0.048 H 
ATOM     54  H34 non d ame     -32.097   7.710  26.485  0.00  0.00     0.048 H 
BRANCH  52  55
ATOM     55  C23 non d ame     -33.691   7.677  25.073  0.00  0.00     0.259 C 
ATOM     56  O7  non d ame     -34.875   7.785  25.054  0.00  0.00    -0.265 OA
BRANCH  55  57
ATOM     57  O8  non d ame     -33.033   6.851  24.120  0.00  0.00    -0.317 OA
BRANCH  57  58
ATOM     58  C29 non d ame     -32.871   7.459  22.835  0.00  0.00     0.052 C 
ATOM     59  H47 non d ame     -33.087   6.676  22.109  0.00  0.00     0.082 H 
ATOM     60  H48 non d ame     -33.476   8.364  22.858  0.00  0.00     0.082 H 
BRANCH  58  61
ATOM     61  C35 non d ame     -31.381   7.870  22.685  0.00  0.00    -0.034 A 
ATOM     62  C30 non d ame     -31.049   9.193  22.409  0.00  0.00    -0.075 A 
ATOM     63  C31 non d ame     -29.711   9.562  22.274  0.00  0.00    -0.082 A 
ATOM     64  H49 non d ame     -31.835   9.940  22.298  0.00  0.00     0.084 H 
ATOM     65  C32 non d ame     -28.705   8.603  22.414  0.00  0.00    -0.083 A 
ATOM     66  H50 non d ame     -29.454  10.601  22.060  0.00  0.00     0.083 H 
ATOM     67  C33 non d ame     -29.042   7.284  22.685  0.00  0.00    -0.082 A 
ATOM     68  H51 non d ame     -27.656   8.884  22.310  0.00  0.00     0.083 H 
ATOM     69  C34 non d ame     -30.377   6.911  22.823  0.00  0.00    -0.075 A 
ATOM     70  H52 non d ame     -28.254   6.537  22.791  0.00  0.00     0.083 H 
ATOM     71  H53 non d ame     -30.634   5.873  23.038  0.00  0.00     0.084 H 
ENDBRANCH  58  61
ENDBRANCH  57  58
ENDBRANCH  55  57
ENDBRANCH  52  55
ENDBRANCH  49  52
ENDBRANCH  47  49
BRANCH  47  72
ATOM     72  C24 non d ame     -33.224  10.426  29.243  0.00  0.00    -0.039 C 
ATOM     73  H35 non d ame     -34.183  10.293  29.745  0.00  0.00     0.036 H 
ATOM     74  H36 non d ame     -32.404   9.737  29.445  0.00  0.00     0.036 H 
BRANCH  72  75
ATOM     75  C25 non d ame     -32.704  11.898  29.601  0.00  0.00    -0.001 C 
ATOM     76  C26 non d ame     -31.357  12.244  28.724  0.00  0.00    -0.035 C 
ATOM     77  C27 non d ame     -30.388  12.679  29.565  0.00  0.00     0.085 C 
ATOM     78  H38 non d ame     -30.938  11.329  28.305  0.00  0.00     0.036 H 
ATOM     79  H39 non d ame     -31.540  13.104  28.080  0.00  0.00     0.036 H 
ATOM     80  N5  non d ame     -30.841  12.351  30.967  0.00  0.00    -0.049 N 
ATOM     81  H40 non d ame     -29.507  12.082  29.327  0.00  0.00     0.075 H 
ATOM     82  H41 non d ame     -30.362  13.761  29.444  0.00  0.00     0.075 H 
ATOM     83  C28 non d ame     -32.413  11.999  30.855  0.00  0.00     0.193 C 
ATOM     84  H42 non d ame     -30.343  11.517  31.241  0.00  0.00     0.280 HD
ATOM     85  H43 non d ame     -30.739  13.200  31.505  0.00  0.00     0.280 HD
ATOM     86  H44 non d ame     -33.165  12.719  31.175  0.00  0.00     0.129 H 
ATOM     87  H37 non d ame     -33.507  12.634  29.587  0.00  0.00     0.046 H 
BRANCH  83  88
ATOM     88  O6  non d ame     -32.701  10.798  31.574  0.00  0.00    -0.369 OA
ATOM     89  H45 non d ame     -31.988  10.614  32.190  0.00  0.00     0.212 HD
ENDBRANCH  83  88
ENDBRANCH  72  75
ENDBRANCH  47  72
ENDBRANCH  45  47
ENDBRANCH   1  43
BRANCH   1  90
ATOM     90  C16 non d ame     -36.566  12.496  24.857  0.00  0.00    -0.035 C 
ATOM     91  H21 non d ame     -36.601  13.402  24.255  0.00  0.00     0.037 H 
ATOM     92  H22 non d ame     -35.908  11.675  24.571  0.00  0.00     0.037 H 
BRANCH  90  93
ATOM     93  C17 non d ame     -38.017  11.917  24.866  0.00  0.00    -0.059 C 
ATOM     94  H23 non d ame     -38.013  11.007  24.266  0.00  0.00     0.038 H 
BRANCH  93  95
ATOM     95  C18 non d ame     -38.491  11.537  26.305  0.00  0.00    -0.073 C 
ATOM     96  H24 non d ame     -37.724  10.938  26.795  0.00  0.00     0.028 H 
ATOM     97  H25 non d ame     -38.665  12.445  26.882  0.00  0.00     0.028 H 
ATOM     98  H26 non d ame     -39.416  10.963  26.243  0.00  0.00     0.028 H 
ENDBRANCH  93  95
BRANCH  93  99
ATOM     99  C19 non d ame     -38.998  12.892  24.209  0.00  0.00    -0.073 C 
ATOM    100  H27 non d ame     -39.938  12.377  24.003  0.00  0.00     0.028 H 
ATOM    101  H28 non d ame     -39.184  13.730  24.881  0.00  0.00     0.028 H 
ATOM    102  H29 non d ame     -38.574  13.261  23.276  0.00  0.00     0.028 H 
ENDBRANCH  93  99
ENDBRANCH  90  93
ENDBRANCH   1  90
TORSDOF 26
ENDMDL
MODEL 8
REMARK VINA RESULT:      -6.9      2.710      7.738
REMARK  26 active torsions:
REMARK  status: ('A' for Active; 'I' for Inactive)
REMARK    1  A    between atoms: C2_2  and  C3_3 
REMARK    2  A    between atoms: C4_6  and  C5_7 
REMARK       I    between atoms: C5_7  and  N2_9 
REMARK    3  A    between atoms: N2_9  and  C6_10 
REMARK    4  A    between atoms: C6_10  and  C7_11 
REMARK    5  A    between atoms: C6_10  and  C8_13 
REMARK       I    between atoms: C7_11  and  N3_14 
REMARK    6  A    between atoms: N3_14  and  C9_15 
REMARK    7  A    between atoms: C9_15  and  C10_16 
REMARK    8  A    between atoms: C9_15  and  C11_18 
REMARK       I    between atoms: C10_16  and  N4_21 
REMARK    9  A    between atoms: C11_18  and  C12_19 
REMARK   10  A    between atoms: C11_18  and  C13_20 
REMARK   11  A    between atoms: N4_21  and  C14_22 
REMARK   12  A    between atoms: C14_22  and  C15_23 
REMARK   13  A    between atoms: C14_22  and  C16_25 
REMARK       I    between atoms: C15_23  and  N6_40 
REMARK   14  A    between atoms: C16_25  and  C17_26 
REMARK   15  A    between atoms: C17_26  and  C18_27 
REMARK   16  A    between atoms: C17_26  and  C19_28 
REMARK   17  A    between atoms: C20_29  and  C21_30 
REMARK   18  A    between atoms: C20_29  and  C24_33 
REMARK   19  A    between atoms: C20_29  and  N6_40 
REMARK   20  A    between atoms: C21_30  and  C22_31 
REMARK   21  A    between atoms: C22_31  and  C23_32 
REMARK   22  A    between atoms: C23_32  and  O8_43 
REMARK   23  A    between atoms: C24_33  and  C25_34 
REMARK   24  A    between atoms: C28_38  and  O6_39 
REMARK   25  A    between atoms: C29_42  and  O8_43 
REMARK   26  A    between atoms: C29_42  and  C35_49 
ROOT
ATOM      1  C14 non d ame     -33.870   7.127  27.739  0.00  0.00     0.089 C 
ATOM      2  H20 non d ame     -33.446   6.676  28.636  0.00  0.00     0.087 H 
ENDROOT
BRANCH   1   3
ATOM      3  N4  non d ame     -34.276   8.482  28.079  0.00  0.00    -0.346 N 
ATOM      4  C10 non d ame     -34.732   8.812  29.477  0.00  0.00     0.241 C 
ATOM      5  O4  non d ame     -34.766   7.969  30.313  0.00  0.00    -0.271 OA
ATOM      6  H19 non d ame     -34.243   9.184  27.354  0.00  0.00     0.163 HD
BRANCH   4   7
ATOM      7  C9  non d ame     -35.145  10.221  29.814  0.00  0.00     0.092 C 
ATOM      8  H11 non d ame     -35.244  10.317  30.894  0.00  0.00     0.088 H 
BRANCH   7   9
ATOM      9  N3  non d ame     -34.095  11.153  29.390  0.00  0.00    -0.346 N 
ATOM     10  C7  non d ame     -32.995  11.449  30.274  0.00  0.00     0.240 C 
ATOM     11  O3  non d ame     -32.939  10.947  31.330  0.00  0.00    -0.271 OA
ATOM     12  H10 non d ame     -34.131  11.594  28.482  0.00  0.00     0.163 HD
BRANCH  10  13
ATOM     13  C6  non d ame     -31.883  12.443  29.819  0.00  0.00     0.086 C 
ATOM     14  H6  non d ame     -31.342  12.097  28.938  0.00  0.00     0.086 H 
BRANCH  13  15
ATOM     15  N2  non d ame     -32.500  13.709  29.458  0.00  0.00    -0.343 N 
ATOM     16  C5  non d ame     -31.865  14.559  28.449  0.00  0.00     0.273 C 
ATOM     17  O2  non d ame     -30.855  14.218  27.936  0.00  0.00    -0.266 OA
ATOM     18  H5  non d ame     -33.360  13.994  29.903  0.00  0.00     0.163 HD
BRANCH  16  19
ATOM     19  C4  non d ame     -32.507  15.899  28.057  0.00  0.00     0.154 A 
ATOM     20  C1  non d ame     -32.802  16.363  26.736  0.00  0.00    -0.017 A 
ATOM     21  C2  non d ame     -33.379  17.639  26.919  0.00  0.00     0.077 A 
ATOM     22  H1  non d ame     -32.625  15.851  25.790  0.00  0.00     0.091 H 
ATOM     23  O1  non d ame     -33.409  17.871  28.199  0.00  0.00    -0.218 OA
ATOM     24  N1  non d ame     -32.905  16.870  28.883  0.00  0.00    -0.123 NA
BRANCH  21  25
ATOM     25  C3  non d ame     -33.876  18.570  25.822  0.00  0.00    -0.029 C 
ATOM     26  H2  non d ame     -34.845  18.224  25.463  0.00  0.00     0.036 H 
ATOM     27  H3  non d ame     -33.978  19.580  26.220  0.00  0.00     0.036 H 
ATOM     28  H4  non d ame     -33.164  18.575  24.998  0.00  0.00     0.036 H 
ENDBRANCH  21  25
ENDBRANCH  16  19
ENDBRANCH  13  15
BRANCH  13  29
ATOM     29  C8  non d ame     -30.900  12.650  30.943  0.00  0.00    -0.049 C 
ATOM     30  H7  non d ame     -30.278  11.762  31.051  0.00  0.00     0.030 H 
ATOM     31  H8  non d ame     -30.267  13.509  30.720  0.00  0.00     0.030 H 
ATOM     32  H9  non d ame     -31.442  12.829  31.872  0.00  0.00     0.030 H 
ENDBRANCH  13  29
ENDBRANCH  10  13
ENDBRANCH   7   9
BRANCH   7  33
ATOM     33  C11 non d ame     -36.470  10.564  29.070  0.00  0.00    -0.033 C 
ATOM     34  H12 non d ame     -36.978  11.338  29.645  0.00  0.00     0.042 H 
BRANCH  33  35
ATOM     35  C12 non d ame     -36.189  11.144  27.649  0.00  0.00    -0.071 C 
ATOM     36  H13 non d ame     -36.905  10.728  26.939  0.00  0.00     0.028 H 
ATOM     37  H14 non d ame     -36.288  12.228  27.672  0.00  0.00     0.028 H 
ATOM     38  H15 non d ame     -35.178  10.877  27.341  0.00  0.00     0.028 H 
ENDBRANCH  33  35
BRANCH  33  39
ATOM     39  C13 non d ame     -37.410   9.319  28.999  0.00  0.00    -0.071 C 
ATOM     40  H16 non d ame     -38.235   9.446  29.700  0.00  0.00     0.028 H 
ATOM     41  H17 non d ame     -37.804   9.217  27.987  0.00  0.00     0.028 H 
ATOM     42  H18 non d ame     -36.847   8.423  29.260  0.00  0.00     0.028 H 
ENDBRANCH  33  39
ENDBRANCH   7  33
ENDBRANCH   4   7
ENDBRANCH   1   3
BRANCH   1  43
ATOM     43  C15 non d ame     -32.840   7.196  26.575  0.00  0.00     0.240 C 
ATOM     44  O5  non d ame     -31.896   6.474  26.577  0.00  0.00    -0.271 OA
ATOM     45  N6  non d ame     -33.035   8.157  25.451  0.00  0.00    -0.355 N 
ATOM     46  H46 non d ame     -33.836   8.772  25.436  0.00  0.00     0.162 HD
BRANCH  45  47
ATOM     47  C20 non d ame     -32.047   8.210  24.352  0.00  0.00     0.013 C 
ATOM     48  H30 non d ame     -31.089   7.871  24.747  0.00  0.00     0.072 H 
BRANCH  47  49
ATOM     49  C21 non d ame     -31.928   9.633  23.855  0.00  0.00    -0.038 C 
ATOM     50  H31 non d ame     -31.332   9.577  22.944  0.00  0.00     0.036 H 
ATOM     51  H32 non d ame     -32.948  10.017  23.817  0.00  0.00     0.036 H 
BRANCH  49  52
ATOM     52  C22 non d ame     -31.153  10.546  24.830  0.00  0.00     0.018 C 
ATOM     53  H33 non d ame     -30.958   9.937  25.711  0.00  0.00     0.048 H 
ATOM     54  H34 non d ame     -30.323  10.954  24.254  0.00  0.00     0.048 H 
BRANCH  52  55
ATOM     55  C23 non d ame     -31.973  11.769  25.327  0.00  0.00     0.259 C 
ATOM     56  O7  non d ame     -32.638  11.690  26.309  0.00  0.00    -0.265 OA
BRANCH  55  57
ATOM     57  O8  non d ame     -31.930  12.983  24.587  0.00  0.00    -0.317 OA
BRANCH  57  58
ATOM     58  C29 non d ame     -30.730  13.738  24.774  0.00  0.00     0.052 C 
ATOM     59  H47 non d ame     -30.954  14.459  25.560  0.00  0.00     0.082 H 
ATOM     60  H48 non d ame     -29.938  13.003  24.918  0.00  0.00     0.082 H 
BRANCH  58  61
ATOM     61  C35 non d ame     -30.443  14.514  23.461  0.00  0.00    -0.034 A 
ATOM     62  C30 non d ame     -31.499  14.982  22.685  0.00  0.00    -0.075 A 
ATOM     63  C31 non d ame     -31.242  15.679  21.505  0.00  0.00    -0.082 A 
ATOM     64  H49 non d ame     -32.527  14.802  22.999  0.00  0.00     0.084 H 
ATOM     65  C32 non d ame     -29.924  15.907  21.101  0.00  0.00    -0.083 A 
ATOM     66  H50 non d ame     -32.072  16.046  20.899  0.00  0.00     0.083 H 
ATOM     67  C33 non d ame     -28.874  15.434  21.877  0.00  0.00    -0.082 A 
ATOM     68  H51 non d ame     -29.714  16.452  20.180  0.00  0.00     0.083 H 
ATOM     69  C34 non d ame     -29.126  14.739  23.058  0.00  0.00    -0.075 A 
ATOM     70  H52 non d ame     -27.846  15.611  21.558  0.00  0.00     0.083 H 
ATOM     71  H53 non d ame     -28.296  14.373  23.663  0.00  0.00     0.084 H 
ENDBRANCH  58  61
ENDBRANCH  57  58
ENDBRANCH  55  57
ENDBRANCH  52  55
ENDBRANCH  49  52
ENDBRANCH  47  49
BRANCH  47  72
ATOM     72  C24 non d ame     -32.499   7.305  23.208  0.00  0.00    -0.039 C 
ATOM     73  H35 non d ame     -31.646   6.660  22.994  0.00  0.00     0.036 H 
ATOM     74  H36 non d ame     -33.442   6.868  23.538  0.00  0.00     0.036 H 
BRANCH  72  75
ATOM     75  C25 non d ame     -32.807   8.141  21.877  0.00  0.00    -0.001 C 
ATOM     76  C26 non d ame     -34.431   8.268  21.658  0.00  0.00    -0.035 C 
ATOM     77  C27 non d ame     -34.734   7.877  20.397  0.00  0.00     0.085 C 
ATOM     78  H38 non d ame     -34.951   7.541  22.281  0.00  0.00     0.036 H 
ATOM     79  H39 non d ame     -34.731   9.316  21.679  0.00  0.00     0.036 H 
ATOM     80  N5  non d ame     -33.510   7.186  19.843  0.00  0.00    -0.049 N 
ATOM     81  H40 non d ame     -35.537   7.148  20.503  0.00  0.00     0.075 H 
ATOM     82  H41 non d ame     -34.904   8.797  19.840  0.00  0.00     0.075 H 
ATOM     83  C28 non d ame     -32.297   7.568  20.838  0.00  0.00     0.193 C 
ATOM     84  H42 non d ame     -33.685   6.194  19.916  0.00  0.00     0.280 HD
ATOM     85  H43 non d ame     -33.331   7.603  18.941  0.00  0.00     0.280 HD
ATOM     86  H44 non d ame     -31.556   8.312  20.545  0.00  0.00     0.129 H 
ATOM     87  H37 non d ame     -32.226   9.061  21.824  0.00  0.00     0.046 H 
BRANCH  83  88
ATOM     88  O6  non d ame     -31.552   6.398  21.178  0.00  0.00    -0.369 OA
ATOM     89  H45 non d ame     -32.049   5.874  21.811  0.00  0.00     0.212 HD
ENDBRANCH  83  88
ENDBRANCH  72  75
ENDBRANCH  47  72
ENDBRANCH  45  47
ENDBRANCH   1  43
BRANCH   1  90
ATOM     90  C16 non d ame     -35.091   6.338  27.294  0.00  0.00    -0.035 C 
ATOM     91  H21 non d ame     -35.937   7.008  27.443  0.00  0.00     0.037 H 
ATOM     92  H22 non d ame     -34.851   5.976  26.294  0.00  0.00     0.037 H 
BRANCH  90  93
ATOM     93  C17 non d ame     -35.371   5.073  28.166  0.00  0.00    -0.059 C 
ATOM     94  H23 non d ame     -35.686   4.273  27.496  0.00  0.00     0.038 H 
BRANCH  93  95
ATOM     95  C18 non d ame     -34.095   4.585  28.923  0.00  0.00    -0.073 C 
ATOM     96  H24 non d ame     -33.255   4.539  28.230  0.00  0.00     0.028 H 
ATOM     97  H25 non d ame     -33.862   5.281  29.729  0.00  0.00     0.028 H 
ATOM     98  H26 non d ame     -34.277   3.594  29.340  0.00  0.00     0.028 H 
ENDBRANCH  93  95
BRANCH  93  99
ATOM     99  C19 non d ame     -36.521   5.327  29.145  0.00  0.00    -0.073 C 
ATOM    100  H27 non d ame     -36.120   5.705  30.086  0.00  0.00     0.028 H 
ATOM    101  H28 non d ame     -37.205   6.063  28.720  0.00  0.00     0.028 H 
ATOM    102  H29 non d ame     -37.056   4.396  29.326  0.00  0.00     0.028 H 
ENDBRANCH  93  99
ENDBRANCH  90  93
ENDBRANCH   1  90
TORSDOF 26
ENDMDL
MODEL 9
REMARK VINA RESULT:      -6.8      3.380     10.608
REMARK  26 active torsions:
REMARK  status: ('A' for Active; 'I' for Inactive)
REMARK    1  A    between atoms: C2_2  and  C3_3 
REMARK    2  A    between atoms: C4_6  and  C5_7 
REMARK       I    between atoms: C5_7  and  N2_9 
REMARK    3  A    between atoms: N2_9  and  C6_10 
REMARK    4  A    between atoms: C6_10  and  C7_11 
REMARK    5  A    between atoms: C6_10  and  C8_13 
REMARK       I    between atoms: C7_11  and  N3_14 
REMARK    6  A    between atoms: N3_14  and  C9_15 
REMARK    7  A    between atoms: C9_15  and  C10_16 
REMARK    8  A    between atoms: C9_15  and  C11_18 
REMARK       I    between atoms: C10_16  and  N4_21 
REMARK    9  A    between atoms: C11_18  and  C12_19 
REMARK   10  A    between atoms: C11_18  and  C13_20 
REMARK   11  A    between atoms: N4_21  and  C14_22 
REMARK   12  A    between atoms: C14_22  and  C15_23 
REMARK   13  A    between atoms: C14_22  and  C16_25 
REMARK       I    between atoms: C15_23  and  N6_40 
REMARK   14  A    between atoms: C16_25  and  C17_26 
REMARK   15  A    between atoms: C17_26  and  C18_27 
REMARK   16  A    between atoms: C17_26  and  C19_28 
REMARK   17  A    between atoms: C20_29  and  C21_30 
REMARK   18  A    between atoms: C20_29  and  C24_33 
REMARK   19  A    between atoms: C20_29  and  N6_40 
REMARK   20  A    between atoms: C21_30  and  C22_31 
REMARK   21  A    between atoms: C22_31  and  C23_32 
REMARK   22  A    between atoms: C23_32  and  O8_43 
REMARK   23  A    between atoms: C24_33  and  C25_34 
REMARK   24  A    between atoms: C28_38  and  O6_39 
REMARK   25  A    between atoms: C29_42  and  O8_43 
REMARK   26  A    between atoms: C29_42  and  C35_49 
ROOT
ATOM      1  C14 non d ame     -36.294  13.013  25.949  0.00  0.00     0.089 C 
ATOM      2  H20 non d ame     -37.065  12.971  26.719  0.00  0.00     0.087 H 
ENDROOT
BRANCH   1   3
ATOM      3  N4  non d ame     -35.951  14.413  25.747  0.00  0.00    -0.346 N 
ATOM      4  C10 non d ame     -36.840  15.501  26.293  0.00  0.00     0.241 C 
ATOM      5  O4  non d ame     -37.829  15.227  26.890  0.00  0.00    -0.271 OA
ATOM      6  H19 non d ame     -35.108  14.625  25.234  0.00  0.00     0.163 HD
BRANCH   4   7
ATOM      7  C9  non d ame     -36.467  16.945  26.079  0.00  0.00     0.092 C 
ATOM      8  H11 non d ame     -36.715  17.515  26.974  0.00  0.00     0.088 H 
BRANCH   7   9
ATOM      9  N3  non d ame     -35.018  17.052  25.883  0.00  0.00    -0.346 N 
ATOM     10  C7  non d ame     -34.176  17.497  26.966  0.00  0.00     0.240 C 
ATOM     11  O3  non d ame     -34.647  17.774  28.001  0.00  0.00    -0.271 OA
ATOM     12  H10 non d ame     -34.598  16.818  24.995  0.00  0.00     0.163 HD
BRANCH  10  13
ATOM     13  C6  non d ame     -32.635  17.612  26.751  0.00  0.00     0.086 C 
ATOM     14  H6  non d ame     -32.065  16.997  27.446  0.00  0.00     0.086 H 
BRANCH  13  15
ATOM     15  N2  non d ame     -32.308  17.142  25.415  0.00  0.00    -0.343 N 
ATOM     16  C5  non d ame     -31.460  15.960  25.254  0.00  0.00     0.273 C 
ATOM     17  O2  non d ame     -31.042  15.395  26.204  0.00  0.00    -0.266 OA
ATOM     18  H5  non d ame     -32.667  17.632  24.608  0.00  0.00     0.163 HD
BRANCH  16  19
ATOM     19  C4  non d ame     -31.108  15.451  23.847  0.00  0.00     0.154 A 
ATOM     20  C1  non d ame     -31.219  16.170  22.615  0.00  0.00    -0.017 A 
ATOM     21  C2  non d ame     -30.774  15.265  21.625  0.00  0.00     0.077 A 
ATOM     22  H1  non d ame     -31.568  17.191  22.462  0.00  0.00     0.091 H 
ATOM     23  O1  non d ame     -30.447  14.160  22.228  0.00  0.00    -0.218 OA
ATOM     24  N1  non d ame     -30.633  14.245  23.526  0.00  0.00    -0.123 NA
BRANCH  21  25
ATOM     25  C3  non d ame     -30.691  15.534  20.129  0.00  0.00    -0.029 C 
ATOM     26  H2  non d ame     -31.531  16.157  19.824  0.00  0.00     0.036 H 
ATOM     27  H3  non d ame     -29.757  16.051  19.903  0.00  0.00     0.036 H 
ATOM     28  H4  non d ame     -30.723  14.590  19.586  0.00  0.00     0.036 H 
ENDBRANCH  21  25
ENDBRANCH  16  19
ENDBRANCH  13  15
BRANCH  13  29
ATOM     29  C8  non d ame     -32.209  19.049  26.911  0.00  0.00    -0.049 C 
ATOM     30  H7  non d ame     -32.790  19.515  27.706  0.00  0.00     0.030 H 
ATOM     31  H8  non d ame     -31.150  19.088  27.167  0.00  0.00     0.030 H 
ATOM     32  H9  non d ame     -32.377  19.585  25.976  0.00  0.00     0.030 H 
ENDBRANCH  13  29
ENDBRANCH  10  13
ENDBRANCH   7   9
BRANCH   7  33
ATOM     33  C11 non d ame     -37.200  17.487  24.816  0.00  0.00    -0.033 C 
ATOM     34  H12 non d ame     -36.492  18.108  24.267  0.00  0.00     0.042 H 
BRANCH  33  35
ATOM     35  C12 non d ame     -37.637  16.325  23.871  0.00  0.00    -0.071 C 
ATOM     36  H13 non d ame     -38.725  16.263  23.851  0.00  0.00     0.028 H 
ATOM     37  H14 non d ame     -37.265  16.516  22.865  0.00  0.00     0.028 H 
ATOM     38  H15 non d ame     -37.227  15.384  24.238  0.00  0.00     0.028 H 
ENDBRANCH  33  35
BRANCH  33  39
ATOM     39  C13 non d ame     -38.417  18.381  25.217  0.00  0.00    -0.071 C 
ATOM     40  H16 non d ame     -38.912  17.952  26.088  0.00  0.00     0.028 H 
ATOM     41  H17 non d ame     -38.068  19.386  25.454  0.00  0.00     0.028 H 
ATOM     42  H18 non d ame     -39.121  18.429  24.387  0.00  0.00     0.028 H 
ENDBRANCH  33  39
ENDBRANCH   7  33
ENDBRANCH   4   7
ENDBRANCH   1   3
BRANCH   1  43
ATOM     43  C15 non d ame     -35.008  12.242  26.364  0.00  0.00     0.240 C 
ATOM     44  O5  non d ame     -34.313  11.760  25.529  0.00  0.00    -0.271 OA
ATOM     45  N6  non d ame     -34.636  12.115  27.802  0.00  0.00    -0.355 N 
ATOM     46  H46 non d ame     -35.217  12.525  28.520  0.00  0.00     0.162 HD
BRANCH  45  47
ATOM     47  C20 non d ame     -33.410  11.380  28.179  0.00  0.00     0.013 C 
ATOM     48  H30 non d ame     -33.217  10.633  27.409  0.00  0.00     0.072 H 
BRANCH  47  49
ATOM     49  C21 non d ame     -33.623  10.703  29.514  0.00  0.00    -0.038 C 
ATOM     50  H31 non d ame     -32.688  10.832  30.062  0.00  0.00     0.036 H 
ATOM     51  H32 non d ame     -34.549  11.121  29.911  0.00  0.00     0.036 H 
BRANCH  49  52
ATOM     52  C22 non d ame     -33.849   9.181  29.386  0.00  0.00     0.018 C 
ATOM     53  H33 non d ame     -33.410   8.898  28.430  0.00  0.00     0.048 H 
ATOM     54  H34 non d ame     -33.470   8.748  30.311  0.00  0.00     0.048 H 
BRANCH  52  55
ATOM     55  C23 non d ame     -35.347   8.776  29.306  0.00  0.00     0.259 C 
ATOM     56  O7  non d ame     -36.036   9.182  28.426  0.00  0.00    -0.265 OA
BRANCH  55  57
ATOM     57  O8  non d ame     -35.893   7.925  30.306  0.00  0.00    -0.317 OA
BRANCH  57  58
ATOM     58  C29 non d ame     -36.248   6.622  29.833  0.00  0.00     0.052 C 
ATOM     59  H47 non d ame     -37.104   6.314  30.432  0.00  0.00     0.082 H 
ATOM     60  H48 non d ame     -36.343   6.717  28.752  0.00  0.00     0.082 H 
BRANCH  58  61
ATOM     61  C35 non d ame     -35.065   5.664  30.138  0.00  0.00    -0.034 A 
ATOM     62  C30 non d ame     -34.747   5.348  31.455  0.00  0.00    -0.075 A 
ATOM     63  C31 non d ame     -33.684   4.489  31.729  0.00  0.00    -0.082 A 
ATOM     64  H49 non d ame     -35.328   5.775  32.272  0.00  0.00     0.084 H 
ATOM     65  C32 non d ame     -32.937   3.945  30.680  0.00  0.00    -0.083 A 
ATOM     66  H50 non d ame     -33.438   4.241  32.763  0.00  0.00     0.083 H 
ATOM     67  C33 non d ame     -33.257   4.266  29.368  0.00  0.00    -0.082 A 
ATOM     68  H51 non d ame     -32.105   3.271  30.886  0.00  0.00     0.083 H 
ATOM     69  C34 non d ame     -34.319   5.124  29.089  0.00  0.00    -0.075 A 
ATOM     70  H52 non d ame     -32.670   3.842  28.552  0.00  0.00     0.083 H 
ATOM     71  H53 non d ame     -34.564   5.370  28.056  0.00  0.00     0.084 H 
ENDBRANCH  58  61
ENDBRANCH  57  58
ENDBRANCH  55  57
ENDBRANCH  52  55
ENDBRANCH  49  52
ENDBRANCH  47  49
BRANCH  47  72
ATOM     72  C24 non d ame     -32.236  12.352  28.281  0.00  0.00    -0.039 C 
ATOM     73  H35 non d ame     -31.351  11.727  28.403  0.00  0.00     0.036 H 
ATOM     74  H36 non d ame     -32.325  13.006  27.413  0.00  0.00     0.036 H 
BRANCH  72  75
ATOM     75  C25 non d ame     -32.345  13.279  29.583  0.00  0.00    -0.001 C 
ATOM     76  C26 non d ame     -32.704  14.821  29.144  0.00  0.00    -0.035 C 
ATOM     77  C27 non d ame     -31.818  15.661  29.731  0.00  0.00     0.085 C 
ATOM     78  H38 non d ame     -32.520  14.960  28.079  0.00  0.00     0.036 H 
ATOM     79  H39 non d ame     -33.661  15.120  29.574  0.00  0.00     0.036 H 
ATOM     80  N5  non d ame     -30.691  14.809  30.264  0.00  0.00    -0.049 N 
ATOM     81  H40 non d ame     -31.437  16.291  28.927  0.00  0.00     0.075 H 
ATOM     82  H41 non d ame     -32.351  16.109  30.568  0.00  0.00     0.075 H 
ATOM     83  C28 non d ame     -31.235  13.289  30.242  0.00  0.00     0.193 C 
ATOM     84  H42 non d ame     -29.934  14.888  29.601  0.00  0.00     0.280 HD
ATOM     85  H43 non d ame     -30.553  15.088  31.225  0.00  0.00     0.280 HD
ATOM     86  H44 non d ame     -31.549  12.801  31.166  0.00  0.00     0.129 H 
ATOM     87  H37 non d ame     -32.962  12.828  30.360  0.00  0.00     0.046 H 
BRANCH  83  88
ATOM     88  O6  non d ame     -30.256  12.423  29.665  0.00  0.00    -0.369 OA
ATOM     89  H45 non d ame     -29.518  12.324  30.272  0.00  0.00     0.212 HD
ENDBRANCH  83  88
ENDBRANCH  72  75
ENDBRANCH  47  72
ENDBRANCH  45  47
ENDBRANCH   1  43
BRANCH   1  90
ATOM     90  C16 non d ame     -36.835  12.441  24.648  0.00  0.00    -0.035 C 
ATOM     91  H21 non d ame     -36.349  13.012  23.858  0.00  0.00     0.037 H 
ATOM     92  H22 non d ame     -36.679  11.365  24.719  0.00  0.00     0.037 H 
BRANCH  90  93
ATOM     93  C17 non d ame     -38.372  12.653  24.462  0.00  0.00    -0.059 C 
ATOM     94  H23 non d ame     -38.555  13.727  24.426  0.00  0.00     0.038 H 
BRANCH  93  95
ATOM     95  C18 non d ame     -38.894  12.037  23.125  0.00  0.00    -0.073 C 
ATOM     96  H24 non d ame     -38.050  11.695  22.527  0.00  0.00     0.028 H 
ATOM     97  H25 non d ame     -39.547  11.193  23.346  0.00  0.00     0.028 H 
ATOM     98  H26 non d ame     -39.451  12.792  22.570  0.00  0.00     0.028 H 
ENDBRANCH  93  95
BRANCH  93  99
ATOM     99  C19 non d ame     -39.149  12.098  25.658  0.00  0.00    -0.073 C 
ATOM    100  H27 non d ame     -38.817  11.080  25.866  0.00  0.00     0.028 H 
ATOM    101  H28 non d ame     -38.969  12.723  26.533  0.00  0.00     0.028 H 
ATOM    102  H29 non d ame     -40.214  12.093  25.429  0.00  0.00     0.028 H 
ENDBRANCH  93  99
ENDBRANCH  90  93
ENDBRANCH   1  90
TORSDOF 26
ENDMDL
MODEL 10
REMARK VINA RESULT:      -6.8      2.880     10.059
REMARK  26 active torsions:
REMARK  status: ('A' for Active; 'I' for Inactive)
REMARK    1  A    between atoms: C2_2  and  C3_3 
REMARK    2  A    between atoms: C4_6  and  C5_7 
REMARK       I    between atoms: C5_7  and  N2_9 
REMARK    3  A    between atoms: N2_9  and  C6_10 
REMARK    4  A    between atoms: C6_10  and  C7_11 
REMARK    5  A    between atoms: C6_10  and  C8_13 
REMARK       I    between atoms: C7_11  and  N3_14 
REMARK    6  A    between atoms: N3_14  and  C9_15 
REMARK    7  A    between atoms: C9_15  and  C10_16 
REMARK    8  A    between atoms: C9_15  and  C11_18 
REMARK       I    between atoms: C10_16  and  N4_21 
REMARK    9  A    between atoms: C11_18  and  C12_19 
REMARK   10  A    between atoms: C11_18  and  C13_20 
REMARK   11  A    between atoms: N4_21  and  C14_22 
REMARK   12  A    between atoms: C14_22  and  C15_23 
REMARK   13  A    between atoms: C14_22  and  C16_25 
REMARK       I    between atoms: C15_23  and  N6_40 
REMARK   14  A    between atoms: C16_25  and  C17_26 
REMARK   15  A    between atoms: C17_26  and  C18_27 
REMARK   16  A    between atoms: C17_26  and  C19_28 
REMARK   17  A    between atoms: C20_29  and  C21_30 
REMARK   18  A    between atoms: C20_29  and  C24_33 
REMARK   19  A    between atoms: C20_29  and  N6_40 
REMARK   20  A    between atoms: C21_30  and  C22_31 
REMARK   21  A    between atoms: C22_31  and  C23_32 
REMARK   22  A    between atoms: C23_32  and  O8_43 
REMARK   23  A    between atoms: C24_33  and  C25_34 
REMARK   24  A    between atoms: C28_38  and  O6_39 
REMARK   25  A    between atoms: C29_42  and  O8_43 
REMARK   26  A    between atoms: C29_42  and  C35_49 
ROOT
ATOM      1  C14 non d ame     -35.581   9.984  28.130  0.00  0.00     0.089 C 
ATOM      2  H20 non d ame     -35.489   9.251  28.931  0.00  0.00     0.087 H 
ENDROOT
BRANCH   1   3
ATOM      3  N4  non d ame     -34.586  11.019  28.366  0.00  0.00    -0.346 N 
ATOM      4  C10 non d ame     -33.205  10.653  28.848  0.00  0.00     0.241 C 
ATOM      5  O4  non d ame     -32.918   9.517  29.041  0.00  0.00    -0.271 OA
ATOM      6  H19 non d ame     -34.851  11.979  28.199  0.00  0.00     0.163 HD
BRANCH   4   7
ATOM      7  C9  non d ame     -32.186  11.736  29.083  0.00  0.00     0.092 C 
ATOM      8  H11 non d ame     -31.213  11.396  28.728  0.00  0.00     0.088 H 
BRANCH   7   9
ATOM      9  N3  non d ame     -32.543  12.922  28.299  0.00  0.00    -0.346 N 
ATOM     10  C7  non d ame     -31.784  13.263  27.121  0.00  0.00     0.240 C 
ATOM     11  O3  non d ame     -30.883  12.594  26.790  0.00  0.00    -0.271 OA
ATOM     12  H10 non d ame     -33.318  13.510  28.573  0.00  0.00     0.163 HD
BRANCH  10  13
ATOM     13  C6  non d ame     -32.167  14.528  26.292  0.00  0.00     0.086 C 
ATOM     14  H6  non d ame     -31.669  15.430  26.646  0.00  0.00     0.086 H 
BRANCH  13  15
ATOM     15  N2  non d ame     -31.747  14.335  24.914  0.00  0.00    -0.343 N 
ATOM     16  C5  non d ame     -31.282  15.483  24.134  0.00  0.00     0.273 C 
ATOM     17  O2  non d ame     -31.252  16.559  24.622  0.00  0.00    -0.266 OA
ATOM     18  H5  non d ame     -31.779  13.412  24.504  0.00  0.00     0.163 HD
BRANCH  16  19
ATOM     19  C4  non d ame     -30.835  15.292  22.675  0.00  0.00     0.154 A 
ATOM     20  C1  non d ame     -31.065  16.179  21.577  0.00  0.00    -0.017 A 
ATOM     21  C2  non d ame     -30.458  15.549  20.468  0.00  0.00     0.077 A 
ATOM     22  H1  non d ame     -31.592  17.133  21.584  0.00  0.00     0.091 H 
ATOM     23  O1  non d ame     -29.941  14.433  20.891  0.00  0.00    -0.218 OA
ATOM     24  N1  non d ame     -30.148  14.261  22.176  0.00  0.00    -0.123 NA
BRANCH  21  25
ATOM     25  C3  non d ame     -30.416  16.080  19.042  0.00  0.00    -0.029 C 
ATOM     26  H2  non d ame     -29.431  15.894  18.614  0.00  0.00     0.036 H 
ATOM     27  H3  non d ame     -31.172  15.573  18.442  0.00  0.00     0.036 H 
ATOM     28  H4  non d ame     -30.614  17.151  19.045  0.00  0.00     0.036 H 
ENDBRANCH  21  25
ENDBRANCH  16  19
ENDBRANCH  13  15
BRANCH  13  29
ATOM     29  C8  non d ame     -33.658  14.740  26.354  0.00  0.00    -0.049 C 
ATOM     30  H7  non d ame     -34.044  14.344  27.292  0.00  0.00     0.030 H 
ATOM     31  H8  non d ame     -33.877  15.806  26.293  0.00  0.00     0.030 H 
ATOM     32  H9  non d ame     -34.133  14.223  25.519  0.00  0.00     0.030 H 
ENDBRANCH  13  29
ENDBRANCH  10  13
ENDBRANCH   7   9
BRANCH   7  33
ATOM     33  C11 non d ame     -32.162  12.106  30.595  0.00  0.00    -0.033 C 
ATOM     34  H12 non d ame     -32.322  13.181  30.674  0.00  0.00     0.042 H 
BRANCH  33  35
ATOM     35  C12 non d ame     -33.320  11.402  31.370  0.00  0.00    -0.071 C 
ATOM     36  H13 non d ame     -34.277  11.695  30.937  0.00  0.00     0.028 H 
ATOM     37  H14 non d ame     -33.203  10.321  31.295  0.00  0.00     0.028 H 
ATOM     38  H15 non d ame     -33.290  11.700  32.418  0.00  0.00     0.028 H 
ENDBRANCH  33  35
BRANCH  33  39
ATOM     39  C13 non d ame     -30.773  11.776  31.230  0.00  0.00    -0.071 C 
ATOM     40  H16 non d ame     -30.893  10.998  31.984  0.00  0.00     0.028 H 
ATOM     41  H17 non d ame     -30.091  11.428  30.453  0.00  0.00     0.028 H 
ATOM     42  H18 non d ame     -30.364  12.673  31.695  0.00  0.00     0.028 H 
ENDBRANCH  33  39
ENDBRANCH   7  33
ENDBRANCH   4   7
ENDBRANCH   1   3
BRANCH   1  43
ATOM     43  C15 non d ame     -35.323   9.359  26.729  0.00  0.00     0.240 C 
ATOM     44  O5  non d ame     -35.882   9.794  25.775  0.00  0.00    -0.271 OA
ATOM     45  N6  non d ame     -34.369   8.224  26.574  0.00  0.00    -0.355 N 
ATOM     46  H46 non d ame     -33.884   7.848  27.377  0.00  0.00     0.162 HD
BRANCH  45  47
ATOM     47  C20 non d ame     -34.134   7.641  25.236  0.00  0.00     0.013 C 
ATOM     48  H30 non d ame     -34.821   8.119  24.537  0.00  0.00     0.072 H 
BRANCH  47  49
ATOM     49  C21 non d ame     -34.397   6.153  25.284  0.00  0.00    -0.038 C 
ATOM     50  H31 non d ame     -33.512   5.683  24.853  0.00  0.00     0.036 H 
ATOM     51  H32 non d ame     -34.680   5.938  26.315  0.00  0.00     0.036 H 
BRANCH  49  52
ATOM     52  C22 non d ame     -35.592   5.727  24.404  0.00  0.00     0.018 C 
ATOM     53  H33 non d ame     -36.147   6.641  24.197  0.00  0.00     0.048 H 
ATOM     54  H34 non d ame     -35.164   5.151  23.584  0.00  0.00     0.048 H 
BRANCH  52  55
ATOM     55  C23 non d ame     -36.589   4.774  25.122  0.00  0.00     0.259 C 
ATOM     56  O7  non d ame     -37.477   4.266  24.518  0.00  0.00    -0.265 OA
BRANCH  55  57
ATOM     57  O8  non d ame     -36.436   4.526  26.514  0.00  0.00    -0.317 OA
BRANCH  57  58
ATOM     58  C29 non d ame     -37.435   5.147  27.329  0.00  0.00     0.052 C 
ATOM     59  H47 non d ame     -37.654   6.102  26.851  0.00  0.00     0.082 H 
ATOM     60  H48 non d ame     -38.222   4.404  27.450  0.00  0.00     0.082 H 
BRANCH  58  61
ATOM     61  C35 non d ame     -36.809   5.428  28.722  0.00  0.00    -0.034 A 
ATOM     62  C30 non d ame     -37.625   5.525  29.845  0.00  0.00    -0.075 A 
ATOM     63  C31 non d ame     -37.063   5.778  31.096  0.00  0.00    -0.082 A 
ATOM     64  H49 non d ame     -38.703   5.406  29.746  0.00  0.00     0.084 H 
ATOM     65  C32 non d ame     -35.680   5.934  31.221  0.00  0.00    -0.083 A 
ATOM     66  H50 non d ame     -37.705   5.852  31.975  0.00  0.00     0.083 H 
ATOM     67  C33 non d ame     -34.870   5.839  30.097  0.00  0.00    -0.082 A 
ATOM     68  H51 non d ame     -35.232   6.130  32.196  0.00  0.00     0.083 H 
ATOM     69  C34 non d ame     -35.427   5.586  28.845  0.00  0.00    -0.075 A 
ATOM     70  H52 non d ame     -33.791   5.964  30.198  0.00  0.00     0.083 H 
ATOM     71  H53 non d ame     -34.785   5.511  27.968  0.00  0.00     0.084 H 
ENDBRANCH  58  61
ENDBRANCH  57  58
ENDBRANCH  55  57
ENDBRANCH  52  55
ENDBRANCH  49  52
ENDBRANCH  47  49
BRANCH  47  72
ATOM     72  C24 non d ame     -32.688   7.890  24.811  0.00  0.00    -0.039 C 
ATOM     73  H35 non d ame     -32.117   7.935  25.740  0.00  0.00     0.036 H 
ATOM     74  H36 non d ame     -32.465   7.120  24.073  0.00  0.00     0.036 H 
BRANCH  72  75
ATOM     75  C25 non d ame     -32.519   9.307  24.084  0.00  0.00    -0.001 C 
ATOM     76  C26 non d ame     -31.579   9.141  22.746  0.00  0.00    -0.035 C 
ATOM     77  C27 non d ame     -30.590  10.066  22.789  0.00  0.00     0.085 C 
ATOM     78  H38 non d ame     -31.042   8.193  22.781  0.00  0.00     0.036 H 
ATOM     79  H39 non d ame     -32.144   9.414  21.854  0.00  0.00     0.036 H 
ATOM     80  N5  non d ame     -30.575  10.630  24.190  0.00  0.00    -0.049 N 
ATOM     81  H40 non d ame     -29.666   9.512  22.619  0.00  0.00     0.075 H 
ATOM     82  H41 non d ame     -30.892  10.848  22.094  0.00  0.00     0.075 H 
ATOM     83  C28 non d ame     -31.967  10.172  24.867  0.00  0.00     0.193 C 
ATOM     84  H42 non d ame     -29.816  10.174  24.674  0.00  0.00     0.280 HD
ATOM     85  H43 non d ame     -30.581  11.636  24.091  0.00  0.00     0.280 HD
ATOM     86  H44 non d ame     -32.785  10.883  24.985  0.00  0.00     0.129 H 
ATOM     87  H37 non d ame     -33.471   9.823  23.959  0.00  0.00     0.046 H 
BRANCH  83  88
ATOM     88  O6  non d ame     -31.729   9.643  26.173  0.00  0.00    -0.369 OA
ATOM     89  H45 non d ame     -30.899   9.988  26.512  0.00  0.00     0.212 HD
ENDBRANCH  83  88
ENDBRANCH  72  75
ENDBRANCH  47  72
ENDBRANCH  45  47
ENDBRANCH   1  43
BRANCH   1  90
ATOM     90  C16 non d ame     -36.967  10.610  28.162  0.00  0.00    -0.035 C 
ATOM     91  H21 non d ame     -36.832  11.584  28.629  0.00  0.00     0.037 H 
ATOM     92  H22 non d ame     -37.338  10.541  27.139  0.00  0.00     0.037 H 
BRANCH  90  93
ATOM     93  C17 non d ame     -37.985   9.830  29.054  0.00  0.00    -0.059 C 
ATOM     94  H23 non d ame     -38.759  10.533  29.362  0.00  0.00     0.038 H 
BRANCH  93  95
ATOM     95  C18 non d ame     -38.679   8.667  28.278  0.00  0.00    -0.073 C 
ATOM     96  H24 non d ame     -39.033   7.917  28.985  0.00  0.00     0.028 H 
ATOM     97  H25 non d ame     -39.526   9.060  27.714  0.00  0.00     0.028 H 
ATOM     98  H26 non d ame     -37.966   8.211  27.591  0.00  0.00     0.028 H 
ENDBRANCH  93  95
BRANCH  93  99
ATOM     99  C19 non d ame     -37.310   9.309  30.326  0.00  0.00    -0.073 C 
ATOM    100  H27 non d ame     -36.269   9.064  30.110  0.00  0.00     0.028 H 
ATOM    101  H28 non d ame     -37.349  10.076  31.100  0.00  0.00     0.028 H 
ATOM    102  H29 non d ame     -37.830   8.416  30.673  0.00  0.00     0.028 H 
ENDBRANCH  93  99
ENDBRANCH  90  93
ENDBRANCH   1  90
TORSDOF 26
ENDMDL
MODEL 11
REMARK VINA RESULT:      -6.8      2.507      4.494
REMARK  26 active torsions:
REMARK  status: ('A' for Active; 'I' for Inactive)
REMARK    1  A    between atoms: C2_2  and  C3_3 
REMARK    2  A    between atoms: C4_6  and  C5_7 
REMARK       I    between atoms: C5_7  and  N2_9 
REMARK    3  A    between atoms: N2_9  and  C6_10 
REMARK    4  A    between atoms: C6_10  and  C7_11 
REMARK    5  A    between atoms: C6_10  and  C8_13 
REMARK       I    between atoms: C7_11  and  N3_14 
REMARK    6  A    between atoms: N3_14  and  C9_15 
REMARK    7  A    between atoms: C9_15  and  C10_16 
REMARK    8  A    between atoms: C9_15  and  C11_18 
REMARK       I    between atoms: C10_16  and  N4_21 
REMARK    9  A    between atoms: C11_18  and  C12_19 
REMARK   10  A    between atoms: C11_18  and  C13_20 
REMARK   11  A    between atoms: N4_21  and  C14_22 
REMARK   12  A    between atoms: C14_22  and  C15_23 
REMARK   13  A    between atoms: C14_22  and  C16_25 
REMARK       I    between atoms: C15_23  and  N6_40 
REMARK   14  A    between atoms: C16_25  and  C17_26 
REMARK   15  A    between atoms: C17_26  and  C18_27 
REMARK   16  A    between atoms: C17_26  and  C19_28 
REMARK   17  A    between atoms: C20_29  and  C21_30 
REMARK   18  A    between atoms: C20_29  and  C24_33 
REMARK   19  A    between atoms: C20_29  and  N6_40 
REMARK   20  A    between atoms: C21_30  and  C22_31 
REMARK   21  A    between atoms: C22_31  and  C23_32 
REMARK   22  A    between atoms: C23_32  and  O8_43 
REMARK   23  A    between atoms: C24_33  and  C25_34 
REMARK   24  A    between atoms: C28_38  and  O6_39 
REMARK   25  A    between atoms: C29_42  and  O8_43 
REMARK   26  A    between atoms: C29_42  and  C35_49 
ROOT
ATOM      1  C14 non d ame     -31.968   9.820  25.044  0.00  0.00     0.089 C 
ATOM      2  H20 non d ame     -31.242   9.088  25.399  0.00  0.00     0.087 H 
ENDROOT
BRANCH   1   3
ATOM      3  N4  non d ame     -33.288   9.359  25.447  0.00  0.00    -0.346 N 
ATOM      4  C10 non d ame     -33.561   7.887  25.621  0.00  0.00     0.241 C 
ATOM      5  O4  non d ame     -32.702   7.090  25.429  0.00  0.00    -0.271 OA
ATOM      6  H19 non d ame     -34.006  10.052  25.602  0.00  0.00     0.163 HD
BRANCH   4   7
ATOM      7  C9  non d ame     -34.932   7.427  26.042  0.00  0.00     0.092 C 
ATOM      8  H11 non d ame     -34.852   6.448  26.514  0.00  0.00     0.088 H 
BRANCH   7   9
ATOM      9  N3  non d ame     -35.470   8.350  27.046  0.00  0.00    -0.346 N 
ATOM     10  C7  non d ame     -35.181   8.142  28.444  0.00  0.00     0.240 C 
ATOM     11  O3  non d ame     -34.519   7.237  28.778  0.00  0.00    -0.271 OA
ATOM     12  H10 non d ame     -36.044   9.135  26.772  0.00  0.00     0.163 HD
BRANCH  10  13
ATOM     13  C6  non d ame     -35.759   9.126  29.508  0.00  0.00     0.086 C 
ATOM     14  H6  non d ame     -36.170   8.613  30.377  0.00  0.00     0.086 H 
BRANCH  13  15
ATOM     15  N2  non d ame     -34.686   9.977  29.996  0.00  0.00    -0.343 N 
ATOM     16  C5  non d ame     -33.951  10.823  29.054  0.00  0.00     0.273 C 
ATOM     17  O2  non d ame     -34.228  10.810  27.905  0.00  0.00    -0.266 OA
ATOM     18  H5  non d ame     -34.455   9.979  30.979  0.00  0.00     0.163 HD
BRANCH  16  19
ATOM     19  C4  non d ame     -32.815  11.728  29.557  0.00  0.00     0.154 A 
ATOM     20  C1  non d ame     -32.564  13.087  29.188  0.00  0.00    -0.017 A 
ATOM     21  C2  non d ame     -31.415  13.456  29.922  0.00  0.00     0.077 A 
ATOM     22  H1  non d ame     -33.129  13.709  28.494  0.00  0.00     0.091 H 
ATOM     23  O1  non d ame     -31.057  12.425  30.628  0.00  0.00    -0.218 OA
ATOM     24  N1  non d ame     -31.859  11.403  30.432  0.00  0.00    -0.123 NA
BRANCH  21  25
ATOM     25  C3  non d ame     -30.725  14.813  29.893  0.00  0.00    -0.029 C 
ATOM     26  H2  non d ame     -29.974  14.823  29.103  0.00  0.00     0.036 H 
ATOM     27  H3  non d ame     -31.463  15.593  29.700  0.00  0.00     0.036 H 
ATOM     28  H4  non d ame     -30.244  14.998  30.853  0.00  0.00     0.036 H 
ENDBRANCH  21  25
ENDBRANCH  16  19
ENDBRANCH  13  15
BRANCH  13  29
ATOM     29  C8  non d ame     -36.842   9.968  28.883  0.00  0.00    -0.049 C 
ATOM     30  H7  non d ame     -36.454  10.457  27.990  0.00  0.00     0.030 H 
ATOM     31  H8  non d ame     -37.685   9.333  28.611  0.00  0.00     0.030 H 
ATOM     32  H9  non d ame     -37.172  10.724  29.597  0.00  0.00     0.030 H 
ENDBRANCH  13  29
ENDBRANCH  10  13
ENDBRANCH   7   9
BRANCH   7  33
ATOM     33  C11 non d ame     -35.875   7.406  24.803  0.00  0.00    -0.033 C 
ATOM     34  H12 non d ame     -35.253   7.508  23.915  0.00  0.00     0.042 H 
BRANCH  33  35
ATOM     35  C12 non d ame     -36.634   6.048  24.691  0.00  0.00    -0.071 C 
ATOM     36  H13 non d ame     -36.160   5.427  23.931  0.00  0.00     0.028 H 
ATOM     37  H14 non d ame     -36.603   5.533  25.651  0.00  0.00     0.028 H 
ATOM     38  H15 non d ame     -37.671   6.233  24.411  0.00  0.00     0.028 H 
ENDBRANCH  33  35
BRANCH  33  39
ATOM     39  C13 non d ame     -36.869   8.610  24.837  0.00  0.00    -0.071 C 
ATOM     40  H16 non d ame     -37.637   8.470  24.076  0.00  0.00     0.028 H 
ATOM     41  H17 non d ame     -37.338   8.669  25.820  0.00  0.00     0.028 H 
ATOM     42  H18 non d ame     -36.327   9.535  24.639  0.00  0.00     0.028 H 
ENDBRANCH  33  39
ENDBRANCH   7  33
ENDBRANCH   4   7
ENDBRANCH   1   3
BRANCH   1  43
ATOM     43  C15 non d ame     -31.727  11.230  25.658  0.00  0.00     0.240 C 
ATOM     44  O5  non d ame     -31.011  11.351  26.598  0.00  0.00    -0.271 OA
ATOM     45  N6  non d ame     -32.382  12.431  25.066  0.00  0.00    -0.355 N 
ATOM     46  H46 non d ame     -32.989  12.342  24.263  0.00  0.00     0.162 HD
BRANCH  45  47
ATOM     47  C20 non d ame     -32.142  13.764  25.661  0.00  0.00     0.013 C 
ATOM     48  H30 non d ame     -31.878  13.620  26.708  0.00  0.00     0.072 H 
BRANCH  47  49
ATOM     49  C21 non d ame     -33.402  14.594  25.553  0.00  0.00    -0.038 C 
ATOM     50  H31 non d ame     -33.279  15.408  26.268  0.00  0.00     0.036 H 
ATOM     51  H32 non d ame     -33.520  14.813  24.491  0.00  0.00     0.036 H 
BRANCH  49  52
ATOM     52  C22 non d ame     -34.667  13.820  25.983  0.00  0.00     0.018 C 
ATOM     53  H33 non d ame     -35.203  13.595  25.061  0.00  0.00     0.048 H 
ATOM     54  H34 non d ame     -34.315  13.010  26.621  0.00  0.00     0.048 H 
BRANCH  52  55
ATOM     55  C23 non d ame     -35.646  14.656  26.854  0.00  0.00     0.259 C 
ATOM     56  O7  non d ame     -36.803  14.385  26.891  0.00  0.00    -0.265 OA
BRANCH  55  57
ATOM     57  O8  non d ame     -35.147  15.762  27.598  0.00  0.00    -0.317 OA
BRANCH  57  58
ATOM     58  C29 non d ame     -35.829  16.992  27.341  0.00  0.00     0.052 C 
ATOM     59  H47 non d ame     -36.429  16.817  26.449  0.00  0.00     0.082 H 
ATOM     60  H48 non d ame     -36.312  17.263  28.279  0.00  0.00     0.082 H 
BRANCH  58  61
ATOM     61  C35 non d ame     -34.762  18.071  27.011  0.00  0.00    -0.034 A 
ATOM     62  C30 non d ame     -34.290  18.912  28.014  0.00  0.00    -0.075 A 
ATOM     63  C31 non d ame     -33.332  19.881  27.717  0.00  0.00    -0.082 A 
ATOM     64  H49 non d ame     -34.670  18.814  29.031  0.00  0.00     0.084 H 
ATOM     65  C32 non d ame     -32.847  20.008  26.413  0.00  0.00    -0.083 A 
ATOM     66  H50 non d ame     -32.962  20.538  28.506  0.00  0.00     0.083 H 
ATOM     67  C33 non d ame     -33.325  19.169  25.416  0.00  0.00    -0.082 A 
ATOM     68  H51 non d ame     -32.098  20.763  26.173  0.00  0.00     0.083 H 
ATOM     69  C34 non d ame     -34.281  18.198  25.707  0.00  0.00    -0.075 A 
ATOM     70  H52 non d ame     -32.947  19.272  24.397  0.00  0.00     0.083 H 
ATOM     71  H53 non d ame     -34.649  17.541  24.919  0.00  0.00     0.084 H 
ENDBRANCH  58  61
ENDBRANCH  57  58
ENDBRANCH  55  57
ENDBRANCH  52  55
ENDBRANCH  49  52
ENDBRANCH  47  49
BRANCH  47  72
ATOM     72  C24 non d ame     -31.005  14.463  24.918  0.00  0.00    -0.039 C 
ATOM     73  H35 non d ame     -31.078  15.514  25.201  0.00  0.00     0.036 H 
ATOM     74  H36 non d ame     -30.107  13.894  25.162  0.00  0.00     0.036 H 
BRANCH  72  75
ATOM     75  C25 non d ame     -31.198  14.386  23.330  0.00  0.00    -0.001 C 
ATOM     76  C26 non d ame     -29.919  13.611  22.648  0.00  0.00    -0.035 C 
ATOM     77  C27 non d ame     -29.431  14.375  21.642  0.00  0.00     0.085 C 
ATOM     78  H38 non d ame     -29.091  13.561  23.355  0.00  0.00     0.036 H 
ATOM     79  H39 non d ame     -30.256  12.707  22.140  0.00  0.00     0.036 H 
ATOM     80  N5  non d ame     -30.051  15.745  21.787  0.00  0.00    -0.049 N 
ATOM     81  H40 non d ame     -28.359  14.449  21.826  0.00  0.00     0.075 H 
ATOM     82  H41 non d ame     -29.796  13.916  20.724  0.00  0.00     0.075 H 
ATOM     83  C28 non d ame     -31.285  15.566  22.813  0.00  0.00     0.193 C 
ATOM     84  H42 non d ame     -29.353  16.329  22.223  0.00  0.00     0.280 HD
ATOM     85  H43 non d ame     -30.420  15.988  20.879  0.00  0.00     0.280 HD
ATOM     86  H44 non d ame     -32.311  15.546  22.445  0.00  0.00     0.129 H 
ATOM     87  H37 non d ame     -32.193  14.041  23.052  0.00  0.00     0.046 H 
BRANCH  83  88
ATOM     88  O6  non d ame     -31.254  16.594  23.805  0.00  0.00    -0.369 OA
ATOM     89  H45 non d ame     -32.130  16.697  24.186  0.00  0.00     0.212 HD
ENDBRANCH  83  88
ENDBRANCH  72  75
ENDBRANCH  47  72
ENDBRANCH  45  47
ENDBRANCH   1  43
BRANCH   1  90
ATOM     90  C16 non d ame     -31.913   9.907  23.527  0.00  0.00    -0.035 C 
ATOM     91  H21 non d ame     -32.888   9.566  23.183  0.00  0.00     0.037 H 
ATOM     92  H22 non d ame     -31.581  10.922  23.309  0.00  0.00     0.037 H 
BRANCH  90  93
ATOM     93  C17 non d ame     -30.859   8.950  22.884  0.00  0.00    -0.059 C 
ATOM     94  H23 non d ame     -30.477   8.302  23.672  0.00  0.00     0.038 H 
BRANCH  93  95
ATOM     95  C18 non d ame     -31.486   8.039  21.781  0.00  0.00    -0.073 C 
ATOM     96  H24 non d ame     -30.808   7.214  21.561  0.00  0.00     0.028 H 
ATOM     97  H25 non d ame     -32.437   7.642  22.135  0.00  0.00     0.028 H 
ATOM     98  H26 non d ame     -31.651   8.625  20.876  0.00  0.00     0.028 H 
ENDBRANCH  93  95
BRANCH  93  99
ATOM     99  C19 non d ame     -29.671   9.739  22.327  0.00  0.00    -0.073 C 
ATOM    100  H27 non d ame     -30.033  10.498  21.632  0.00  0.00     0.028 H 
ATOM    101  H28 non d ame     -29.139  10.223  23.147  0.00  0.00     0.028 H 
ATOM    102  H29 non d ame     -28.996   9.061  21.806  0.00  0.00     0.028 H 
ENDBRANCH  93  99
ENDBRANCH  90  93
ENDBRANCH   1  90
TORSDOF 26
ENDMDL
MODEL 12
REMARK VINA RESULT:      -6.7      3.429     10.042
REMARK  26 active torsions:
REMARK  status: ('A' for Active; 'I' for Inactive)
REMARK    1  A    between atoms: C2_2  and  C3_3 
REMARK    2  A    between atoms: C4_6  and  C5_7 
REMARK       I    between atoms: C5_7  and  N2_9 
REMARK    3  A    between atoms: N2_9  and  C6_10 
REMARK    4  A    between atoms: C6_10  and  C7_11 
REMARK    5  A    between atoms: C6_10  and  C8_13 
REMARK       I    between atoms: C7_11  and  N3_14 
REMARK    6  A    between atoms: N3_14  and  C9_15 
REMARK    7  A    between atoms: C9_15  and  C10_16 
REMARK    8  A    between atoms: C9_15  and  C11_18 
REMARK       I    between atoms: C10_16  and  N4_21 
REMARK    9  A    between atoms: C11_18  and  C12_19 
REMARK   10  A    between atoms: C11_18  and  C13_20 
REMARK   11  A    between atoms: N4_21  and  C14_22 
REMARK   12  A    between atoms: C14_22  and  C15_23 
REMARK   13  A    between atoms: C14_22  and  C16_25 
REMARK       I    between atoms: C15_23  and  N6_40 
REMARK   14  A    between atoms: C16_25  and  C17_26 
REMARK   15  A    between atoms: C17_26  and  C18_27 
REMARK   16  A    between atoms: C17_26  and  C19_28 
REMARK   17  A    between atoms: C20_29  and  C21_30 
REMARK   18  A    between atoms: C20_29  and  C24_33 
REMARK   19  A    between atoms: C20_29  and  N6_40 
REMARK   20  A    between atoms: C21_30  and  C22_31 
REMARK   21  A    between atoms: C22_31  and  C23_32 
REMARK   22  A    between atoms: C23_32  and  O8_43 
REMARK   23  A    between atoms: C24_33  and  C25_34 
REMARK   24  A    between atoms: C28_38  and  O6_39 
REMARK   25  A    between atoms: C29_42  and  O8_43 
REMARK   26  A    between atoms: C29_42  and  C35_49 
ROOT
ATOM      1  C14 non d ame     -34.738   6.168  29.993  0.00  0.00     0.089 C 
ATOM      2  H20 non d ame     -34.251   6.223  30.967  0.00  0.00     0.087 H 
ENDROOT
BRANCH   1   3
ATOM      3  N4  non d ame     -34.941   7.531  29.527  0.00  0.00    -0.346 N 
ATOM      4  C10 non d ame     -34.720   8.696  30.458  0.00  0.00     0.241 C 
ATOM      5  O4  non d ame     -34.381   8.512  31.580  0.00  0.00    -0.271 OA
ATOM      6  H19 non d ame     -35.232   7.666  28.569  0.00  0.00     0.163 HD
BRANCH   4   7
ATOM      7  C9  non d ame     -34.931  10.101  29.957  0.00  0.00     0.092 C 
ATOM      8  H11 non d ame     -35.329  10.714  30.765  0.00  0.00     0.088 H 
BRANCH   7   9
ATOM      9  N3  non d ame     -33.641  10.680  29.568  0.00  0.00    -0.346 N 
ATOM     10  C7  non d ame     -32.945  11.561  30.473  0.00  0.00     0.240 C 
ATOM     11  O3  non d ame     -33.408  11.815  31.517  0.00  0.00    -0.271 OA
ATOM     12  H10 non d ame     -33.230  10.470  28.670  0.00  0.00     0.163 HD
BRANCH  10  13
ATOM     13  C6  non d ame     -31.574  12.176  30.053  0.00  0.00     0.086 C 
ATOM     14  H6  non d ame     -31.280  11.900  29.041  0.00  0.00     0.086 H 
BRANCH  13  15
ATOM     15  N2  non d ame     -31.682  13.626  30.073  0.00  0.00    -0.343 N 
ATOM     16  C5  non d ame     -32.079  14.337  28.857  0.00  0.00     0.273 C 
ATOM     17  O2  non d ame     -32.306  13.735  27.865  0.00  0.00    -0.266 OA
ATOM     18  H5  non d ame     -31.482  14.132  30.924  0.00  0.00     0.163 HD
BRANCH  16  19
ATOM     19  C4  non d ame     -32.197  15.869  28.865  0.00  0.00     0.154 A 
ATOM     20  C1  non d ame     -32.740  16.700  27.835  0.00  0.00    -0.017 A 
ATOM     21  C2  non d ame     -32.616  18.018  28.328  0.00  0.00     0.077 A 
ATOM     22  H1  non d ame     -33.160  16.394  26.876  0.00  0.00     0.091 H 
ATOM     23  O1  non d ame     -32.067  17.942  29.504  0.00  0.00    -0.218 OA
ATOM     24  N1  non d ame     -31.813  16.698  29.839  0.00  0.00    -0.123 NA
BRANCH  21  25
ATOM     25  C3  non d ame     -33.048  19.292  27.614  0.00  0.00    -0.029 C 
ATOM     26  H2  non d ame     -32.558  19.349  26.643  0.00  0.00     0.036 H 
ATOM     27  H3  non d ame     -34.130  19.281  27.473  0.00  0.00     0.036 H 
ATOM     28  H4  non d ame     -32.769  20.158  28.214  0.00  0.00     0.036 H 
ENDBRANCH  21  25
ENDBRANCH  16  19
ENDBRANCH  13  15
BRANCH  13  29
ATOM     29  C8  non d ame     -30.502  11.724  31.011  0.00  0.00    -0.049 C 
ATOM     30  H7  non d ame     -30.824  11.916  32.034  0.00  0.00     0.030 H 
ATOM     31  H8  non d ame     -30.326  10.656  30.882  0.00  0.00     0.030 H 
ATOM     32  H9  non d ame     -29.581  12.272  30.811  0.00  0.00     0.030 H 
ENDBRANCH  13  29
ENDBRANCH  10  13
ENDBRANCH   7   9
BRANCH   7  33
ATOM     33  C11 non d ame     -35.877  10.074  28.720  0.00  0.00    -0.033 C 
ATOM     34  H12 non d ame     -35.761   9.103  28.239  0.00  0.00     0.042 H 
BRANCH  33  35
ATOM     35  C12 non d ame     -37.372  10.210  29.147  0.00  0.00    -0.071 C 
ATOM     36  H13 non d ame     -37.954   9.407  28.694  0.00  0.00     0.028 H 
ATOM     37  H14 non d ame     -37.448  10.147  30.232  0.00  0.00     0.028 H 
ATOM     38  H15 non d ame     -37.759  11.172  28.810  0.00  0.00     0.028 H 
ENDBRANCH  33  35
BRANCH  33  39
ATOM     39  C13 non d ame     -35.479  11.176  27.687  0.00  0.00    -0.071 C 
ATOM     40  H16 non d ame     -34.445  11.476  27.856  0.00  0.00     0.028 H 
ATOM     41  H17 non d ame     -35.583  10.781  26.676  0.00  0.00     0.028 H 
ATOM     42  H18 non d ame     -36.133  12.040  27.807  0.00  0.00     0.028 H 
ENDBRANCH  33  39
ENDBRANCH   7  33
ENDBRANCH   4   7
ENDBRANCH   1   3
BRANCH   1  43
ATOM     43  C15 non d ame     -33.871   5.410  28.947  0.00  0.00     0.240 C 
ATOM     44  O5  non d ame     -33.337   4.392  29.247  0.00  0.00    -0.271 OA
ATOM     45  N6  non d ame     -33.715   5.948  27.565  0.00  0.00    -0.355 N 
ATOM     46  H46 non d ame     -34.168   6.810  27.296  0.00  0.00     0.162 HD
BRANCH  45  47
ATOM     47  C20 non d ame     -32.888   5.215  26.582  0.00  0.00     0.013 C 
ATOM     48  H30 non d ame     -32.362   4.422  27.113  0.00  0.00     0.072 H 
BRANCH  47  49
ATOM     49  C21 non d ame     -31.894   6.167  25.956  0.00  0.00    -0.038 C 
ATOM     50  H31 non d ame     -32.220   7.166  26.247  0.00  0.00     0.036 H 
ATOM     51  H32 non d ame     -30.911   5.805  26.257  0.00  0.00     0.036 H 
BRANCH  49  52
ATOM     52  C22 non d ame     -31.920   6.131  24.413  0.00  0.00     0.018 C 
ATOM     53  H33 non d ame     -31.048   5.549  24.117  0.00  0.00     0.048 H 
ATOM     54  H34 non d ame     -32.920   5.791  24.143  0.00  0.00     0.048 H 
BRANCH  52  55
ATOM     55  C23 non d ame     -31.749   7.526  23.751  0.00  0.00     0.259 C 
ATOM     56  O7  non d ame     -30.992   7.676  22.847  0.00  0.00    -0.265 OA
BRANCH  55  57
ATOM     57  O8  non d ame     -32.497   8.629  24.247  0.00  0.00    -0.317 OA
BRANCH  57  58
ATOM     58  C29 non d ame     -33.670   8.928  23.484  0.00  0.00     0.052 C 
ATOM     59  H47 non d ame     -33.877   9.983  23.662  0.00  0.00     0.082 H 
ATOM     60  H48 non d ame     -33.463   8.576  22.474  0.00  0.00     0.082 H 
BRANCH  58  61
ATOM     61  C35 non d ame     -34.843   8.092  24.062  0.00  0.00    -0.034 A 
ATOM     62  C30 non d ame     -35.450   7.112  23.282  0.00  0.00    -0.075 A 
ATOM     63  C31 non d ame     -36.504   6.361  23.801  0.00  0.00    -0.082 A 
ATOM     64  H49 non d ame     -35.101   6.933  22.266  0.00  0.00     0.084 H 
ATOM     65  C32 non d ame     -36.952   6.595  25.104  0.00  0.00    -0.083 A 
ATOM     66  H50 non d ame     -36.977   5.592  23.189  0.00  0.00     0.083 H 
ATOM     67  C33 non d ame     -36.346   7.576  25.876  0.00  0.00    -0.082 A 
ATOM     68  H51 non d ame     -37.775   6.011  25.518  0.00  0.00     0.083 H 
ATOM     69  C34 non d ame     -35.291   8.328  25.363  0.00  0.00    -0.075 A 
ATOM     70  H52 non d ame     -36.699   7.758  26.892  0.00  0.00     0.083 H 
ATOM     71  H53 non d ame     -34.819   9.095  25.976  0.00  0.00     0.084 H 
ENDBRANCH  58  61
ENDBRANCH  57  58
ENDBRANCH  55  57
ENDBRANCH  52  55
ENDBRANCH  49  52
ENDBRANCH  47  49
BRANCH  47  72
ATOM     72  C24 non d ame     -33.783   4.624  25.495  0.00  0.00    -0.039 C 
ATOM     73  H35 non d ame     -34.800   4.901  25.774  0.00  0.00     0.036 H 
ATOM     74  H36 non d ame     -33.363   4.973  24.552  0.00  0.00     0.036 H 
BRANCH  72  75
ATOM     75  C25 non d ame     -33.717   3.023  25.479  0.00  0.00    -0.001 C 
ATOM     76  C26 non d ame     -33.677   2.481  23.928  0.00  0.00    -0.035 C 
ATOM     77  C27 non d ame     -34.638   1.539  23.769  0.00  0.00     0.085 C 
ATOM     78  H38 non d ame     -33.982   3.273  23.245  0.00  0.00     0.036 H 
ATOM     79  H39 non d ame     -32.752   1.932  23.747  0.00  0.00     0.036 H 
ATOM     80  N5  non d ame     -35.543   1.625  24.975  0.00  0.00    -0.049 N 
ATOM     81  H40 non d ame     -35.197   1.840  22.883  0.00  0.00     0.075 H 
ATOM     82  H41 non d ame     -34.115   0.584  23.785  0.00  0.00     0.075 H 
ATOM     83  C28 non d ame     -34.745   2.508  26.066  0.00  0.00     0.193 C 
ATOM     84  H42 non d ame     -36.361   2.139  24.683  0.00  0.00     0.280 HD
ATOM     85  H43 non d ame     -35.637   0.684  25.328  0.00  0.00     0.280 HD
ATOM     86  H44 non d ame     -34.265   2.029  26.921  0.00  0.00     0.129 H 
ATOM     87  H37 non d ame     -32.961   2.635  26.160  0.00  0.00     0.046 H 
BRANCH  83  88
ATOM     88  O6  non d ame     -35.606   3.504  26.620  0.00  0.00    -0.369 OA
ATOM     89  H45 non d ame     -35.457   3.566  27.567  0.00  0.00     0.212 HD
ENDBRANCH  83  88
ENDBRANCH  72  75
ENDBRANCH  47  72
ENDBRANCH  45  47
ENDBRANCH   1  43
BRANCH   1  90
ATOM     90  C16 non d ame     -36.088   5.483  30.130  0.00  0.00    -0.035 C 
ATOM     91  H21 non d ame     -36.043   4.622  29.465  0.00  0.00     0.037 H 
ATOM     92  H22 non d ame     -36.231   5.339  31.201  0.00  0.00     0.037 H 
BRANCH  90  93
ATOM     93  C17 non d ame     -37.286   6.357  29.639  0.00  0.00    -0.059 C 
ATOM     94  H23 non d ame     -36.873   7.251  29.173  0.00  0.00     0.038 H 
BRANCH  93  95
ATOM     95  C18 non d ame     -38.153   5.620  28.568  0.00  0.00    -0.073 C 
ATOM     96  H24 non d ame     -37.511   4.993  27.949  0.00  0.00     0.028 H 
ATOM     97  H25 non d ame     -38.894   4.997  29.068  0.00  0.00     0.028 H 
ATOM     98  H26 non d ame     -38.658   6.355  27.942  0.00  0.00     0.028 H 
ENDBRANCH  93  95
BRANCH  93  99
ATOM     99  C19 non d ame     -38.149   6.814  30.817  0.00  0.00    -0.073 C 
ATOM    100  H27 non d ame     -38.541   5.941  31.341  0.00  0.00     0.028 H 
ATOM    101  H28 non d ame     -37.545   7.407  31.504  0.00  0.00     0.028 H 
ATOM    102  H29 non d ame     -38.978   7.418  30.448  0.00  0.00     0.028 H 
ENDBRANCH  93  99
ENDBRANCH  90  93
ENDBRANCH   1  90
TORSDOF 26
ENDMDL
MODEL 13
REMARK VINA RESULT:      -6.7      4.150      8.364
REMARK  26 active torsions:
REMARK  status: ('A' for Active; 'I' for Inactive)
REMARK    1  A    between atoms: C2_2  and  C3_3 
REMARK    2  A    between atoms: C4_6  and  C5_7 
REMARK       I    between atoms: C5_7  and  N2_9 
REMARK    3  A    between atoms: N2_9  and  C6_10 
REMARK    4  A    between atoms: C6_10  and  C7_11 
REMARK    5  A    between atoms: C6_10  and  C8_13 
REMARK       I    between atoms: C7_11  and  N3_14 
REMARK    6  A    between atoms: N3_14  and  C9_15 
REMARK    7  A    between atoms: C9_15  and  C10_16 
REMARK    8  A    between atoms: C9_15  and  C11_18 
REMARK       I    between atoms: C10_16  and  N4_21 
REMARK    9  A    between atoms: C11_18  and  C12_19 
REMARK   10  A    between atoms: C11_18  and  C13_20 
REMARK   11  A    between atoms: N4_21  and  C14_22 
REMARK   12  A    between atoms: C14_22  and  C15_23 
REMARK   13  A    between atoms: C14_22  and  C16_25 
REMARK       I    between atoms: C15_23  and  N6_40 
REMARK   14  A    between atoms: C16_25  and  C17_26 
REMARK   15  A    between atoms: C17_26  and  C18_27 
REMARK   16  A    between atoms: C17_26  and  C19_28 
REMARK   17  A    between atoms: C20_29  and  C21_30 
REMARK   18  A    between atoms: C20_29  and  C24_33 
REMARK   19  A    between atoms: C20_29  and  N6_40 
REMARK   20  A    between atoms: C21_30  and  C22_31 
REMARK   21  A    between atoms: C22_31  and  C23_32 
REMARK   22  A    between atoms: C23_32  and  O8_43 
REMARK   23  A    between atoms: C24_33  and  C25_34 
REMARK   24  A    between atoms: C28_38  and  O6_39 
REMARK   25  A    between atoms: C29_42  and  O8_43 
REMARK   26  A    between atoms: C29_42  and  C35_49 
ROOT
ATOM      1  C14 non d ame     -37.193  17.475  26.346  0.00  0.00     0.089 C 
ATOM      2  H20 non d ame     -37.919  18.255  26.577  0.00  0.00     0.087 H 
ENDROOT
BRANCH   1   3
ATOM      3  N4  non d ame     -36.026  17.700  27.186  0.00  0.00    -0.346 N 
ATOM      4  C10 non d ame     -34.735  16.974  26.906  0.00  0.00     0.241 C 
ATOM      5  O4  non d ame     -34.658  16.212  25.999  0.00  0.00    -0.271 OA
ATOM      6  H19 non d ame     -36.112  18.349  27.954  0.00  0.00     0.163 HD
BRANCH   4   7
ATOM      7  C9  non d ame     -33.535  17.221  27.783  0.00  0.00     0.092 C 
ATOM      8  H11 non d ame     -33.869  17.603  28.747  0.00  0.00     0.088 H 
BRANCH   7   9
ATOM      9  N3  non d ame     -32.843  15.953  28.034  0.00  0.00    -0.346 N 
ATOM     10  C7  non d ame     -31.990  15.814  29.188  0.00  0.00     0.240 C 
ATOM     11  O3  non d ame     -31.849  16.712  29.925  0.00  0.00    -0.271 OA
ATOM     12  H10 non d ame     -32.955  15.170  27.405  0.00  0.00     0.163 HD
BRANCH  10  13
ATOM     13  C6  non d ame     -31.254  14.464  29.448  0.00  0.00     0.086 C 
ATOM     14  H6  non d ame     -30.611  14.497  30.327  0.00  0.00     0.086 H 
BRANCH  13  15
ATOM     15  N2  non d ame     -32.242  13.427  29.694  0.00  0.00    -0.343 N 
ATOM     16  C5  non d ame     -31.895  12.286  30.543  0.00  0.00     0.273 C 
ATOM     17  O2  non d ame     -30.816  12.208  31.021  0.00  0.00    -0.266 OA
ATOM     18  H5  non d ame     -33.160  13.499  29.280  0.00  0.00     0.163 HD
BRANCH  16  19
ATOM     19  C4  non d ame     -32.931  11.183  30.813  0.00  0.00     0.154 A 
ATOM     20  C1  non d ame     -33.301  10.113  29.938  0.00  0.00    -0.017 A 
ATOM     21  C2  non d ame     -34.282   9.386  30.649  0.00  0.00     0.077 A 
ATOM     22  H1  non d ame     -32.917   9.896  28.942  0.00  0.00     0.091 H 
ATOM     23  O1  non d ame     -34.447   9.977  31.796  0.00  0.00    -0.218 OA
ATOM     24  N1  non d ame     -33.669  11.028  31.915  0.00  0.00    -0.123 NA
BRANCH  21  25
ATOM     25  C3  non d ame     -35.010   8.140  30.163  0.00  0.00    -0.029 C 
ATOM     26  H2  non d ame     -34.516   7.755  29.272  0.00  0.00     0.036 H 
ATOM     27  H3  non d ame     -34.991   7.380  30.944  0.00  0.00     0.036 H 
ATOM     28  H4  non d ame     -36.044   8.391  29.926  0.00  0.00     0.036 H 
ENDBRANCH  21  25
ENDBRANCH  16  19
ENDBRANCH  13  15
BRANCH  13  29
ATOM     29  C8  non d ame     -30.417  14.105  28.247  0.00  0.00    -0.049 C 
ATOM     30  H7  non d ame     -30.054  13.083  28.348  0.00  0.00     0.030 H 
ATOM     31  H8  non d ame     -31.022  14.187  27.344  0.00  0.00     0.030 H 
ATOM     32  H9  non d ame     -29.568  14.787  28.179  0.00  0.00     0.030 H 
ENDBRANCH  13  29
ENDBRANCH  10  13
ENDBRANCH   7   9
BRANCH   7  33
ATOM     33  C11 non d ame     -32.564  18.206  27.067  0.00  0.00    -0.033 C 
ATOM     34  H12 non d ame     -31.571  17.759  27.085  0.00  0.00     0.042 H 
BRANCH  33  35
ATOM     35  C12 non d ame     -32.961  18.407  25.571  0.00  0.00    -0.071 C 
ATOM     36  H13 non d ame     -32.458  17.660  24.958  0.00  0.00     0.028 H 
ATOM     37  H14 non d ame     -34.040  18.299  25.463  0.00  0.00     0.028 H 
ATOM     38  H15 non d ame     -32.661  19.404  25.246  0.00  0.00     0.028 H 
ENDBRANCH  33  35
BRANCH  33  39
ATOM     39  C13 non d ame     -32.494  19.571  27.823  0.00  0.00    -0.071 C 
ATOM     40  H16 non d ame     -33.504  19.925  28.029  0.00  0.00     0.028 H 
ATOM     41  H17 non d ame     -31.955  19.439  28.763  0.00  0.00     0.028 H 
ATOM     42  H18 non d ame     -31.971  20.302  27.207  0.00  0.00     0.028 H 
ENDBRANCH  33  39
ENDBRANCH   7  33
ENDBRANCH   4   7
ENDBRANCH   1   3
BRANCH   1  43
ATOM     43  C15 non d ame     -37.748  16.051  26.639  0.00  0.00     0.240 C 
ATOM     44  O5  non d ame     -38.678  15.918  27.366  0.00  0.00    -0.271 OA
ATOM     45  N6  non d ame     -37.126  14.855  26.004  0.00  0.00    -0.355 N 
ATOM     46  H46 non d ame     -36.338  14.956  25.379  0.00  0.00     0.162 HD
BRANCH  45  47
ATOM     47  C20 non d ame     -37.666  13.509  26.292  0.00  0.00     0.013 C 
ATOM     48  H30 non d ame     -38.370  13.601  27.119  0.00  0.00     0.072 H 
BRANCH  47  49
ATOM     49  C21 non d ame     -36.532  12.586  26.677  0.00  0.00    -0.038 C 
ATOM     50  H31 non d ame     -36.213  12.910  27.668  0.00  0.00     0.036 H 
ATOM     51  H32 non d ame     -36.912  11.575  26.529  0.00  0.00     0.036 H 
BRANCH  49  52
ATOM     52  C22 non d ame     -35.302  12.730  25.753  0.00  0.00     0.018 C 
ATOM     53  H33 non d ame     -35.269  11.817  25.161  0.00  0.00     0.048 H 
ATOM     54  H34 non d ame     -35.416  13.696  25.261  0.00  0.00     0.048 H 
BRANCH  52  55
ATOM     55  C23 non d ame     -33.950  12.796  26.517  0.00  0.00     0.259 C 
ATOM     56  O7  non d ame     -33.844  12.309  27.596  0.00  0.00    -0.265 OA
BRANCH  55  57
ATOM     57  O8  non d ame     -32.842  13.456  25.917  0.00  0.00    -0.317 OA
BRANCH  57  58
ATOM     58  C29 non d ame     -31.902  12.573  25.300  0.00  0.00     0.052 C 
ATOM     59  H47 non d ame     -31.243  12.237  26.100  0.00  0.00     0.082 H 
ATOM     60  H48 non d ame     -32.496  11.850  24.743  0.00  0.00     0.082 H 
BRANCH  58  61
ATOM     61  C35 non d ame     -31.063  13.399  24.288  0.00  0.00    -0.034 A 
ATOM     62  C30 non d ame     -30.336  12.751  23.293  0.00  0.00    -0.075 A 
ATOM     63  C31 non d ame     -29.582  13.493  22.385  0.00  0.00    -0.082 A 
ATOM     64  H49 non d ame     -30.356  11.663  23.226  0.00  0.00     0.084 H 
ATOM     65  C32 non d ame     -29.555  14.887  22.474  0.00  0.00    -0.083 A 
ATOM     66  H50 non d ame     -29.015  12.982  21.605  0.00  0.00     0.083 H 
ATOM     67  C33 non d ame     -30.279  15.528  23.470  0.00  0.00    -0.082 A 
ATOM     68  H51 non d ame     -28.969  15.474  21.766  0.00  0.00     0.083 H 
ATOM     69  C34 non d ame     -31.035  14.791  24.379  0.00  0.00    -0.075 A 
ATOM     70  H52 non d ame     -30.254  16.617  23.539  0.00  0.00     0.083 H 
ATOM     71  H53 non d ame     -31.602  15.302  25.157  0.00  0.00     0.084 H 
ENDBRANCH  58  61
ENDBRANCH  57  58
ENDBRANCH  55  57
ENDBRANCH  52  55
ENDBRANCH  49  52
ENDBRANCH  47  49
BRANCH  47  72
ATOM     72  C24 non d ame     -38.373  12.960  25.054  0.00  0.00    -0.039 C 
ATOM     73  H35 non d ame     -37.843  12.041  24.802  0.00  0.00     0.036 H 
ATOM     74  H36 non d ame     -39.430  12.925  25.315  0.00  0.00     0.036 H 
BRANCH  72  75
ATOM     75  C25 non d ame     -38.227  13.948  23.801  0.00  0.00    -0.001 C 
ATOM     76  C26 non d ame     -39.714  14.439  23.300  0.00  0.00    -0.035 C 
ATOM     77  C27 non d ame     -39.818  14.227  21.966  0.00  0.00     0.085 C 
ATOM     78  H38 non d ame     -40.484  13.793  23.722  0.00  0.00     0.036 H 
ATOM     79  H39 non d ame     -39.802  15.522  23.393  0.00  0.00     0.036 H 
ATOM     80  N5  non d ame     -38.664  13.336  21.571  0.00  0.00    -0.049 N 
ATOM     81  H40 non d ame     -40.752  13.681  21.830  0.00  0.00     0.075 H 
ATOM     82  H41 non d ame     -39.686  15.205  21.505  0.00  0.00     0.075 H 
ATOM     83  C28 non d ame     -37.634  13.366  22.813  0.00  0.00     0.193 C 
ATOM     84  H42 non d ame     -39.039  12.403  21.487  0.00  0.00     0.280 HD
ATOM     85  H43 non d ame     -38.223  13.778  20.776  0.00  0.00     0.280 HD
ATOM     86  H44 non d ame     -36.718  13.954  22.758  0.00  0.00     0.129 H 
ATOM     87  H37 non d ame     -37.480  14.723  23.972  0.00  0.00     0.046 H 
BRANCH  83  88
ATOM     88  O6  non d ame     -37.218  12.039  23.140  0.00  0.00    -0.369 OA
ATOM     89  H45 non d ame     -36.274  12.034  23.317  0.00  0.00     0.212 HD
ENDBRANCH  83  88
ENDBRANCH  72  75
ENDBRANCH  47  72
ENDBRANCH  45  47
ENDBRANCH   1  43
BRANCH   1  90
ATOM     90  C16 non d ame     -36.781  17.573  24.886  0.00  0.00    -0.035 C 
ATOM     91  H21 non d ame     -35.723  17.831  24.901  0.00  0.00     0.037 H 
ATOM     92  H22 non d ame     -37.108  16.637  24.431  0.00  0.00     0.037 H 
BRANCH  90  93
ATOM     93  C17 non d ame     -37.502  18.719  24.107  0.00  0.00    -0.059 C 
ATOM     94  H23 non d ame     -37.239  18.619  23.054  0.00  0.00     0.038 H 
BRANCH  93  95
ATOM     95  C18 non d ame     -39.057  18.621  24.220  0.00  0.00    -0.073 C 
ATOM     96  H24 non d ame     -39.335  18.433  25.257  0.00  0.00     0.028 H 
ATOM     97  H25 non d ame     -39.505  19.558  23.889  0.00  0.00     0.028 H 
ATOM     98  H26 non d ame     -39.416  17.805  23.594  0.00  0.00     0.028 H 
ENDBRANCH  93  95
BRANCH  93  99
ATOM     99  C19 non d ame     -37.008  20.091  24.572  0.00  0.00    -0.073 C 
ATOM    100  H27 non d ame     -37.226  20.835  23.804  0.00  0.00     0.028 H 
ATOM    101  H28 non d ame     -37.514  20.366  25.497  0.00  0.00     0.028 H 
ATOM    102  H29 non d ame     -35.932  20.051  24.744  0.00  0.00     0.028 H 
ENDBRANCH  93  99
ENDBRANCH  90  93
ENDBRANCH   1  90
TORSDOF 26
ENDMDL
MODEL 14
REMARK VINA RESULT:      -6.7      2.681      6.267
REMARK  26 active torsions:
REMARK  status: ('A' for Active; 'I' for Inactive)
REMARK    1  A    between atoms: C2_2  and  C3_3 
REMARK    2  A    between atoms: C4_6  and  C5_7 
REMARK       I    between atoms: C5_7  and  N2_9 
REMARK    3  A    between atoms: N2_9  and  C6_10 
REMARK    4  A    between atoms: C6_10  and  C7_11 
REMARK    5  A    between atoms: C6_10  and  C8_13 
REMARK       I    between atoms: C7_11  and  N3_14 
REMARK    6  A    between atoms: N3_14  and  C9_15 
REMARK    7  A    between atoms: C9_15  and  C10_16 
REMARK    8  A    between atoms: C9_15  and  C11_18 
REMARK       I    between atoms: C10_16  and  N4_21 
REMARK    9  A    between atoms: C11_18  and  C12_19 
REMARK   10  A    between atoms: C11_18  and  C13_20 
REMARK   11  A    between atoms: N4_21  and  C14_22 
REMARK   12  A    between atoms: C14_22  and  C15_23 
REMARK   13  A    between atoms: C14_22  and  C16_25 
REMARK       I    between atoms: C15_23  and  N6_40 
REMARK   14  A    between atoms: C16_25  and  C17_26 
REMARK   15  A    between atoms: C17_26  and  C18_27 
REMARK   16  A    between atoms: C17_26  and  C19_28 
REMARK   17  A    between atoms: C20_29  and  C21_30 
REMARK   18  A    between atoms: C20_29  and  C24_33 
REMARK   19  A    between atoms: C20_29  and  N6_40 
REMARK   20  A    between atoms: C21_30  and  C22_31 
REMARK   21  A    between atoms: C22_31  and  C23_32 
REMARK   22  A    between atoms: C23_32  and  O8_43 
REMARK   23  A    between atoms: C24_33  and  C25_34 
REMARK   24  A    between atoms: C28_38  and  O6_39 
REMARK   25  A    between atoms: C29_42  and  O8_43 
REMARK   26  A    between atoms: C29_42  and  C35_49 
ROOT
ATOM      1  C14 non d ame     -34.737  10.104  28.444  0.00  0.00     0.089 C 
ATOM      2  H20 non d ame     -35.542  10.282  27.731  0.00  0.00     0.087 H 
ENDROOT
BRANCH   1   3
ATOM      3  N4  non d ame     -34.854   8.728  28.904  0.00  0.00    -0.346 N 
ATOM      4  C10 non d ame     -36.197   8.046  28.931  0.00  0.00     0.241 C 
ATOM      5  O4  non d ame     -37.172   8.624  28.579  0.00  0.00    -0.271 OA
ATOM      6  H19 non d ame     -34.013   8.255  29.202  0.00  0.00     0.163 HD
BRANCH   4   7
ATOM      7  C9  non d ame     -36.300   6.620  29.406  0.00  0.00     0.092 C 
ATOM      8  H11 non d ame     -37.123   6.128  28.889  0.00  0.00     0.088 H 
BRANCH   7   9
ATOM      9  N3  non d ame     -35.073   5.898  29.053  0.00  0.00    -0.346 N 
ATOM     10  C7  non d ame     -35.141   4.733  28.206  0.00  0.00     0.240 C 
ATOM     11  O3  non d ame     -36.174   4.362  27.800  0.00  0.00    -0.271 OA
ATOM     12  H10 non d ame     -34.175   6.205  29.398  0.00  0.00     0.163 HD
BRANCH  10  13
ATOM     13  C6  non d ame     -33.833   3.967  27.837  0.00  0.00     0.086 C 
ATOM     14  H6  non d ame     -34.015   2.925  27.575  0.00  0.00     0.086 H 
BRANCH  13  15
ATOM     15  N2  non d ame     -33.234   4.591  26.670  0.00  0.00    -0.343 N 
ATOM     16  C5  non d ame     -33.631   4.149  25.331  0.00  0.00     0.273 C 
ATOM     17  O2  non d ame     -34.431   3.287  25.204  0.00  0.00    -0.266 OA
ATOM     18  H5  non d ame     -32.549   5.324  26.787  0.00  0.00     0.163 HD
BRANCH  16  19
ATOM     19  C4  non d ame     -33.006   4.801  24.088  0.00  0.00     0.154 A 
ATOM     20  C1  non d ame     -33.141   4.376  22.728  0.00  0.00    -0.017 A 
ATOM     21  C2  non d ame     -32.380   5.303  21.981  0.00  0.00     0.077 A 
ATOM     22  H1  non d ame     -33.705   3.527  22.343  0.00  0.00     0.091 H 
ATOM     23  O1  non d ame     -31.873   6.156  22.822  0.00  0.00    -0.218 OA
ATOM     24  N1  non d ame     -32.224   5.883  24.058  0.00  0.00    -0.123 NA
BRANCH  21  25
ATOM     25  C3  non d ame     -32.191   5.304  20.471  0.00  0.00    -0.029 C 
ATOM     26  H2  non d ame     -32.084   6.329  20.118  0.00  0.00     0.036 H 
ATOM     27  H3  non d ame     -31.294   4.739  20.216  0.00  0.00     0.036 H 
ATOM     28  H4  non d ame     -33.057   4.844  19.994  0.00  0.00     0.036 H 
ENDBRANCH  21  25
ENDBRANCH  16  19
ENDBRANCH  13  15
BRANCH  13  29
ATOM     29  C8  non d ame     -32.874   4.016  28.999  0.00  0.00    -0.049 C 
ATOM     30  H7  non d ame     -33.337   4.545  29.831  0.00  0.00     0.030 H 
ATOM     31  H8  non d ame     -32.625   3.001  29.308  0.00  0.00     0.030 H 
ATOM     32  H9  non d ame     -31.965   4.537  28.697  0.00  0.00     0.030 H 
ENDBRANCH  13  29
ENDBRANCH  10  13
ENDBRANCH   7   9
BRANCH   7  33
ATOM     33  C11 non d ame     -36.483   6.601  30.952  0.00  0.00    -0.033 C 
ATOM     34  H12 non d ame     -36.717   5.578  31.243  0.00  0.00     0.042 H 
BRANCH  33  35
ATOM     35  C12 non d ame     -35.166   7.006  31.684  0.00  0.00    -0.071 C 
ATOM     36  H13 non d ame     -34.579   7.663  31.041  0.00  0.00     0.028 H 
ATOM     37  H14 non d ame     -35.409   7.527  32.610  0.00  0.00     0.028 H 
ATOM     38  H15 non d ame     -34.586   6.112  31.912  0.00  0.00     0.028 H 
ENDBRANCH  33  35
BRANCH  33  39
ATOM     39  C13 non d ame     -37.675   7.512  31.385  0.00  0.00    -0.071 C 
ATOM     40  H16 non d ame     -38.536   6.891  31.633  0.00  0.00     0.028 H 
ATOM     41  H17 non d ame     -37.387   8.100  32.257  0.00  0.00     0.028 H 
ATOM     42  H18 non d ame     -37.936   8.183  30.567  0.00  0.00     0.028 H 
ENDBRANCH  33  39
ENDBRANCH   7  33
ENDBRANCH   4   7
ENDBRANCH   1   3
BRANCH   1  43
ATOM     43  C15 non d ame     -33.332  10.293  27.800  0.00  0.00     0.240 C 
ATOM     44  O5  non d ame     -32.568   9.384  27.772  0.00  0.00    -0.271 OA
ATOM     45  N6  non d ame     -32.944  11.606  27.210  0.00  0.00    -0.355 N 
ATOM     46  H46 non d ame     -33.587  12.385  27.224  0.00  0.00     0.162 HD
BRANCH  45  47
ATOM     47  C20 non d ame     -31.606  11.769  26.601  0.00  0.00     0.013 C 
ATOM     48  H30 non d ame     -30.954  11.000  27.017  0.00  0.00     0.072 H 
BRANCH  47  49
ATOM     49  C21 non d ame     -31.068  13.141  26.936  0.00  0.00    -0.038 C 
ATOM     50  H31 non d ame     -30.305  12.980  27.698  0.00  0.00     0.036 H 
ATOM     51  H32 non d ame     -30.799  13.593  25.981  0.00  0.00     0.036 H 
BRANCH  49  52
ATOM     52  C22 non d ame     -32.132  14.064  27.571  0.00  0.00     0.018 C 
ATOM     53  H33 non d ame     -33.049  13.478  27.602  0.00  0.00     0.048 H 
ATOM     54  H34 non d ame     -31.688  14.432  28.496  0.00  0.00     0.048 H 
BRANCH  52  55
ATOM     55  C23 non d ame     -32.455  15.323  26.721  0.00  0.00     0.259 C 
ATOM     56  O7  non d ame     -32.677  16.366  27.248  0.00  0.00    -0.265 OA
BRANCH  55  57
ATOM     57  O8  non d ame     -32.497  15.215  25.303  0.00  0.00    -0.317 OA
BRANCH  57  58
ATOM     58  C29 non d ame     -31.816  16.270  24.618  0.00  0.00     0.052 C 
ATOM     59  H47 non d ame     -32.598  16.921  24.227  0.00  0.00     0.082 H 
ATOM     60  H48 non d ame     -31.086  16.659  25.326  0.00  0.00     0.082 H 
BRANCH  58  61
ATOM     61  C35 non d ame     -31.052  15.646  23.419  0.00  0.00    -0.034 A 
ATOM     62  C30 non d ame     -31.066  16.278  22.180  0.00  0.00    -0.075 A 
ATOM     63  C31 non d ame     -30.380  15.718  21.103  0.00  0.00    -0.082 A 
ATOM     64  H49 non d ame     -31.614  17.211  22.051  0.00  0.00     0.084 H 
ATOM     65  C32 non d ame     -29.679  14.520  21.269  0.00  0.00    -0.083 A 
ATOM     66  H50 non d ame     -30.391  16.217  20.133  0.00  0.00     0.083 H 
ATOM     67  C33 non d ame     -29.671  13.892  22.506  0.00  0.00    -0.082 A 
ATOM     68  H51 non d ame     -29.139  14.076  20.432  0.00  0.00     0.083 H 
ATOM     69  C34 non d ame     -30.354  14.449  23.585  0.00  0.00    -0.075 A 
ATOM     70  H52 non d ame     -29.126  12.955  22.632  0.00  0.00     0.083 H 
ATOM     71  H53 non d ame     -30.342  13.950  24.555  0.00  0.00     0.084 H 
ENDBRANCH  58  61
ENDBRANCH  57  58
ENDBRANCH  55  57
ENDBRANCH  52  55
ENDBRANCH  49  52
ENDBRANCH  47  49
BRANCH  47  72
ATOM     72  C24 non d ame     -31.707  11.616  25.085  0.00  0.00    -0.039 C 
ATOM     73  H35 non d ame     -32.761  11.764  24.848  0.00  0.00     0.036 H 
ATOM     74  H36 non d ame     -30.956  12.291  24.675  0.00  0.00     0.036 H 
BRANCH  72  75
ATOM     75  C25 non d ame     -31.320  10.135  24.611  0.00  0.00    -0.001 C 
ATOM     76  C26 non d ame     -30.193  10.206  23.417  0.00  0.00    -0.035 C 
ATOM     77  C27 non d ame     -30.615   9.454  22.372  0.00  0.00     0.085 C 
ATOM     78  H38 non d ame     -30.149  11.214  23.004  0.00  0.00     0.036 H 
ATOM     79  H39 non d ame     -29.277   9.708  23.736  0.00  0.00     0.036 H 
ATOM     80  N5  non d ame     -32.073   9.142  22.614  0.00  0.00    -0.049 N 
ATOM     81  H40 non d ame     -30.529  10.097  21.497  0.00  0.00     0.075 H 
ATOM     82  H41 non d ame     -30.041   8.530  22.428  0.00  0.00     0.075 H 
ATOM     83  C28 non d ame     -32.353   9.504  24.162  0.00  0.00     0.193 C 
ATOM     84  H42 non d ame     -32.601   9.778  22.035  0.00  0.00     0.280 HD
ATOM     85  H43 non d ame     -32.175   8.145  22.493  0.00  0.00     0.280 HD
ATOM     86  H44 non d ame     -32.441   8.713  24.908  0.00  0.00     0.129 H 
ATOM     87  H37 non d ame     -31.111   9.474  25.452  0.00  0.00     0.046 H 
BRANCH  83  88
ATOM     88  O6  non d ame     -33.550  10.275  24.279  0.00  0.00    -0.369 OA
ATOM     89  H45 non d ame     -33.344  11.128  24.670  0.00  0.00     0.212 HD
ENDBRANCH  83  88
ENDBRANCH  72  75
ENDBRANCH  47  72
ENDBRANCH  45  47
ENDBRANCH   1  43
BRANCH   1  90
ATOM     90  C16 non d ame     -34.884  11.041  29.632  0.00  0.00    -0.035 C 
ATOM     91  H21 non d ame     -34.507  12.003  29.289  0.00  0.00     0.037 H 
ATOM     92  H22 non d ame     -35.922  10.942  29.949  0.00  0.00     0.037 H 
BRANCH  90  93
ATOM     93  C17 non d ame     -34.007  10.636  30.860  0.00  0.00    -0.059 C 
ATOM     94  H23 non d ame     -33.676   9.609  30.706  0.00  0.00     0.038 H 
BRANCH  93  95
ATOM     95  C18 non d ame     -32.734  11.531  30.995  0.00  0.00    -0.073 C 
ATOM     96  H24 non d ame     -33.032  12.566  31.163  0.00  0.00     0.028 H 
ATOM     97  H25 non d ame     -32.135  11.186  31.838  0.00  0.00     0.028 H 
ATOM     98  H26 non d ame     -32.145  11.466  30.080  0.00  0.00     0.028 H 
ENDBRANCH  93  95
BRANCH  93  99
ATOM     99  C19 non d ame     -34.829  10.661  32.151  0.00  0.00    -0.073 C 
ATOM    100  H27 non d ame     -35.667   9.969  32.061  0.00  0.00     0.028 H 
ATOM    101  H28 non d ame     -34.200  10.361  32.990  0.00  0.00     0.028 H 
ATOM    102  H29 non d ame     -35.206  11.669  32.323  0.00  0.00     0.028 H 
ENDBRANCH  93  99
ENDBRANCH  90  93
ENDBRANCH   1  90
TORSDOF 26
ENDMDL
MODEL 15
REMARK VINA RESULT:      -6.7      2.268     10.987
REMARK  26 active torsions:
REMARK  status: ('A' for Active; 'I' for Inactive)
REMARK    1  A    between atoms: C2_2  and  C3_3 
REMARK    2  A    between atoms: C4_6  and  C5_7 
REMARK       I    between atoms: C5_7  and  N2_9 
REMARK    3  A    between atoms: N2_9  and  C6_10 
REMARK    4  A    between atoms: C6_10  and  C7_11 
REMARK    5  A    between atoms: C6_10  and  C8_13 
REMARK       I    between atoms: C7_11  and  N3_14 
REMARK    6  A    between atoms: N3_14  and  C9_15 
REMARK    7  A    between atoms: C9_15  and  C10_16 
REMARK    8  A    between atoms: C9_15  and  C11_18 
REMARK       I    between atoms: C10_16  and  N4_21 
REMARK    9  A    between atoms: C11_18  and  C12_19 
REMARK   10  A    between atoms: C11_18  and  C13_20 
REMARK   11  A    between atoms: N4_21  and  C14_22 
REMARK   12  A    between atoms: C14_22  and  C15_23 
REMARK   13  A    between atoms: C14_22  and  C16_25 
REMARK       I    between atoms: C15_23  and  N6_40 
REMARK   14  A    between atoms: C16_25  and  C17_26 
REMARK   15  A    between atoms: C17_26  and  C18_27 
REMARK   16  A    between atoms: C17_26  and  C19_28 
REMARK   17  A    between atoms: C20_29  and  C21_30 
REMARK   18  A    between atoms: C20_29  and  C24_33 
REMARK   19  A    between atoms: C20_29  and  N6_40 
REMARK   20  A    between atoms: C21_30  and  C22_31 
REMARK   21  A    between atoms: C22_31  and  C23_32 
REMARK   22  A    between atoms: C23_32  and  O8_43 
REMARK   23  A    between atoms: C24_33  and  C25_34 
REMARK   24  A    between atoms: C28_38  and  O6_39 
REMARK   25  A    between atoms: C29_42  and  O8_43 
REMARK   26  A    between atoms: C29_42  and  C35_49 
ROOT
ATOM      1  C14 non d ame     -33.817   9.944  28.091  0.00  0.00     0.089 C 
ATOM      2  H20 non d ame     -34.585  10.694  27.899  0.00  0.00     0.087 H 
ENDROOT
BRANCH   1   3
ATOM      3  N4  non d ame     -32.523  10.600  27.973  0.00  0.00    -0.346 N 
ATOM      4  C10 non d ame     -32.435  12.103  27.900  0.00  0.00     0.241 C 
ATOM      5  O4  non d ame     -33.420  12.765  27.937  0.00  0.00    -0.271 OA
ATOM      6  H19 non d ame     -31.698  10.019  27.940  0.00  0.00     0.163 HD
BRANCH   4   7
ATOM      7  C9  non d ame     -31.088  12.766  27.782  0.00  0.00     0.092 C 
ATOM      8  H11 non d ame     -30.358  12.036  27.432  0.00  0.00     0.088 H 
BRANCH   7   9
ATOM      9  N3  non d ame     -31.153  13.830  26.776  0.00  0.00    -0.346 N 
ATOM     10  C7  non d ame     -31.133  13.497  25.373  0.00  0.00     0.240 C 
ATOM     11  O3  non d ame     -31.064  12.378  25.036  0.00  0.00    -0.271 OA
ATOM     12  H10 non d ame     -31.210  14.800  27.052  0.00  0.00     0.163 HD
BRANCH  10  13
ATOM     13  C6  non d ame     -31.199  14.634  24.307  0.00  0.00     0.086 C 
ATOM     14  H6  non d ame     -32.016  14.501  23.598  0.00  0.00     0.086 H 
BRANCH  13  15
ATOM     15  N2  non d ame     -31.435  15.900  24.980  0.00  0.00    -0.343 N 
ATOM     16  C5  non d ame     -32.801  16.412  25.097  0.00  0.00     0.273 C 
ATOM     17  O2  non d ame     -33.705  15.800  24.642  0.00  0.00    -0.266 OA
ATOM     18  H5  non d ame     -30.657  16.418  25.363  0.00  0.00     0.163 HD
BRANCH  16  19
ATOM     19  C4  non d ame     -33.065  17.749  25.808  0.00  0.00     0.154 A 
ATOM     20  C1  non d ame     -34.293  18.481  25.844  0.00  0.00    -0.017 A 
ATOM     21  C2  non d ame     -34.010  19.628  26.619  0.00  0.00     0.077 A 
ATOM     22  H1  non d ame     -35.245  18.221  25.380  0.00  0.00     0.091 H 
ATOM     23  O1  non d ame     -32.763  19.552  26.982  0.00  0.00    -0.218 OA
ATOM     24  N1  non d ame     -32.190  18.464  26.520  0.00  0.00    -0.123 NA
BRANCH  21  25
ATOM     25  C3  non d ame     -34.984  20.744  26.968  0.00  0.00    -0.029 C 
ATOM     26  H2  non d ame     -34.729  21.160  27.942  0.00  0.00     0.036 H 
ATOM     27  H3  non d ame     -34.924  21.529  26.213  0.00  0.00     0.036 H 
ATOM     28  H4  non d ame     -35.999  20.347  26.997  0.00  0.00     0.036 H 
ENDBRANCH  21  25
ENDBRANCH  16  19
ENDBRANCH  13  15
BRANCH  13  29
ATOM     29  C8  non d ame     -29.899  14.688  23.545  0.00  0.00    -0.049 C 
ATOM     30  H7  non d ame     -29.532  15.714  23.524  0.00  0.00     0.030 H 
ATOM     31  H8  non d ame     -29.164  14.050  24.034  0.00  0.00     0.030 H 
ATOM     32  H9  non d ame     -30.062  14.340  22.524  0.00  0.00     0.030 H 
ENDBRANCH  13  29
ENDBRANCH  10  13
ENDBRANCH   7   9
BRANCH   7  33
ATOM     33  C11 non d ame     -30.690  13.379  29.157  0.00  0.00    -0.033 C 
ATOM     34  H12 non d ame     -29.613  13.544  29.144  0.00  0.00     0.042 H 
BRANCH  33  35
ATOM     35  C12 non d ame     -31.374  14.764  29.379  0.00  0.00    -0.071 C 
ATOM     36  H13 non d ame     -32.447  14.622  29.514  0.00  0.00     0.028 H 
ATOM     37  H14 non d ame     -30.956  15.238  30.267  0.00  0.00     0.028 H 
ATOM     38  H15 non d ame     -31.200  15.399  28.511  0.00  0.00     0.028 H 
ENDBRANCH  33  35
BRANCH  33  39
ATOM     39  C13 non d ame     -31.014  12.393  30.324  0.00  0.00    -0.071 C 
ATOM     40  H16 non d ame     -31.955  12.681  30.793  0.00  0.00     0.028 H 
ATOM     41  H17 non d ame     -31.098  11.379  29.931  0.00  0.00     0.028 H 
ATOM     42  H18 non d ame     -30.214  12.430  31.064  0.00  0.00     0.028 H 
ENDBRANCH  33  39
ENDBRANCH   7  33
ENDBRANCH   4   7
ENDBRANCH   1   3
BRANCH   1  43
ATOM     43  C15 non d ame     -33.935   9.336  29.519  0.00  0.00     0.240 C 
ATOM     44  O5  non d ame     -33.434   9.893  30.441  0.00  0.00    -0.271 OA
ATOM     45  N6  non d ame     -34.682   8.064  29.737  0.00  0.00    -0.355 N 
ATOM     46  H46 non d ame     -35.116   7.585  28.961  0.00  0.00     0.162 HD
BRANCH  45  47
ATOM     47  C20 non d ame     -34.785   7.500  31.100  0.00  0.00     0.013 C 
ATOM     48  H30 non d ame     -33.911   7.826  31.664  0.00  0.00     0.072 H 
BRANCH  47  49
ATOM     49  C21 non d ame     -34.815   5.991  31.016  0.00  0.00    -0.038 C 
ATOM     50  H31 non d ame     -33.922   5.649  31.541  0.00  0.00     0.036 H 
ATOM     51  H32 non d ame     -35.802   5.696  31.371  0.00  0.00     0.036 H 
BRANCH  49  52
ATOM     52  C22 non d ame     -34.697   5.469  29.567  0.00  0.00     0.018 C 
ATOM     53  H33 non d ame     -35.583   4.858  29.401  0.00  0.00     0.048 H 
ATOM     54  H34 non d ame     -34.518   6.350  28.951  0.00  0.00     0.048 H 
BRANCH  52  55
ATOM     55  C23 non d ame     -33.480   4.531  29.337  0.00  0.00     0.259 C 
ATOM     56  O7  non d ame     -32.998   3.935  30.245  0.00  0.00    -0.265 OA
BRANCH  55  57
ATOM     57  O8  non d ame     -32.937   4.402  28.028  0.00  0.00    -0.317 OA
BRANCH  57  58
ATOM     58  C29 non d ame     -32.468   5.632  27.468  0.00  0.00     0.052 C 
ATOM     59  H47 non d ame     -33.168   6.396  27.806  0.00  0.00     0.082 H 
ATOM     60  H48 non d ame     -31.415   5.697  27.740  0.00  0.00     0.082 H 
BRANCH  58  61
ATOM     61  C35 non d ame     -32.568   5.523  25.923  0.00  0.00    -0.034 A 
ATOM     62  C30 non d ame     -33.409   4.576  25.345  0.00  0.00    -0.075 A 
ATOM     63  C31 non d ame     -33.499   4.478  23.957  0.00  0.00    -0.082 A 
ATOM     64  H49 non d ame     -33.996   3.911  25.978  0.00  0.00     0.084 H 
ATOM     65  C32 non d ame     -32.744   5.330  23.146  0.00  0.00    -0.083 A 
ATOM     66  H50 non d ame     -34.160   3.736  23.507  0.00  0.00     0.083 H 
ATOM     67  C33 non d ame     -31.904   6.270  23.728  0.00  0.00    -0.082 A 
ATOM     68  H51 non d ame     -32.809   5.260  22.060  0.00  0.00     0.083 H 
ATOM     69  C34 non d ame     -31.812   6.373  25.114  0.00  0.00    -0.075 A 
ATOM     70  H52 non d ame     -31.314   6.931  23.092  0.00  0.00     0.083 H 
ATOM     71  H53 non d ame     -31.152   7.115  25.563  0.00  0.00     0.084 H 
ENDBRANCH  58  61
ENDBRANCH  57  58
ENDBRANCH  55  57
ENDBRANCH  52  55
ENDBRANCH  49  52
ENDBRANCH  47  49
BRANCH  47  72
ATOM     72  C24 non d ame     -36.064   8.000  31.770  0.00  0.00    -0.039 C 
ATOM     73  H35 non d ame     -36.501   7.123  32.249  0.00  0.00     0.036 H 
ATOM     74  H36 non d ame     -35.760   8.855  32.373  0.00  0.00     0.036 H 
BRANCH  72  75
ATOM     75  C25 non d ame     -37.127   8.531  30.696  0.00  0.00    -0.001 C 
ATOM     76  C26 non d ame     -37.420  10.130  30.943  0.00  0.00    -0.035 C 
ATOM     77  C27 non d ame     -38.759  10.322  31.017  0.00  0.00     0.085 C 
ATOM     78  H38 non d ame     -37.065  10.428  31.929  0.00  0.00     0.036 H 
ATOM     79  H39 non d ame     -37.129  10.705  30.063  0.00  0.00     0.036 H 
ATOM     80  N5  non d ame     -39.392   8.959  31.171  0.00  0.00    -0.049 N 
ATOM     81  H40 non d ame     -38.921  10.895  31.930  0.00  0.00     0.075 H 
ATOM     82  H41 non d ame     -39.047  10.740  30.053  0.00  0.00     0.075 H 
ATOM     83  C28 non d ame     -38.244   7.891  30.788  0.00  0.00     0.193 C 
ATOM     84  H42 non d ame     -39.613   8.856  32.150  0.00  0.00     0.280 HD
ATOM     85  H43 non d ame     -40.125   8.906  30.478  0.00  0.00     0.280 HD
ATOM     86  H44 non d ame     -38.261   7.383  29.823  0.00  0.00     0.129 H 
ATOM     87  H37 non d ame     -36.876   8.224  29.680  0.00  0.00     0.046 H 
BRANCH  83  88
ATOM     88  O6  non d ame     -38.191   6.852  31.767  0.00  0.00    -0.369 OA
ATOM     89  H45 non d ame     -38.607   6.060  31.417  0.00  0.00     0.212 HD
ENDBRANCH  83  88
ENDBRANCH  72  75
ENDBRANCH  47  72
ENDBRANCH  45  47
ENDBRANCH   1  43
BRANCH   1  90
ATOM     90  C16 non d ame     -33.910   8.836  27.055  0.00  0.00    -0.035 C 
ATOM     91  H21 non d ame     -32.880   8.594  26.798  0.00  0.00     0.037 H 
ATOM     92  H22 non d ame     -34.554   8.077  27.500  0.00  0.00     0.037 H 
BRANCH  90  93
ATOM     93  C17 non d ame     -34.603   9.278  25.726  0.00  0.00    -0.059 C 
ATOM     94  H23 non d ame     -35.200   8.439  25.370  0.00  0.00     0.038 H 
BRANCH  93  95
ATOM     95  C18 non d ame     -35.565  10.490  25.938  0.00  0.00    -0.073 C 
ATOM     96  H24 non d ame     -36.598  10.155  25.847  0.00  0.00     0.028 H 
ATOM     97  H25 non d ame     -35.406  10.911  26.931  0.00  0.00     0.028 H 
ATOM     98  H26 non d ame     -35.362  11.251  25.184  0.00  0.00     0.028 H 
ENDBRANCH  93  95
BRANCH  93  99
ATOM     99  C19 non d ame     -33.564   9.590  24.645  0.00  0.00    -0.073 C 
ATOM    100  H27 non d ame     -32.565   9.378  25.029  0.00  0.00     0.028 H 
ATOM    101  H28 non d ame     -33.754   8.971  23.768  0.00  0.00     0.028 H 
ATOM    102  H29 non d ame     -33.631  10.642  24.369  0.00  0.00     0.028 H 
ENDBRANCH  93  99
ENDBRANCH  90  93
ENDBRANCH   1  90
TORSDOF 26
ENDMDL
MODEL 16
REMARK VINA RESULT:      -6.7      2.780      5.886
REMARK  26 active torsions:
REMARK  status: ('A' for Active; 'I' for Inactive)
REMARK    1  A    between atoms: C2_2  and  C3_3 
REMARK    2  A    between atoms: C4_6  and  C5_7 
REMARK       I    between atoms: C5_7  and  N2_9 
REMARK    3  A    between atoms: N2_9  and  C6_10 
REMARK    4  A    between atoms: C6_10  and  C7_11 
REMARK    5  A    between atoms: C6_10  and  C8_13 
REMARK       I    between atoms: C7_11  and  N3_14 
REMARK    6  A    between atoms: N3_14  and  C9_15 
REMARK    7  A    between atoms: C9_15  and  C10_16 
REMARK    8  A    between atoms: C9_15  and  C11_18 
REMARK       I    between atoms: C10_16  and  N4_21 
REMARK    9  A    between atoms: C11_18  and  C12_19 
REMARK   10  A    between atoms: C11_18  and  C13_20 
REMARK   11  A    between atoms: N4_21  and  C14_22 
REMARK   12  A    between atoms: C14_22  and  C15_23 
REMARK   13  A    between atoms: C14_22  and  C16_25 
REMARK       I    between atoms: C15_23  and  N6_40 
REMARK   14  A    between atoms: C16_25  and  C17_26 
REMARK   15  A    between atoms: C17_26  and  C18_27 
REMARK   16  A    between atoms: C17_26  and  C19_28 
REMARK   17  A    between atoms: C20_29  and  C21_30 
REMARK   18  A    between atoms: C20_29  and  C24_33 
REMARK   19  A    between atoms: C20_29  and  N6_40 
REMARK   20  A    between atoms: C21_30  and  C22_31 
REMARK   21  A    between atoms: C22_31  and  C23_32 
REMARK   22  A    between atoms: C23_32  and  O8_43 
REMARK   23  A    between atoms: C24_33  and  C25_34 
REMARK   24  A    between atoms: C28_38  and  O6_39 
REMARK   25  A    between atoms: C29_42  and  O8_43 
REMARK   26  A    between atoms: C29_42  and  C35_49 
ROOT
ATOM      1  C14 non d ame     -31.111  14.079  24.492  0.00  0.00     0.089 C 
ATOM      2  H20 non d ame     -30.127  14.082  24.961  0.00  0.00     0.087 H 
ENDROOT
BRANCH   1   3
ATOM      3  N4  non d ame     -31.471  12.692  24.236  0.00  0.00    -0.346 N 
ATOM      4  C10 non d ame     -31.389  11.668  25.338  0.00  0.00     0.241 C 
ATOM      5  O4  non d ame     -31.029  11.982  26.425  0.00  0.00    -0.271 OA
ATOM      6  H19 non d ame     -31.772  12.444  23.304  0.00  0.00     0.163 HD
BRANCH   4   7
ATOM      7  C9  non d ame     -31.770  10.238  25.057  0.00  0.00     0.092 C 
ATOM      8  H11 non d ame     -31.048   9.575  25.533  0.00  0.00     0.088 H 
BRANCH   7   9
ATOM      9  N3  non d ame     -33.079   9.954  25.652  0.00  0.00    -0.346 N 
ATOM     10  C7  non d ame     -33.165   9.184  26.869  0.00  0.00     0.240 C 
ATOM     11  O3  non d ame     -32.192   8.785  27.382  0.00  0.00    -0.271 OA
ATOM     12  H10 non d ame     -33.927  10.290  25.220  0.00  0.00     0.163 HD
BRANCH  10  13
ATOM     13  C6  non d ame     -34.562   8.882  27.496  0.00  0.00     0.086 C 
ATOM     14  H6  non d ame     -35.387   9.228  26.874  0.00  0.00     0.086 H 
BRANCH  13  15
ATOM     15  N2  non d ame     -34.717   7.443  27.631  0.00  0.00    -0.343 N 
ATOM     16  C5  non d ame     -34.907   6.623  26.433  0.00  0.00     0.273 C 
ATOM     17  O2  non d ame     -34.936   7.130  25.365  0.00  0.00    -0.266 OA
ATOM     18  H5  non d ame     -34.694   7.019  28.547  0.00  0.00     0.163 HD
BRANCH  16  19
ATOM     19  C4  non d ame     -35.072   5.100  26.561  0.00  0.00     0.154 A 
ATOM     20  C1  non d ame     -34.032   4.123  26.660  0.00  0.00    -0.017 A 
ATOM     21  C2  non d ame     -34.705   2.885  26.756  0.00  0.00     0.077 A 
ATOM     22  H1  non d ame     -32.955   4.287  26.663  0.00  0.00     0.091 H 
ATOM     23  O1  non d ame     -35.981   3.133  26.717  0.00  0.00    -0.218 OA
ATOM     24  N1  non d ame     -36.220   4.419  26.603  0.00  0.00    -0.123 NA
BRANCH  21  25
ATOM     25  C3  non d ame     -34.056   1.513  26.884  0.00  0.00    -0.029 C 
ATOM     26  H2  non d ame     -34.208   1.132  27.893  0.00  0.00     0.036 H 
ATOM     27  H3  non d ame     -34.508   0.829  26.166  0.00  0.00     0.036 H 
ATOM     28  H4  non d ame     -32.988   1.596  26.683  0.00  0.00     0.036 H 
ENDBRANCH  21  25
ENDBRANCH  16  19
ENDBRANCH  13  15
BRANCH  13  29
ATOM     29  C8  non d ame     -34.661   9.542  28.848  0.00  0.00    -0.049 C 
ATOM     30  H7  non d ame     -35.478  10.263  28.842  0.00  0.00     0.030 H 
ATOM     31  H8  non d ame     -34.852   8.785  29.609  0.00  0.00     0.030 H 
ATOM     32  H9  non d ame     -33.725  10.055  29.072  0.00  0.00     0.030 H 
ENDBRANCH  13  29
ENDBRANCH  10  13
ENDBRANCH   7   9
BRANCH   7  33
ATOM     33  C11 non d ame     -31.844  10.015  23.518  0.00  0.00    -0.033 C 
ATOM     34  H12 non d ame     -32.007  10.987  23.052  0.00  0.00     0.042 H 
BRANCH  33  35
ATOM     35  C12 non d ame     -30.501   9.448  22.961  0.00  0.00    -0.071 C 
ATOM     36  H13 non d ame     -30.415   9.690  21.901  0.00  0.00     0.028 H 
ATOM     37  H14 non d ame     -29.666   9.890  23.503  0.00  0.00     0.028 H 
ATOM     38  H15 non d ame     -30.484   8.365  23.087  0.00  0.00     0.028 H 
ENDBRANCH  33  35
BRANCH  33  39
ATOM     39  C13 non d ame     -33.047   9.092  23.144  0.00  0.00    -0.071 C 
ATOM     40  H16 non d ame     -33.617   8.855  24.042  0.00  0.00     0.028 H 
ATOM     41  H17 non d ame     -33.691   9.605  22.429  0.00  0.00     0.028 H 
ATOM     42  H18 non d ame     -32.674   8.170  22.697  0.00  0.00     0.028 H 
ENDBRANCH  33  39
ENDBRANCH   7  33
ENDBRANCH   4   7
ENDBRANCH   1   3
BRANCH   1  43
ATOM     43  C15 non d ame     -32.199  14.711  25.407  0.00  0.00     0.240 C 
ATOM     44  O5  non d ame     -33.315  14.816  25.013  0.00  0.00    -0.271 OA
ATOM     45  N6  non d ame     -31.851  15.177  26.780  0.00  0.00    -0.355 N 
ATOM     46  H46 non d ame     -30.907  15.089  27.128  0.00  0.00     0.162 HD
BRANCH  45  47
ATOM     47  C20 non d ame     -32.897  15.775  27.638  0.00  0.00     0.013 C 
ATOM     48  H30 non d ame     -33.852  15.667  27.125  0.00  0.00     0.072 H 
BRANCH  47  49
ATOM     49  C21 non d ame     -32.588  17.239  27.855  0.00  0.00    -0.038 C 
ATOM     50  H31 non d ame     -33.220  17.553  28.686  0.00  0.00     0.036 H 
ATOM     51  H32 non d ame     -31.503  17.302  27.941  0.00  0.00     0.036 H 
BRANCH  49  52
ATOM     52  C22 non d ame     -32.982  18.120  26.649  0.00  0.00     0.018 C 
ATOM     53  H33 non d ame     -32.044  18.411  26.178  0.00  0.00     0.048 H 
ATOM     54  H34 non d ame     -33.718  17.542  26.090  0.00  0.00     0.048 H 
BRANCH  52  55
ATOM     55  C23 non d ame     -33.690  19.445  27.047  0.00  0.00     0.259 C 
ATOM     56  O7  non d ame     -33.082  20.465  27.088  0.00  0.00    -0.265 OA
BRANCH  55  57
ATOM     57  O8  non d ame     -35.074  19.424  27.376  0.00  0.00    -0.317 OA
BRANCH  57  58
ATOM     58  C29 non d ame     -35.828  20.490  26.792  0.00  0.00     0.052 C 
ATOM     59  H47 non d ame     -36.523  20.818  27.565  0.00  0.00     0.082 H 
ATOM     60  H48 non d ame     -35.093  21.186  26.389  0.00  0.00     0.082 H 
BRANCH  58  61
ATOM     61  C35 non d ame     -36.648  19.905  25.611  0.00  0.00    -0.034 A 
ATOM     62  C30 non d ame     -37.398  20.750  24.798  0.00  0.00    -0.075 A 
ATOM     63  C31 non d ame     -38.135  20.225  23.737  0.00  0.00    -0.082 A 
ATOM     64  H49 non d ame     -37.410  21.822  24.992  0.00  0.00     0.084 H 
ATOM     65  C32 non d ame     -38.121  18.849  23.491  0.00  0.00    -0.083 A 
ATOM     66  H50 non d ame     -38.721  20.890  23.101  0.00  0.00     0.083 H 
ATOM     67  C33 non d ame     -37.374  18.010  24.307  0.00  0.00    -0.082 A 
ATOM     68  H51 non d ame     -38.694  18.430  22.663  0.00  0.00     0.083 H 
ATOM     69  C34 non d ame     -36.635  18.531  25.367  0.00  0.00    -0.075 A 
ATOM     70  H52 non d ame     -37.367  16.937  24.114  0.00  0.00     0.083 H 
ATOM     71  H53 non d ame     -36.050  17.866  26.002  0.00  0.00     0.084 H 
ENDBRANCH  58  61
ENDBRANCH  57  58
ENDBRANCH  55  57
ENDBRANCH  52  55
ENDBRANCH  49  52
ENDBRANCH  47  49
BRANCH  47  72
ATOM     72  C24 non d ame     -32.934  15.056  28.984  0.00  0.00    -0.039 C 
ATOM     73  H35 non d ame     -32.602  15.793  29.716  0.00  0.00     0.036 H 
ATOM     74  H36 non d ame     -33.934  14.628  29.057  0.00  0.00     0.036 H 
BRANCH  72  75
ATOM     75  C25 non d ame     -31.894  13.838  29.035  0.00  0.00    -0.001 C 
ATOM     76  C26 non d ame     -32.672  12.455  29.461  0.00  0.00    -0.035 C 
ATOM     77  C27 non d ame     -32.007  11.878  30.490  0.00  0.00     0.085 C 
ATOM     78  H38 non d ame     -33.647  12.689  29.887  0.00  0.00     0.036 H 
ATOM     79  H39 non d ame     -32.591  11.718  28.661  0.00  0.00     0.036 H 
ATOM     80  N5  non d ame     -31.036  12.907  31.019  0.00  0.00    -0.049 N 
ATOM     81  H40 non d ame     -32.763  11.678  31.250  0.00  0.00     0.075 H 
ATOM     82  H41 non d ame     -31.446  11.055  30.050  0.00  0.00     0.075 H 
ATOM     83  C28 non d ame     -30.955  14.061  29.893  0.00  0.00     0.193 C 
ATOM     84  H42 non d ame     -31.458  13.297  31.849  0.00  0.00     0.280 HD
ATOM     85  H43 non d ame     -30.138  12.449  31.076  0.00  0.00     0.280 HD
ATOM     86  H44 non d ame     -30.092  14.127  29.230  0.00  0.00     0.129 H 
ATOM     87  H37 non d ame     -31.261  13.799  28.148  0.00  0.00     0.046 H 
BRANCH  83  88
ATOM     88  O6  non d ame     -31.073  15.350  30.498  0.00  0.00    -0.369 OA
ATOM     89  H45 non d ame     -30.778  16.022  29.879  0.00  0.00     0.212 HD
ENDBRANCH  83  88
ENDBRANCH  72  75
ENDBRANCH  47  72
ENDBRANCH  45  47
ENDBRANCH   1  43
BRANCH   1  90
ATOM     90  C16 non d ame     -31.055  14.830  23.171  0.00  0.00    -0.035 C 
ATOM     91  H21 non d ame     -31.685  14.262  22.489  0.00  0.00     0.037 H 
ATOM     92  H22 non d ame     -31.307  15.862  23.416  0.00  0.00     0.037 H 
BRANCH  90  93
ATOM     93  C17 non d ame     -29.630  14.864  22.531  0.00  0.00    -0.059 C 
ATOM     94  H23 non d ame     -28.928  15.176  23.304  0.00  0.00     0.038 H 
BRANCH  93  95
ATOM     95  C18 non d ame     -29.181  13.458  22.020  0.00  0.00    -0.073 C 
ATOM     96  H24 non d ame     -29.985  12.739  22.176  0.00  0.00     0.028 H 
ATOM     97  H25 non d ame     -28.948  13.515  20.956  0.00  0.00     0.028 H 
ATOM     98  H26 non d ame     -28.295  13.138  22.569  0.00  0.00     0.028 H 
ENDBRANCH  93  95
BRANCH  93  99
ATOM     99  C19 non d ame     -29.561  15.900  21.406  0.00  0.00    -0.073 C 
ATOM    100  H27 non d ame     -28.517  16.085  21.147  0.00  0.00     0.028 H 
ATOM    101  H28 non d ame     -30.090  15.523  20.530  0.00  0.00     0.028 H 
ATOM    102  H29 non d ame     -30.023  16.829  21.738  0.00  0.00     0.028 H 
ENDBRANCH  93  99
ENDBRANCH  90  93
ENDBRANCH   1  90
TORSDOF 26
ENDMDL
MODEL 17
REMARK VINA RESULT:      -6.6      2.772     10.405
REMARK  26 active torsions:
REMARK  status: ('A' for Active; 'I' for Inactive)
REMARK    1  A    between atoms: C2_2  and  C3_3 
REMARK    2  A    between atoms: C4_6  and  C5_7 
REMARK       I    between atoms: C5_7  and  N2_9 
REMARK    3  A    between atoms: N2_9  and  C6_10 
REMARK    4  A    between atoms: C6_10  and  C7_11 
REMARK    5  A    between atoms: C6_10  and  C8_13 
REMARK       I    between atoms: C7_11  and  N3_14 
REMARK    6  A    between atoms: N3_14  and  C9_15 
REMARK    7  A    between atoms: C9_15  and  C10_16 
REMARK    8  A    between atoms: C9_15  and  C11_18 
REMARK       I    between atoms: C10_16  and  N4_21 
REMARK    9  A    between atoms: C11_18  and  C12_19 
REMARK   10  A    between atoms: C11_18  and  C13_20 
REMARK   11  A    between atoms: N4_21  and  C14_22 
REMARK   12  A    between atoms: C14_22  and  C15_23 
REMARK   13  A    between atoms: C14_22  and  C16_25 
REMARK       I    between atoms: C15_23  and  N6_40 
REMARK   14  A    between atoms: C16_25  and  C17_26 
REMARK   15  A    between atoms: C17_26  and  C18_27 
REMARK   16  A    between atoms: C17_26  and  C19_28 
REMARK   17  A    between atoms: C20_29  and  C21_30 
REMARK   18  A    between atoms: C20_29  and  C24_33 
REMARK   19  A    between atoms: C20_29  and  N6_40 
REMARK   20  A    between atoms: C21_30  and  C22_31 
REMARK   21  A    between atoms: C22_31  and  C23_32 
REMARK   22  A    between atoms: C23_32  and  O8_43 
REMARK   23  A    between atoms: C24_33  and  C25_34 
REMARK   24  A    between atoms: C28_38  and  O6_39 
REMARK   25  A    between atoms: C29_42  and  O8_43 
REMARK   26  A    between atoms: C29_42  and  C35_49 
ROOT
ATOM      1  C14 non d ame     -32.521  11.014  29.675  0.00  0.00     0.089 C 
ATOM      2  H20 non d ame     -31.670  10.383  29.417  0.00  0.00     0.087 H 
ENDROOT
BRANCH   1   3
ATOM      3  N4  non d ame     -33.289  11.232  28.458  0.00  0.00    -0.346 N 
ATOM      4  C10 non d ame     -33.245  10.224  27.339  0.00  0.00     0.241 C 
ATOM      5  O4  non d ame     -32.583   9.244  27.438  0.00  0.00    -0.271 OA
ATOM      6  H19 non d ame     -33.844  12.073  28.392  0.00  0.00     0.163 HD
BRANCH   4   7
ATOM      7  C9  non d ame     -34.050  10.463  26.088  0.00  0.00     0.092 C 
ATOM      8  H11 non d ame     -35.100  10.255  26.292  0.00  0.00     0.088 H 
BRANCH   7   9
ATOM      9  N3  non d ame     -33.954  11.876  25.708  0.00  0.00    -0.346 N 
ATOM     10  C7  non d ame     -34.949  12.814  26.164  0.00  0.00     0.240 C 
ATOM     11  O3  non d ame     -35.835  12.450  26.837  0.00  0.00    -0.271 OA
ATOM     12  H10 non d ame     -33.196  12.204  25.126  0.00  0.00     0.163 HD
BRANCH  10  13
ATOM     13  C6  non d ame     -34.844  14.316  25.754  0.00  0.00     0.086 C 
ATOM     14  H6  non d ame     -34.578  14.963  26.589  0.00  0.00     0.086 H 
BRANCH  13  15
ATOM     15  N2  non d ame     -33.791  14.461  24.763  0.00  0.00    -0.343 N 
ATOM     16  C5  non d ame     -32.576  15.204  25.105  0.00  0.00     0.273 C 
ATOM     17  O2  non d ame     -32.456  15.684  26.178  0.00  0.00    -0.266 OA
ATOM     18  H5  non d ame     -33.902  14.051  23.847  0.00  0.00     0.163 HD
BRANCH  16  19
ATOM     19  C4  non d ame     -31.454  15.365  24.066  0.00  0.00     0.154 A 
ATOM     20  C1  non d ame     -30.204  14.670  24.030  0.00  0.00    -0.017 A 
ATOM     21  C2  non d ame     -29.541  15.176  22.890  0.00  0.00     0.077 A 
ATOM     22  H1  non d ame     -29.835  13.914  24.723  0.00  0.00     0.091 H 
ATOM     23  O1  non d ame     -30.326  16.056  22.342  0.00  0.00    -0.218 OA
ATOM     24  N1  non d ame     -31.449  16.184  23.011  0.00  0.00    -0.123 NA
BRANCH  21  25
ATOM     25  C3  non d ame     -28.161  14.765  22.393  0.00  0.00    -0.029 C 
ATOM     26  H2  non d ame     -27.613  14.282  23.200  0.00  0.00     0.036 H 
ATOM     27  H3  non d ame     -28.267  14.068  21.561  0.00  0.00     0.036 H 
ATOM     28  H4  non d ame     -27.616  15.647  22.060  0.00  0.00     0.036 H 
ENDBRANCH  21  25
ENDBRANCH  16  19
ENDBRANCH  13  15
BRANCH  13  29
ATOM     29  C8  non d ame     -36.160  14.777  25.181  0.00  0.00    -0.049 C 
ATOM     30  H7  non d ame     -36.955  14.590  25.901  0.00  0.00     0.030 H 
ATOM     31  H8  non d ame     -36.109  15.844  24.965  0.00  0.00     0.030 H 
ATOM     32  H9  non d ame     -36.367  14.229  24.260  0.00  0.00     0.030 H 
ENDBRANCH  13  29
ENDBRANCH  10  13
ENDBRANCH   7   9
BRANCH   7  33
ATOM     33  C11 non d ame     -33.490   9.580  24.934  0.00  0.00    -0.033 C 
ATOM     34  H12 non d ame     -33.175   8.632  25.370  0.00  0.00     0.042 H 
BRANCH  33  35
ATOM     35  C12 non d ame     -34.591   9.265  23.874  0.00  0.00    -0.071 C 
ATOM     36  H13 non d ame     -34.948   8.244  24.012  0.00  0.00     0.028 H 
ATOM     37  H14 non d ame     -35.422   9.960  23.996  0.00  0.00     0.028 H 
ATOM     38  H15 non d ame     -34.172   9.370  22.873  0.00  0.00     0.028 H 
ENDBRANCH  33  35
BRANCH  33  39
ATOM     39  C13 non d ame     -32.242  10.247  24.274  0.00  0.00    -0.071 C 
ATOM     40  H16 non d ame     -32.284  10.108  23.194  0.00  0.00     0.028 H 
ATOM     41  H17 non d ame     -32.234  11.313  24.504  0.00  0.00     0.028 H 
ATOM     42  H18 non d ame     -31.334   9.787  24.664  0.00  0.00     0.028 H 
ENDBRANCH  33  39
ENDBRANCH   7  33
ENDBRANCH   4   7
ENDBRANCH   1   3
BRANCH   1  43
ATOM     43  C15 non d ame     -33.447  10.345  30.732  0.00  0.00     0.240 C 
ATOM     44  O5  non d ame     -33.677  10.905  31.755  0.00  0.00    -0.271 OA
ATOM     45  N6  non d ame     -34.056   9.011  30.464  0.00  0.00    -0.355 N 
ATOM     46  H46 non d ame     -33.873   8.528  29.596  0.00  0.00     0.162 HD
BRANCH  45  47
ATOM     47  C20 non d ame     -34.935   8.390  31.478  0.00  0.00     0.013 C 
ATOM     48  H30 non d ame     -34.402   8.392  32.429  0.00  0.00     0.072 H 
BRANCH  47  49
ATOM     49  C21 non d ame     -35.252   6.971  31.064  0.00  0.00    -0.038 C 
ATOM     50  H31 non d ame     -34.684   6.333  31.743  0.00  0.00     0.036 H 
ATOM     51  H32 non d ame     -36.340   6.907  31.039  0.00  0.00     0.036 H 
BRANCH  49  52
ATOM     52  C22 non d ame     -34.761   6.639  29.638  0.00  0.00     0.018 C 
ATOM     53  H33 non d ame     -34.857   7.564  29.071  0.00  0.00     0.048 H 
ATOM     54  H34 non d ame     -33.783   6.175  29.764  0.00  0.00     0.048 H 
BRANCH  52  55
ATOM     55  C23 non d ame     -35.641   5.591  28.902  0.00  0.00     0.259 C 
ATOM     56  O7  non d ame     -36.756   5.383  29.258  0.00  0.00    -0.265 OA
BRANCH  55  57
ATOM     57  O8  non d ame     -35.095   4.870  27.804  0.00  0.00    -0.317 OA
BRANCH  57  58
ATOM     58  C29 non d ame     -35.463   5.392  26.523  0.00  0.00     0.052 C 
ATOM     59  H47 non d ame     -36.012   4.592  26.026  0.00  0.00     0.082 H 
ATOM     60  H48 non d ame     -35.949   6.346  26.722  0.00  0.00     0.082 H 
BRANCH  58  61
ATOM     61  C35 non d ame     -34.160   5.664  25.725  0.00  0.00    -0.034 A 
ATOM     62  C30 non d ame     -34.162   5.569  24.336  0.00  0.00    -0.075 A 
ATOM     63  C31 non d ame     -32.991   5.812  23.619  0.00  0.00    -0.082 A 
ATOM     64  H49 non d ame     -35.079   5.303  23.811  0.00  0.00     0.084 H 
ATOM     65  C32 non d ame     -31.816   6.150  24.295  0.00  0.00    -0.083 A 
ATOM     66  H50 non d ame     -32.996   5.739  22.530  0.00  0.00     0.083 H 
ATOM     67  C33 non d ame     -31.818   6.240  25.680  0.00  0.00    -0.082 A 
ATOM     68  H51 non d ame     -30.896   6.343  23.741  0.00  0.00     0.083 H 
ATOM     69  C34 non d ame     -32.986   5.999  26.401  0.00  0.00    -0.075 A 
ATOM     70  H52 non d ame     -30.898   6.501  26.205  0.00  0.00     0.083 H 
ATOM     71  H53 non d ame     -32.980   6.073  27.489  0.00  0.00     0.084 H 
ENDBRANCH  58  61
ENDBRANCH  57  58
ENDBRANCH  55  57
ENDBRANCH  52  55
ENDBRANCH  49  52
ENDBRANCH  47  49
BRANCH  47  72
ATOM     72  C24 non d ame     -36.232   9.189  31.597  0.00  0.00    -0.039 C 
ATOM     73  H35 non d ame     -36.742   8.784  32.471  0.00  0.00     0.036 H 
ATOM     74  H36 non d ame     -35.930  10.236  31.578  0.00  0.00     0.036 H 
BRANCH  72  75
ATOM     75  C25 non d ame     -37.192   8.951  30.337  0.00  0.00    -0.001 C 
ATOM     76  C26 non d ame     -37.134  10.253  29.335  0.00  0.00    -0.035 C 
ATOM     77  C27 non d ame     -38.399  10.661  29.075  0.00  0.00     0.085 C 
ATOM     78  H38 non d ame     -36.693  11.105  29.853  0.00  0.00     0.036 H 
ATOM     79  H39 non d ame     -36.755   9.957  28.356  0.00  0.00     0.036 H 
ATOM     80  N5  non d ame     -39.300   9.962  30.065  0.00  0.00    -0.049 N 
ATOM     81  H40 non d ame     -38.407  11.732  29.280  0.00  0.00     0.075 H 
ATOM     82  H41 non d ame     -38.622  10.296  28.073  0.00  0.00     0.075 H 
ATOM     83  C28 non d ame     -38.415   8.775  30.709  0.00  0.00     0.193 C 
ATOM     84  H42 non d ame     -39.507  10.636  30.788  0.00  0.00     0.280 HD
ATOM     85  H43 non d ame     -40.049   9.551  29.527  0.00  0.00     0.280 HD
ATOM     86  H44 non d ame     -38.570   7.741  30.399  0.00  0.00     0.129 H 
ATOM     87  H37 non d ame     -37.044   7.971  29.884  0.00  0.00     0.046 H 
BRANCH  83  88
ATOM     88  O6  non d ame     -38.552   8.773  32.131  0.00  0.00    -0.369 OA
ATOM     89  H45 non d ame     -38.418   9.663  32.466  0.00  0.00     0.212 HD
ENDBRANCH  83  88
ENDBRANCH  72  75
ENDBRANCH  47  72
ENDBRANCH  45  47
ENDBRANCH   1  43
BRANCH   1  90
ATOM     90  C16 non d ame     -32.030  12.353  30.200  0.00  0.00    -0.035 C 
ATOM     91  H21 non d ame     -32.819  12.710  30.861  0.00  0.00     0.037 H 
ATOM     92  H22 non d ame     -31.033  12.159  30.596  0.00  0.00     0.037 H 
BRANCH  90  93
ATOM     93  C17 non d ame     -31.862  13.438  29.089  0.00  0.00    -0.059 C 
ATOM     94  H23 non d ame     -32.339  13.060  28.185  0.00  0.00     0.038 H 
BRANCH  93  95
ATOM     95  C18 non d ame     -32.557  14.783  29.468  0.00  0.00    -0.073 C 
ATOM     96  H24 non d ame     -32.271  15.555  28.754  0.00  0.00     0.028 H 
ATOM     97  H25 non d ame     -33.639  14.652  29.445  0.00  0.00     0.028 H 
ATOM     98  H26 non d ame     -32.248  15.083  30.470  0.00  0.00     0.028 H 
ENDBRANCH  93  95
BRANCH  93  99
ATOM     99  C19 non d ame     -30.382  13.662  28.763  0.00  0.00    -0.073 C 
ATOM    100  H27 non d ame     -30.128  14.709  28.936  0.00  0.00     0.028 H 
ATOM    101  H28 non d ame     -29.768  13.030  29.405  0.00  0.00     0.028 H 
ATOM    102  H29 non d ame     -30.198  13.410  27.720  0.00  0.00     0.028 H 
ENDBRANCH  93  99
ENDBRANCH  90  93
ENDBRANCH   1  90
TORSDOF 26
ENDMDL
MODEL 18
REMARK VINA RESULT:      -6.6      2.603      5.076
REMARK  26 active torsions:
REMARK  status: ('A' for Active; 'I' for Inactive)
REMARK    1  A    between atoms: C2_2  and  C3_3 
REMARK    2  A    between atoms: C4_6  and  C5_7 
REMARK       I    between atoms: C5_7  and  N2_9 
REMARK    3  A    between atoms: N2_9  and  C6_10 
REMARK    4  A    between atoms: C6_10  and  C7_11 
REMARK    5  A    between atoms: C6_10  and  C8_13 
REMARK       I    between atoms: C7_11  and  N3_14 
REMARK    6  A    between atoms: N3_14  and  C9_15 
REMARK    7  A    between atoms: C9_15  and  C10_16 
REMARK    8  A    between atoms: C9_15  and  C11_18 
REMARK       I    between atoms: C10_16  and  N4_21 
REMARK    9  A    between atoms: C11_18  and  C12_19 
REMARK   10  A    between atoms: C11_18  and  C13_20 
REMARK   11  A    between atoms: N4_21  and  C14_22 
REMARK   12  A    between atoms: C14_22  and  C15_23 
REMARK   13  A    between atoms: C14_22  and  C16_25 
REMARK       I    between atoms: C15_23  and  N6_40 
REMARK   14  A    between atoms: C16_25  and  C17_26 
REMARK   15  A    between atoms: C17_26  and  C18_27 
REMARK   16  A    between atoms: C17_26  and  C19_28 
REMARK   17  A    between atoms: C20_29  and  C21_30 
REMARK   18  A    between atoms: C20_29  and  C24_33 
REMARK   19  A    between atoms: C20_29  and  N6_40 
REMARK   20  A    between atoms: C21_30  and  C22_31 
REMARK   21  A    between atoms: C22_31  and  C23_32 
REMARK   22  A    between atoms: C23_32  and  O8_43 
REMARK   23  A    between atoms: C24_33  and  C25_34 
REMARK   24  A    between atoms: C28_38  and  O6_39 
REMARK   25  A    between atoms: C29_42  and  O8_43 
REMARK   26  A    between atoms: C29_42  and  C35_49 
ROOT
ATOM      1  C14 non d ame     -32.294   9.670  25.343  0.00  0.00     0.089 C 
ATOM      2  H20 non d ame     -31.360   9.385  25.827  0.00  0.00     0.087 H 
ENDROOT
BRANCH   1   3
ATOM      3  N4  non d ame     -33.023   8.447  25.042  0.00  0.00    -0.346 N 
ATOM      4  C10 non d ame     -32.685   7.164  25.757  0.00  0.00     0.241 C 
ATOM      5  O4  non d ame     -31.821   7.139  26.570  0.00  0.00    -0.271 OA
ATOM      6  H19 non d ame     -33.752   8.488  24.345  0.00  0.00     0.163 HD
BRANCH   4   7
ATOM      7  C9  non d ame     -33.452   5.907  25.437  0.00  0.00     0.092 C 
ATOM      8  H11 non d ame     -32.834   5.041  25.671  0.00  0.00     0.088 H 
BRANCH   7   9
ATOM      9  N3  non d ame     -34.644   5.832  26.287  0.00  0.00    -0.346 N 
ATOM     10  C7  non d ame     -34.634   5.010  27.471  0.00  0.00     0.240 C 
ATOM     11  O3  non d ame     -33.675   4.402  27.755  0.00  0.00    -0.271 OA
ATOM     12  H10 non d ame     -35.479   6.351  26.053  0.00  0.00     0.163 HD
BRANCH  10  13
ATOM     13  C6  non d ame     -35.907   4.932  28.370  0.00  0.00     0.086 C 
ATOM     14  H6  non d ame     -36.105   3.923  28.732  0.00  0.00     0.086 H 
BRANCH  13  15
ATOM     15  N2  non d ame     -35.706   5.763  29.545  0.00  0.00    -0.343 N 
ATOM     16  C5  non d ame     -35.619   7.217  29.394  0.00  0.00     0.273 C 
ATOM     17  O2  non d ame     -35.707   7.708  28.322  0.00  0.00    -0.266 OA
ATOM     18  H5  non d ame     -35.629   5.335  30.457  0.00  0.00     0.163 HD
BRANCH  16  19
ATOM     19  C4  non d ame     -35.408   8.108  30.628  0.00  0.00     0.154 A 
ATOM     20  C1  non d ame     -35.804   9.474  30.786  0.00  0.00    -0.017 A 
ATOM     21  C2  non d ame     -35.383   9.825  32.088  0.00  0.00     0.077 A 
ATOM     22  H1  non d ame     -36.319  10.111  30.068  0.00  0.00     0.091 H 
ATOM     23  O1  non d ame     -34.815   8.778  32.608  0.00  0.00    -0.218 OA
ATOM     24  N1  non d ame     -34.817   7.763  31.775  0.00  0.00    -0.123 NA
BRANCH  21  25
ATOM     25  C3  non d ame     -35.563  11.180  32.759  0.00  0.00    -0.029 C 
ATOM     26  H2  non d ame     -35.927  11.902  32.028  0.00  0.00     0.036 H 
ATOM     27  H3  non d ame     -36.286  11.092  33.570  0.00  0.00     0.036 H 
ATOM     28  H4  non d ame     -34.608  11.519  33.159  0.00  0.00     0.036 H 
ENDBRANCH  21  25
ENDBRANCH  16  19
ENDBRANCH  13  15
BRANCH  13  29
ATOM     29  C8  non d ame     -37.105   5.414  27.593  0.00  0.00    -0.049 C 
ATOM     30  H7  non d ame     -36.860   6.349  27.091  0.00  0.00     0.030 H 
ATOM     31  H8  non d ame     -37.383   4.666  26.851  0.00  0.00     0.030 H 
ATOM     32  H9  non d ame     -37.939   5.577  28.276  0.00  0.00     0.030 H 
ENDBRANCH  13  29
ENDBRANCH  10  13
ENDBRANCH   7   9
BRANCH   7  33
ATOM     33  C11 non d ame     -33.886   5.932  23.941  0.00  0.00    -0.033 C 
ATOM     34  H12 non d ame     -34.007   6.976  23.652  0.00  0.00     0.042 H 
BRANCH  33  35
ATOM     35  C12 non d ame     -32.786   5.315  23.021  0.00  0.00    -0.071 C 
ATOM     36  H13 non d ame     -31.853   5.228  23.579  0.00  0.00     0.028 H 
ATOM     37  H14 non d ame     -33.104   4.328  22.687  0.00  0.00     0.028 H 
ATOM     38  H15 non d ame     -32.632   5.961  22.157  0.00  0.00     0.028 H 
ENDBRANCH  33  35
BRANCH  33  39
ATOM     39  C13 non d ame     -35.258   5.213  23.745  0.00  0.00    -0.071 C 
ATOM     40  H16 non d ame     -35.839   5.739  22.986  0.00  0.00     0.028 H 
ATOM     41  H17 non d ame     -35.088   4.185  23.426  0.00  0.00     0.028 H 
ATOM     42  H18 non d ame     -35.807   5.214  24.687  0.00  0.00     0.028 H 
ENDBRANCH  33  39
ENDBRANCH   7  33
ENDBRANCH   4   7
ENDBRANCH   1   3
BRANCH   1  43
ATOM     43  C15 non d ame     -33.181  10.562  26.259  0.00  0.00     0.240 C 
ATOM     44  O5  non d ame     -34.085  10.078  26.859  0.00  0.00    -0.271 OA
ATOM     45  N6  non d ame     -32.897  12.019  26.396  0.00  0.00    -0.355 N 
ATOM     46  H46 non d ame     -32.128  12.441  25.895  0.00  0.00     0.162 HD
BRANCH  45  47
ATOM     47  C20 non d ame     -33.749  12.852  27.271  0.00  0.00     0.013 C 
ATOM     48  H30 non d ame     -34.419  12.188  27.817  0.00  0.00     0.072 H 
BRANCH  47  49
ATOM     49  C21 non d ame     -34.551  13.812  26.422  0.00  0.00    -0.038 C 
ATOM     50  H31 non d ame     -35.281  13.199  25.894  0.00  0.00     0.036 H 
ATOM     51  H32 non d ame     -34.886  14.596  27.102  0.00  0.00     0.036 H 
BRANCH  49  52
ATOM     52  C22 non d ame     -33.699  14.509  25.338  0.00  0.00     0.018 C 
ATOM     53  H33 non d ame     -32.761  13.957  25.301  0.00  0.00     0.048 H 
ATOM     54  H34 non d ame     -34.335  14.565  24.455  0.00  0.00     0.048 H 
BRANCH  52  55
ATOM     55  C23 non d ame     -33.320  15.975  25.687  0.00  0.00     0.259 C 
ATOM     56  O7  non d ame     -34.092  16.679  26.254  0.00  0.00    -0.265 OA
BRANCH  55  57
ATOM     57  O8  non d ame     -32.042  16.474  25.308  0.00  0.00    -0.317 OA
BRANCH  57  58
ATOM     58  C29 non d ame     -31.061  15.456  25.090  0.00  0.00     0.052 C 
ATOM     59  H47 non d ame     -30.195  15.750  25.681  0.00  0.00     0.082 H 
ATOM     60  H48 non d ame     -31.565  14.512  25.291  0.00  0.00     0.082 H 
BRANCH  58  61
ATOM     61  C35 non d ame     -30.665  15.488  23.589  0.00  0.00    -0.034 A 
ATOM     62  C30 non d ame     -29.554  14.776  23.147  0.00  0.00    -0.075 A 
ATOM     63  C31 non d ame     -29.198  14.805  21.799  0.00  0.00    -0.082 A 
ATOM     64  H49 non d ame     -28.963  14.196  23.855  0.00  0.00     0.084 H 
ATOM     65  C32 non d ame     -29.956  15.551  20.893  0.00  0.00    -0.083 A 
ATOM     66  H50 non d ame     -28.328  14.244  21.455  0.00  0.00     0.083 H 
ATOM     67  C33 non d ame     -31.061  16.263  21.340  0.00  0.00    -0.082 A 
ATOM     68  H51 non d ame     -29.684  15.579  19.837  0.00  0.00     0.083 H 
ATOM     69  C34 non d ame     -31.421  16.236  22.685  0.00  0.00    -0.075 A 
ATOM     70  H52 non d ame     -31.649  16.847  20.630  0.00  0.00     0.083 H 
ATOM     71  H53 non d ame     -32.291  16.796  23.028  0.00  0.00     0.084 H 
ENDBRANCH  58  61
ENDBRANCH  57  58
ENDBRANCH  55  57
ENDBRANCH  52  55
ENDBRANCH  49  52
ENDBRANCH  47  49
BRANCH  47  72
ATOM     72  C24 non d ame     -32.874  13.640  28.245  0.00  0.00    -0.039 C 
ATOM     73  H35 non d ame     -32.307  14.336  27.626  0.00  0.00     0.036 H 
ATOM     74  H36 non d ame     -33.556  14.019  29.006  0.00  0.00     0.036 H 
BRANCH  72  75
ATOM     75  C25 non d ame     -31.814  12.695  28.987  0.00  0.00    -0.001 C 
ATOM     76  C26 non d ame     -32.596  11.463  29.742  0.00  0.00    -0.035 C 
ATOM     77  C27 non d ame     -32.183  11.408  31.031  0.00  0.00     0.085 C 
ATOM     78  H38 non d ame     -33.659  11.688  29.825  0.00  0.00     0.036 H 
ATOM     79  H39 non d ame     -32.273  10.506  29.331  0.00  0.00     0.036 H 
ATOM     80  N5  non d ame     -31.439  12.692  31.310  0.00  0.00    -0.049 N 
ATOM     81  H40 non d ame     -33.095  11.388  31.629  0.00  0.00     0.075 H 
ATOM     82  H41 non d ame     -31.483  10.575  31.078  0.00  0.00     0.075 H 
ATOM     83  C28 non d ame     -31.139  13.354  29.869  0.00  0.00     0.193 C 
ATOM     84  H42 non d ame     -32.079  13.290  31.812  0.00  0.00     0.280 HD
ATOM     85  H43 non d ame     -30.560  12.426  31.732  0.00  0.00     0.280 HD
ATOM     86  H44 non d ame     -30.141  13.302  29.433  0.00  0.00     0.129 H 
ATOM     87  H37 non d ame     -30.976  12.430  28.343  0.00  0.00     0.046 H 
BRANCH  83  88
ATOM     88  O6  non d ame     -31.479  14.741  29.883  0.00  0.00    -0.369 OA
ATOM     89  H45 non d ame     -32.430  14.839  29.789  0.00  0.00     0.212 HD
ENDBRANCH  83  88
ENDBRANCH  72  75
ENDBRANCH  47  72
ENDBRANCH  45  47
ENDBRANCH   1  43
BRANCH   1  90
ATOM     90  C16 non d ame     -31.999  10.405  24.045  0.00  0.00    -0.035 C 
ATOM     91  H21 non d ame     -32.858  10.215  23.404  0.00  0.00     0.037 H 
ATOM     92  H22 non d ame     -31.754  11.425  24.341  0.00  0.00     0.037 H 
BRANCH  90  93
ATOM     93  C17 non d ame     -30.751   9.854  23.283  0.00  0.00    -0.059 C 
ATOM     94  H23 non d ame     -30.108   9.364  24.014  0.00  0.00     0.038 H 
BRANCH  93  95
ATOM     95  C18 non d ame     -31.140   8.793  22.205  0.00  0.00    -0.073 C 
ATOM     96  H24 non d ame     -30.475   8.886  21.346  0.00  0.00     0.028 H 
ATOM     97  H25 non d ame     -31.047   7.793  22.628  0.00  0.00     0.028 H 
ATOM     98  H26 non d ame     -32.170   8.958  21.887  0.00  0.00     0.028 H 
ENDBRANCH  93  95
BRANCH  93  99
ATOM     99  C19 non d ame     -29.944  10.995  22.659  0.00  0.00    -0.073 C 
ATOM    100  H27 non d ame     -28.879  10.810  22.807  0.00  0.00     0.028 H 
ATOM    101  H28 non d ame     -30.157  11.049  21.591  0.00  0.00     0.028 H 
ATOM    102  H29 non d ame     -30.219  11.937  23.132  0.00  0.00     0.028 H 
ENDBRANCH  93  99
ENDBRANCH  90  93
ENDBRANCH   1  90
TORSDOF 26
ENDMDL
MODEL 19
REMARK VINA RESULT:      -6.6      3.378      7.773
REMARK  26 active torsions:
REMARK  status: ('A' for Active; 'I' for Inactive)
REMARK    1  A    between atoms: C2_2  and  C3_3 
REMARK    2  A    between atoms: C4_6  and  C5_7 
REMARK       I    between atoms: C5_7  and  N2_9 
REMARK    3  A    between atoms: N2_9  and  C6_10 
REMARK    4  A    between atoms: C6_10  and  C7_11 
REMARK    5  A    between atoms: C6_10  and  C8_13 
REMARK       I    between atoms: C7_11  and  N3_14 
REMARK    6  A    between atoms: N3_14  and  C9_15 
REMARK    7  A    between atoms: C9_15  and  C10_16 
REMARK    8  A    between atoms: C9_15  and  C11_18 
REMARK       I    between atoms: C10_16  and  N4_21 
REMARK    9  A    between atoms: C11_18  and  C12_19 
REMARK   10  A    between atoms: C11_18  and  C13_20 
REMARK   11  A    between atoms: N4_21  and  C14_22 
REMARK   12  A    between atoms: C14_22  and  C15_23 
REMARK   13  A    between atoms: C14_22  and  C16_25 
REMARK       I    between atoms: C15_23  and  N6_40 
REMARK   14  A    between atoms: C16_25  and  C17_26 
REMARK   15  A    between atoms: C17_26  and  C18_27 
REMARK   16  A    between atoms: C17_26  and  C19_28 
REMARK   17  A    between atoms: C20_29  and  C21_30 
REMARK   18  A    between atoms: C20_29  and  C24_33 
REMARK   19  A    between atoms: C20_29  and  N6_40 
REMARK   20  A    between atoms: C21_30  and  C22_31 
REMARK   21  A    between atoms: C22_31  and  C23_32 
REMARK   22  A    between atoms: C23_32  and  O8_43 
REMARK   23  A    between atoms: C24_33  and  C25_34 
REMARK   24  A    between atoms: C28_38  and  O6_39 
REMARK   25  A    between atoms: C29_42  and  O8_43 
REMARK   26  A    between atoms: C29_42  and  C35_49 
ROOT
ATOM      1  C14 non d ame     -34.019   6.831  27.828  0.00  0.00     0.089 C 
ATOM      2  H20 non d ame     -33.648   6.252  28.674  0.00  0.00     0.087 H 
ENDROOT
BRANCH   1   3
ATOM      3  N4  non d ame     -34.434   8.131  28.334  0.00  0.00    -0.346 N 
ATOM      4  C10 non d ame     -34.834   8.294  29.778  0.00  0.00     0.241 C 
ATOM      5  O4  non d ame     -34.816   7.365  30.515  0.00  0.00    -0.271 OA
ATOM      6  H19 non d ame     -34.445   8.909  27.689  0.00  0.00     0.163 HD
BRANCH   4   7
ATOM      7  C9  non d ame     -35.256   9.648  30.285  0.00  0.00     0.092 C 
ATOM      8  H11 non d ame     -35.112   9.688  31.364  0.00  0.00     0.088 H 
BRANCH   7   9
ATOM      9  N3  non d ame     -34.399  10.681  29.695  0.00  0.00    -0.346 N 
ATOM     10  C7  non d ame     -33.213  11.116  30.389  0.00  0.00     0.240 C 
ATOM     11  O3  non d ame     -32.932  10.646  31.424  0.00  0.00    -0.271 OA
ATOM     12  H10 non d ame     -34.630  11.097  28.803  0.00  0.00     0.163 HD
BRANCH  10  13
ATOM     13  C6  non d ame     -32.306  12.218  29.757  0.00  0.00     0.086 C 
ATOM     14  H6  non d ame     -31.921  11.936  28.778  0.00  0.00     0.086 H 
BRANCH  13  15
ATOM     15  N2  non d ame     -33.095  13.423  29.563  0.00  0.00    -0.343 N 
ATOM     16  C5  non d ame     -32.660  14.419  28.582  0.00  0.00     0.273 C 
ATOM     17  O2  non d ame     -31.672  14.244  27.956  0.00  0.00    -0.266 OA
ATOM     18  H5  non d ame     -33.936  13.566  30.104  0.00  0.00     0.163 HD
BRANCH  16  19
ATOM     19  C4  non d ame     -33.484  15.698  28.365  0.00  0.00     0.154 A 
ATOM     20  C1  non d ame     -34.757  15.808  27.720  0.00  0.00    -0.017 A 
ATOM     21  C2  non d ame     -35.078  17.182  27.782  0.00  0.00     0.077 A 
ATOM     22  H1  non d ame     -35.355  15.012  27.276  0.00  0.00     0.091 H 
ATOM     23  O1  non d ame     -34.100  17.782  28.394  0.00  0.00    -0.218 OA
ATOM     24  N1  non d ame     -33.158  16.937  28.744  0.00  0.00    -0.123 NA
BRANCH  21  25
ATOM     25  C3  non d ame     -36.338  17.839  27.235  0.00  0.00    -0.029 C 
ATOM     26  H2  non d ame     -36.240  18.922  27.298  0.00  0.00     0.036 H 
ATOM     27  H3  non d ame     -36.477  17.548  26.194  0.00  0.00     0.036 H 
ATOM     28  H4  non d ame     -37.200  17.517  27.820  0.00  0.00     0.036 H 
ENDBRANCH  21  25
ENDBRANCH  16  19
ENDBRANCH  13  15
BRANCH  13  29
ATOM     29  C8  non d ame     -31.144  12.503  30.674  0.00  0.00    -0.049 C 
ATOM     30  H7  non d ame     -31.423  13.279  31.385  0.00  0.00     0.030 H 
ATOM     31  H8  non d ame     -30.876  11.595  31.214  0.00  0.00     0.030 H 
ATOM     32  H9  non d ame     -30.291  12.840  30.084  0.00  0.00     0.030 H 
ENDBRANCH  13  29
ENDBRANCH  10  13
ENDBRANCH   7   9
BRANCH   7  33
ATOM     33  C11 non d ame     -36.737   9.914  29.882  0.00  0.00    -0.033 C 
ATOM     34  H12 non d ame     -37.216   8.947  29.732  0.00  0.00     0.042 H 
BRANCH  33  35
ATOM     35  C12 non d ame     -37.512  10.650  31.019  0.00  0.00    -0.071 C 
ATOM     36  H13 non d ame     -37.344  10.135  31.965  0.00  0.00     0.028 H 
ATOM     37  H14 non d ame     -37.156  11.677  31.096  0.00  0.00     0.028 H 
ATOM     38  H15 non d ame     -38.578  10.650  30.792  0.00  0.00     0.028 H 
ENDBRANCH  33  35
BRANCH  33  39
ATOM     39  C13 non d ame     -36.817  10.705  28.538  0.00  0.00    -0.071 C 
ATOM     40  H16 non d ame     -36.568  10.042  27.709  0.00  0.00     0.028 H 
ATOM     41  H17 non d ame     -37.827  11.093  28.403  0.00  0.00     0.028 H 
ATOM     42  H18 non d ame     -36.111  11.536  28.562  0.00  0.00     0.028 H 
ENDBRANCH  33  39
ENDBRANCH   7  33
ENDBRANCH   4   7
ENDBRANCH   1   3
BRANCH   1  43
ATOM     43  C15 non d ame     -32.927   7.048  26.741  0.00  0.00     0.240 C 
ATOM     44  O5  non d ame     -31.820   6.659  26.930  0.00  0.00    -0.271 OA
ATOM     45  N6  non d ame     -33.264   7.731  25.460  0.00  0.00    -0.355 N 
ATOM     46  H46 non d ame     -34.203   8.061  25.286  0.00  0.00     0.162 HD
BRANCH  45  47
ATOM     47  C20 non d ame     -32.214   7.928  24.437  0.00  0.00     0.013 C 
ATOM     48  H30 non d ame     -31.254   7.684  24.891  0.00  0.00     0.072 H 
BRANCH  47  49
ATOM     49  C21 non d ame     -32.221   9.371  23.985  0.00  0.00    -0.038 C 
ATOM     50  H31 non d ame     -31.643   9.393  23.061  0.00  0.00     0.036 H 
ATOM     51  H32 non d ame     -33.269   9.672  23.979  0.00  0.00     0.036 H 
BRANCH  49  52
ATOM     52  C22 non d ame     -31.502  10.313  24.975  0.00  0.00     0.018 C 
ATOM     53  H33 non d ame     -30.787   9.688  25.509  0.00  0.00     0.048 H 
ATOM     54  H34 non d ame     -31.151  11.155  24.378  0.00  0.00     0.048 H 
BRANCH  52  55
ATOM     55  C23 non d ame     -32.438  10.916  26.058  0.00  0.00     0.259 C 
ATOM     56  O7  non d ame     -32.560  10.384  27.114  0.00  0.00    -0.265 OA
BRANCH  55  57
ATOM     57  O8  non d ame     -33.161  12.107  25.769  0.00  0.00    -0.317 OA
BRANCH  57  58
ATOM     58  C29 non d ame     -34.426  12.196  26.431  0.00  0.00     0.052 C 
ATOM     59  H47 non d ame     -34.420  11.410  27.185  0.00  0.00     0.082 H 
ATOM     60  H48 non d ame     -34.530  13.238  26.730  0.00  0.00     0.082 H 
BRANCH  58  61
ATOM     61  C35 non d ame     -35.533  11.872  25.392  0.00  0.00    -0.034 A 
ATOM     62  C30 non d ame     -36.446  12.854  25.019  0.00  0.00    -0.075 A 
ATOM     63  C31 non d ame     -37.442  12.563  24.087  0.00  0.00    -0.082 A 
ATOM     64  H49 non d ame     -36.384  13.850  25.457  0.00  0.00     0.084 H 
ATOM     65  C32 non d ame     -37.522  11.285  23.528  0.00  0.00    -0.083 A 
ATOM     66  H50 non d ame     -38.155  13.335  23.795  0.00  0.00     0.083 H 
ATOM     67  C33 non d ame     -36.611  10.308  23.906  0.00  0.00    -0.082 A 
ATOM     68  H51 non d ame     -38.297  11.049  22.797  0.00  0.00     0.083 H 
ATOM     69  C34 non d ame     -35.614  10.594  24.836  0.00  0.00    -0.075 A 
ATOM     70  H52 non d ame     -36.678   9.310  23.470  0.00  0.00     0.083 H 
ATOM     71  H53 non d ame     -34.901   9.823  25.127  0.00  0.00     0.084 H 
ENDBRANCH  58  61
ENDBRANCH  57  58
ENDBRANCH  55  57
ENDBRANCH  52  55
ENDBRANCH  49  52
ENDBRANCH  47  49
BRANCH  47  72
ATOM     72  C24 non d ame     -32.482   7.017  23.241  0.00  0.00    -0.039 C 
ATOM     73  H35 non d ame     -31.564   6.444  23.102  0.00  0.00     0.036 H 
ATOM     74  H36 non d ame     -33.415   6.502  23.471  0.00  0.00     0.036 H 
BRANCH  72  75
ATOM     75  C25 non d ame     -32.724   7.856  21.898  0.00  0.00    -0.001 C 
ATOM     76  C26 non d ame     -34.335   7.980  21.598  0.00  0.00    -0.035 C 
ATOM     77  C27 non d ame     -34.573   7.592  20.321  0.00  0.00     0.085 C 
ATOM     78  H38 non d ame     -34.884   7.249  22.192  0.00  0.00     0.036 H 
ATOM     79  H39 non d ame     -34.639   9.027  21.606  0.00  0.00     0.036 H 
ATOM     80  N5  non d ame     -33.321   6.906  19.829  0.00  0.00    -0.049 N 
ATOM     81  H40 non d ame     -35.378   6.861  20.385  0.00  0.00     0.075 H 
ATOM     82  H41 non d ame     -34.717   8.514  19.759  0.00  0.00     0.075 H 
ATOM     83  C28 non d ame     -32.161   7.288  20.884  0.00  0.00     0.193 C 
ATOM     84  H42 non d ame     -33.496   5.914  19.889  0.00  0.00     0.280 HD
ATOM     85  H43 non d ame     -33.097   7.327  18.938  0.00  0.00     0.280 HD
ATOM     86  H44 non d ame     -31.407   8.035  20.632  0.00  0.00     0.129 H 
ATOM     87  H37 non d ame     -32.143   8.778  21.878  0.00  0.00     0.046 H 
BRANCH  83  88
ATOM     88  O6  non d ame     -31.430   6.119  21.258  0.00  0.00    -0.369 OA
ATOM     89  H45 non d ame     -30.838   6.329  21.985  0.00  0.00     0.212 HD
ENDBRANCH  83  88
ENDBRANCH  72  75
ENDBRANCH  47  72
ENDBRANCH  45  47
ENDBRANCH   1  43
BRANCH   1  90
ATOM     90  C16 non d ame     -35.220   6.130  27.213  0.00  0.00    -0.035 C 
ATOM     91  H21 non d ame     -34.954   5.965  26.170  0.00  0.00     0.037 H 
ATOM     92  H22 non d ame     -35.423   5.281  27.865  0.00  0.00     0.037 H 
BRANCH  90  93
ATOM     93  C17 non d ame     -36.516   7.001  27.205  0.00  0.00    -0.059 C 
ATOM     94  H23 non d ame     -36.255   7.986  27.593  0.00  0.00     0.038 H 
BRANCH  93  95
ATOM     95  C18 non d ame     -37.088   7.195  25.764  0.00  0.00    -0.073 C 
ATOM     96  H24 non d ame     -36.575   6.522  25.076  0.00  0.00     0.028 H 
ATOM     97  H25 non d ame     -38.154   6.970  25.763  0.00  0.00     0.028 H 
ATOM     98  H26 non d ame     -36.933   8.226  25.447  0.00  0.00     0.028 H 
ENDBRANCH  93  95
BRANCH  93  99
ATOM     99  C19 non d ame     -37.578   6.411  28.136  0.00  0.00    -0.073 C 
ATOM    100  H27 non d ame     -38.443   6.098  27.549  0.00  0.00     0.028 H 
ATOM    101  H28 non d ame     -37.165   5.549  28.660  0.00  0.00     0.028 H 
ATOM    102  H29 non d ame     -37.885   7.164  28.862  0.00  0.00     0.028 H 
ENDBRANCH  93  99
ENDBRANCH  90  93
ENDBRANCH   1  90
TORSDOF 26
ENDMDL
MODEL 20
REMARK VINA RESULT:      -6.6      2.727     10.363
REMARK  26 active torsions:
REMARK  status: ('A' for Active; 'I' for Inactive)
REMARK    1  A    between atoms: C2_2  and  C3_3 
REMARK    2  A    between atoms: C4_6  and  C5_7 
REMARK       I    between atoms: C5_7  and  N2_9 
REMARK    3  A    between atoms: N2_9  and  C6_10 
REMARK    4  A    between atoms: C6_10  and  C7_11 
REMARK    5  A    between atoms: C6_10  and  C8_13 
REMARK       I    between atoms: C7_11  and  N3_14 
REMARK    6  A    between atoms: N3_14  and  C9_15 
REMARK    7  A    between atoms: C9_15  and  C10_16 
REMARK    8  A    between atoms: C9_15  and  C11_18 
REMARK       I    between atoms: C10_16  and  N4_21 
REMARK    9  A    between atoms: C11_18  and  C12_19 
REMARK   10  A    between atoms: C11_18  and  C13_20 
REMARK   11  A    between atoms: N4_21  and  C14_22 
REMARK   12  A    between atoms: C14_22  and  C15_23 
REMARK   13  A    between atoms: C14_22  and  C16_25 
REMARK       I    between atoms: C15_23  and  N6_40 
REMARK   14  A    between atoms: C16_25  and  C17_26 
REMARK   15  A    between atoms: C17_26  and  C18_27 
REMARK   16  A    between atoms: C17_26  and  C19_28 
REMARK   17  A    between atoms: C20_29  and  C21_30 
REMARK   18  A    between atoms: C20_29  and  C24_33 
REMARK   19  A    between atoms: C20_29  and  N6_40 
REMARK   20  A    between atoms: C21_30  and  C22_31 
REMARK   21  A    between atoms: C22_31  and  C23_32 
REMARK   22  A    between atoms: C23_32  and  O8_43 
REMARK   23  A    between atoms: C24_33  and  C25_34 
REMARK   24  A    between atoms: C28_38  and  O6_39 
REMARK   25  A    between atoms: C29_42  and  O8_43 
REMARK   26  A    between atoms: C29_42  and  C35_49 
ROOT
ATOM      1  C14 non d ame     -32.925  10.857  29.868  0.00  0.00     0.089 C 
ATOM      2  H20 non d ame     -31.905  10.492  29.744  0.00  0.00     0.087 H 
ENDROOT
BRANCH   1   3
ATOM      3  N4  non d ame     -33.500  11.010  28.540  0.00  0.00    -0.346 N 
ATOM      4  C10 non d ame     -32.609  11.073  27.327  0.00  0.00     0.241 C 
ATOM      5  O4  non d ame     -31.430  10.999  27.442  0.00  0.00    -0.271 OA
ATOM      6  H19 non d ame     -34.505  11.074  28.463  0.00  0.00     0.163 HD
BRANCH   4   7
ATOM      7  C9  non d ame     -33.222  11.228  25.959  0.00  0.00     0.092 C 
ATOM      8  H11 non d ame     -34.307  11.215  26.049  0.00  0.00     0.088 H 
BRANCH   7   9
ATOM      9  N3  non d ame     -32.848  12.530  25.400  0.00  0.00    -0.346 N 
ATOM     10  C7  non d ame     -33.250  13.743  26.068  0.00  0.00     0.240 C 
ATOM     11  O3  non d ame     -33.876  13.689  27.056  0.00  0.00    -0.271 OA
ATOM     12  H10 non d ame     -32.309  12.592  24.548  0.00  0.00     0.163 HD
BRANCH  10  13
ATOM     13  C6  non d ame     -32.852  15.127  25.467  0.00  0.00     0.086 C 
ATOM     14  H6  non d ame     -33.303  15.308  24.492  0.00  0.00     0.086 H 
BRANCH  13  15
ATOM     15  N2  non d ame     -33.331  16.179  26.348  0.00  0.00    -0.343 N 
ATOM     16  C5  non d ame     -34.606  16.838  26.058  0.00  0.00     0.273 C 
ATOM     17  O2  non d ame     -35.239  16.517  25.113  0.00  0.00    -0.266 OA
ATOM     18  H5  non d ame     -32.783  16.450  27.152  0.00  0.00     0.163 HD
BRANCH  16  19
ATOM     19  C4  non d ame     -35.125  17.952  26.982  0.00  0.00     0.154 A 
ATOM     20  C1  non d ame     -35.831  19.135  26.597  0.00  0.00    -0.017 A 
ATOM     21  C2  non d ame     -36.077  19.821  27.808  0.00  0.00     0.077 A 
ATOM     22  H1  non d ame     -36.121  19.448  25.594  0.00  0.00     0.091 H 
ATOM     23  O1  non d ame     -35.569  19.106  28.768  0.00  0.00    -0.218 OA
ATOM     24  N1  non d ame     -35.007  18.011  28.311  0.00  0.00    -0.123 NA
BRANCH  21  25
ATOM     25  C3  non d ame     -36.804  21.150  27.959  0.00  0.00    -0.029 C 
ATOM     26  H2  non d ame     -37.382  21.145  28.883  0.00  0.00     0.036 H 
ATOM     27  H3  non d ame     -36.076  21.961  27.993  0.00  0.00     0.036 H 
ATOM     28  H4  non d ame     -37.473  21.298  27.112  0.00  0.00     0.036 H 
ENDBRANCH  21  25
ENDBRANCH  16  19
ENDBRANCH  13  15
BRANCH  13  29
ATOM     29  C8  non d ame     -31.353  15.207  25.333  0.00  0.00    -0.049 C 
ATOM     30  H7  non d ame     -30.960  14.231  25.052  0.00  0.00     0.030 H 
ATOM     31  H8  non d ame     -31.095  15.936  24.566  0.00  0.00     0.030 H 
ATOM     32  H9  non d ame     -30.919  15.512  26.286  0.00  0.00     0.030 H 
ENDBRANCH  13  29
ENDBRANCH  10  13
ENDBRANCH   7   9
BRANCH   7  33
ATOM     33  C11 non d ame     -32.697  10.096  25.026  0.00  0.00    -0.033 C 
ATOM     34  H12 non d ame     -32.271   9.319  25.659  0.00  0.00     0.042 H 
BRANCH  33  35
ATOM     35  C12 non d ame     -33.860   9.451  24.209  0.00  0.00    -0.071 C 
ATOM     36  H13 non d ame     -33.456   8.690  23.541  0.00  0.00     0.028 H 
ATOM     37  H14 non d ame     -34.574   8.993  24.892  0.00  0.00     0.028 H 
ATOM     38  H15 non d ame     -34.361  10.219  23.620  0.00  0.00     0.028 H 
ENDBRANCH  33  35
BRANCH  33  39
ATOM     39  C13 non d ame     -31.569  10.626  24.085  0.00  0.00    -0.071 C 
ATOM     40  H16 non d ame     -31.220  11.594  24.445  0.00  0.00     0.028 H 
ATOM     41  H17 non d ame     -30.739   9.919  24.077  0.00  0.00     0.028 H 
ATOM     42  H18 non d ame     -31.960  10.735  23.073  0.00  0.00     0.028 H 
ENDBRANCH  33  39
ENDBRANCH   7  33
ENDBRANCH   4   7
ENDBRANCH   1   3
BRANCH   1  43
ATOM     43  C15 non d ame     -33.809   9.865  30.679  0.00  0.00     0.240 C 
ATOM     44  O5  non d ame     -34.064  10.095  31.817  0.00  0.00    -0.271 OA
ATOM     45  N6  non d ame     -34.345   8.633  30.034  0.00  0.00    -0.355 N 
ATOM     46  H46 non d ame     -34.139   8.429  29.066  0.00  0.00     0.162 HD
BRANCH  45  47
ATOM     47  C20 non d ame     -35.184   7.701  30.818  0.00  0.00     0.013 C 
ATOM     48  H30 non d ame     -35.054   7.942  31.873  0.00  0.00     0.072 H 
BRANCH  47  49
ATOM     49  C21 non d ame     -34.738   6.281  30.552  0.00  0.00    -0.038 C 
ATOM     50  H31 non d ame     -33.659   6.335  30.404  0.00  0.00     0.036 H 
ATOM     51  H32 non d ame     -35.146   5.687  31.370  0.00  0.00     0.036 H 
BRANCH  49  52
ATOM     52  C22 non d ame     -35.331   5.701  29.250  0.00  0.00     0.018 C 
ATOM     53  H33 non d ame     -35.138   4.630  29.290  0.00  0.00     0.048 H 
ATOM     54  H34 non d ame     -36.356   6.069  29.203  0.00  0.00     0.048 H 
BRANCH  52  55
ATOM     55  C23 non d ame     -34.632   6.214  27.961  0.00  0.00     0.259 C 
ATOM     56  O7  non d ame     -35.134   7.067  27.302  0.00  0.00    -0.265 OA
BRANCH  55  57
ATOM     57  O8  non d ame     -33.390   5.644  27.567  0.00  0.00    -0.317 OA
BRANCH  57  58
ATOM     58  C29 non d ame     -33.508   4.615  26.580  0.00  0.00     0.052 C 
ATOM     59  H47 non d ame     -32.866   3.803  26.921  0.00  0.00     0.082 H 
ATOM     60  H48 non d ame     -34.577   4.449  26.452  0.00  0.00     0.082 H 
BRANCH  58  61
ATOM     61  C35 non d ame     -32.936   5.165  25.245  0.00  0.00    -0.034 A 
ATOM     62  C30 non d ame     -31.956   6.153  25.263  0.00  0.00    -0.075 A 
ATOM     63  C31 non d ame     -31.442   6.647  24.064  0.00  0.00    -0.082 A 
ATOM     64  H49 non d ame     -31.591   6.540  26.214  0.00  0.00     0.084 H 
ATOM     65  C32 non d ame     -31.913   6.151  22.846  0.00  0.00    -0.083 A 
ATOM     66  H50 non d ame     -30.673   7.420  24.081  0.00  0.00     0.083 H 
ATOM     67  C33 non d ame     -32.893   5.168  22.834  0.00  0.00    -0.082 A 
ATOM     68  H51 non d ame     -31.516   6.532  21.904  0.00  0.00     0.083 H 
ATOM     69  C34 non d ame     -33.408   4.670  24.029  0.00  0.00    -0.075 A 
ATOM     70  H52 non d ame     -33.261   4.785  21.881  0.00  0.00     0.083 H 
ATOM     71  H53 non d ame     -34.177   3.897  24.011  0.00  0.00     0.084 H 
ENDBRANCH  58  61
ENDBRANCH  57  58
ENDBRANCH  55  57
ENDBRANCH  52  55
ENDBRANCH  49  52
ENDBRANCH  47  49
BRANCH  47  72
ATOM     72  C24 non d ame     -36.648   7.861  30.414  0.00  0.00    -0.039 C 
ATOM     73  H35 non d ame     -36.824   7.097  29.655  0.00  0.00     0.036 H 
ATOM     74  H36 non d ame     -37.211   7.840  31.348  0.00  0.00     0.036 H 
BRANCH  72  75
ATOM     75  C25 non d ame     -36.923   9.281  29.728  0.00  0.00    -0.001 C 
ATOM     76  C26 non d ame     -37.686  10.278  30.790  0.00  0.00    -0.035 C 
ATOM     77  C27 non d ame     -38.786  10.794  30.192  0.00  0.00     0.085 C 
ATOM     78  H38 non d ame     -38.093   9.700  31.619  0.00  0.00     0.036 H 
ATOM     79  H39 non d ame     -37.069  11.155  30.989  0.00  0.00     0.036 H 
ATOM     80  N5  non d ame     -39.024   9.989  28.936  0.00  0.00    -0.049 N 
ATOM     81  H40 non d ame     -39.606  10.617  30.888  0.00  0.00     0.075 H 
ATOM     82  H41 non d ame     -38.517  11.812  29.915  0.00  0.00     0.075 H 
ATOM     83  C28 non d ame     -37.664   9.157  28.678  0.00  0.00     0.193 C 
ATOM     84  H42 non d ame     -39.764   9.336  29.151  0.00  0.00     0.280 HD
ATOM     85  H43 non d ame     -39.140  10.657  28.187  0.00  0.00     0.280 HD
ATOM     86  H44 non d ame     -36.964   9.470  27.903  0.00  0.00     0.129 H 
ATOM     87  H37 non d ame     -36.039   9.675  29.226  0.00  0.00     0.046 H 
BRANCH  83  88
ATOM     88  O6  non d ame     -37.968   7.791  28.391  0.00  0.00    -0.369 OA
ATOM     89  H45 non d ame     -38.271   7.715  27.482  0.00  0.00     0.212 HD
ENDBRANCH  83  88
ENDBRANCH  72  75
ENDBRANCH  47  72
ENDBRANCH  45  47
ENDBRANCH   1  43
BRANCH   1  90
ATOM     90  C16 non d ame     -32.907  12.209  30.562  0.00  0.00    -0.035 C 
ATOM     91  H21 non d ame     -33.505  12.865  29.932  0.00  0.00     0.037 H 
ATOM     92  H22 non d ame     -33.213  12.011  31.589  0.00  0.00     0.037 H 
BRANCH  90  93
ATOM     93  C17 non d ame     -31.485  12.853  30.642  0.00  0.00    -0.059 C 
ATOM     94  H23 non d ame     -31.426  13.408  31.578  0.00  0.00     0.038 H 
BRANCH  93  95
ATOM     95  C18 non d ame     -30.352  11.778  30.653  0.00  0.00    -0.073 C 
ATOM     96  H24 non d ame     -29.909  11.727  31.648  0.00  0.00     0.028 H 
ATOM     97  H25 non d ame     -30.770  10.806  30.393  0.00  0.00     0.028 H 
ATOM     98  H26 non d ame     -29.586  12.050  29.928  0.00  0.00     0.028 H 
ENDBRANCH  93  95
BRANCH  93  99
ATOM     99  C19 non d ame     -31.274  13.855  29.503  0.00  0.00    -0.073 C 
ATOM    100  H27 non d ame     -30.693  14.702  29.869  0.00  0.00     0.028 H 
ATOM    101  H28 non d ame     -30.736  13.371  28.688  0.00  0.00     0.028 H 
ATOM    102  H29 non d ame     -32.241  14.205  29.143  0.00  0.00     0.028 H 
ENDBRANCH  93  99
ENDBRANCH  90  93
ENDBRANCH   1  90
TORSDOF 26
ENDMDL
