MODEL 1
REMARK VINA RESULT:      -7.4      0.000      0.000
REMARK  26 active torsions:
REMARK  status: ('A' for Active; 'I' for Inactive)
REMARK    1  A    between atoms: C2_2  and  C3_3 
REMARK    2  A    between atoms: C4_6  and  C5_7 
REMARK       I    between atoms: C5_7  and  N2_9 
REMARK    3  A    between atoms: N2_9  and  C6_10 
REMARK    4  A    between atoms: C6_10  and  C7_11 
REMARK    5  A    between atoms: C6_10  and  C8_13 
REMARK       I    between atoms: C7_11  and  N3_14 
REMARK    6  A    between atoms: N3_14  and  C9_15 
REMARK    7  A    between atoms: C9_15  and  C10_16 
REMARK    8  A    between atoms: C9_15  and  C11_18 
REMARK       I    between atoms: C10_16  and  N4_21 
REMARK    9  A    between atoms: C11_18  and  C12_19 
REMARK   10  A    between atoms: C11_18  and  C13_20 
REMARK   11  A    between atoms: N4_21  and  C14_22 
REMARK   12  A    between atoms: C14_22  and  C15_23 
REMARK   13  A    between atoms: C14_22  and  C16_25 
REMARK       I    between atoms: C15_23  and  N6_40 
REMARK   14  A    between atoms: C16_25  and  C17_26 
REMARK   15  A    between atoms: C17_26  and  C18_27 
REMARK   16  A    between atoms: C17_26  and  C19_28 
REMARK   17  A    between atoms: C20_29  and  C21_30 
REMARK   18  A    between atoms: C20_29  and  C24_33 
REMARK   19  A    between atoms: C20_29  and  N6_40 
REMARK   20  A    between atoms: C21_30  and  C22_31 
REMARK   21  A    between atoms: C22_31  and  C23_32 
REMARK   22  A    between atoms: C23_32  and  O8_43 
REMARK   23  A    between atoms: C24_33  and  C25_34 
REMARK   24  A    between atoms: C28_38  and  O6_39 
REMARK   25  A    between atoms: C29_42  and  O8_43 
REMARK   26  A    between atoms: C29_42  and  C35_49 
ROOT
ATOM      1  C14 non d ame     -33.196  10.342  25.778  0.00  0.00     0.089 C 
ATOM      2  H20 non d ame     -33.943  10.389  24.986  0.00  0.00     0.087 H 
ENDROOT
BRANCH   1   3
ATOM      3  N4  non d ame     -32.612   9.009  25.752  0.00  0.00    -0.346 N 
ATOM      4  C10 non d ame     -33.195   7.940  24.865  0.00  0.00     0.241 C 
ATOM      5  O4  non d ame     -34.136   8.174  24.180  0.00  0.00    -0.271 OA
ATOM      6  H19 non d ame     -31.814   8.829  26.344  0.00  0.00     0.163 HD
BRANCH   4   7
ATOM      7  C9  non d ame     -32.576   6.567  24.847  0.00  0.00     0.092 C 
ATOM      8  H11 non d ame     -31.513   6.650  25.072  0.00  0.00     0.088 H 
BRANCH   7   9
ATOM      9  N3  non d ame     -33.180   5.744  25.900  0.00  0.00    -0.346 N 
ATOM     10  C7  non d ame     -32.665   5.805  27.245  0.00  0.00     0.240 C 
ATOM     11  O3  non d ame     -31.765   6.509  27.498  0.00  0.00    -0.271 OA
ATOM     12  H10 non d ame     -33.956   5.131  25.696  0.00  0.00     0.163 HD
BRANCH  10  13
ATOM     13  C6  non d ame     -33.309   4.925  28.361  0.00  0.00     0.086 C 
ATOM     14  H6  non d ame     -32.678   4.837  29.245  0.00  0.00     0.086 H 
BRANCH  13  15
ATOM     15  N2  non d ame     -34.548   5.547  28.796  0.00  0.00    -0.343 N 
ATOM     16  C5  non d ame     -34.922   5.500  30.211  0.00  0.00     0.273 C 
ATOM     17  O2  non d ame     -34.221   4.956  30.992  0.00  0.00    -0.266 OA
ATOM     18  H5  non d ame     -35.143   6.007  28.121  0.00  0.00     0.163 HD
BRANCH  16  19
ATOM     19  C4  non d ame     -36.230   6.154  30.684  0.00  0.00     0.154 A 
ATOM     20  C1  non d ame     -36.530   7.552  30.729  0.00  0.00    -0.017 A 
ATOM     21  C2  non d ame     -37.847   7.625  31.235  0.00  0.00     0.077 A 
ATOM     22  H1  non d ame     -35.891   8.386  30.438  0.00  0.00     0.091 H 
ATOM     23  O1  non d ame     -38.247   6.407  31.451  0.00  0.00    -0.218 OA
ATOM     24  N1  non d ame     -37.320   5.530  31.137  0.00  0.00    -0.123 NA
BRANCH  21  25
ATOM     25  C3  non d ame     -38.650   8.895  31.481  0.00  0.00    -0.029 C 
ATOM     26  H2  non d ame     -38.466   9.603  30.674  0.00  0.00     0.036 H 
ATOM     27  H3  non d ame     -39.712   8.653  31.515  0.00  0.00     0.036 H 
ATOM     28  H4  non d ame     -38.348   9.339  32.429  0.00  0.00     0.036 H 
ENDBRANCH  21  25
ENDBRANCH  16  19
ENDBRANCH  13  15
BRANCH  13  29
ATOM     29  C8  non d ame     -33.585   3.545  27.821  0.00  0.00    -0.049 C 
ATOM     30  H7  non d ame     -33.674   3.591  26.736  0.00  0.00     0.030 H 
ATOM     31  H8  non d ame     -32.765   2.879  28.089  0.00  0.00     0.030 H 
ATOM     32  H9  non d ame     -34.515   3.168  28.247  0.00  0.00     0.030 H 
ENDBRANCH  13  29
ENDBRANCH  10  13
ENDBRANCH   7   9
BRANCH   7  33
ATOM     33  C11 non d ame     -32.832   5.901  23.462  0.00  0.00    -0.033 C 
ATOM     34  H12 non d ame     -33.683   6.406  23.007  0.00  0.00     0.042 H 
BRANCH  33  35
ATOM     35  C12 non d ame     -31.611   6.087  22.509  0.00  0.00    -0.071 C 
ATOM     36  H13 non d ame     -31.929   5.934  21.477  0.00  0.00     0.028 H 
ATOM     37  H14 non d ame     -31.212   7.095  22.621  0.00  0.00     0.028 H 
ATOM     38  H15 non d ame     -30.839   5.360  22.761  0.00  0.00     0.028 H 
ENDBRANCH  33  35
BRANCH  33  39
ATOM     39  C13 non d ame     -33.198   4.391  23.627  0.00  0.00    -0.071 C 
ATOM     40  H16 non d ame     -32.860   3.838  22.751  0.00  0.00     0.028 H 
ATOM     41  H17 non d ame     -32.712   3.994  24.519  0.00  0.00     0.028 H 
ATOM     42  H18 non d ame     -34.278   4.288  23.727  0.00  0.00     0.028 H 
ENDBRANCH  33  39
ENDBRANCH   7  33
ENDBRANCH   4   7
ENDBRANCH   1   3
BRANCH   1  43
ATOM     43  C15 non d ame     -32.058  11.385  25.573  0.00  0.00     0.240 C 
ATOM     44  O5  non d ame     -30.926  11.066  25.746  0.00  0.00    -0.271 OA
ATOM     45  N6  non d ame     -32.380  12.777  25.151  0.00  0.00    -0.355 N 
ATOM     46  H46 non d ame     -33.337  13.059  24.996  0.00  0.00     0.162 HD
BRANCH  45  47
ATOM     47  C20 non d ame     -31.287  13.756  24.960  0.00  0.00     0.013 C 
ATOM     48  H30 non d ame     -30.383  13.202  24.705  0.00  0.00     0.072 H 
BRANCH  47  49
ATOM     49  C21 non d ame     -31.076  14.528  26.243  0.00  0.00    -0.038 C 
ATOM     50  H31 non d ame     -30.182  14.102  26.699  0.00  0.00     0.036 H 
ATOM     51  H32 non d ame     -31.096  15.580  25.959  0.00  0.00     0.036 H 
BRANCH  49  52
ATOM     52  C22 non d ame     -32.223  14.328  27.258  0.00  0.00     0.018 C 
ATOM     53  H33 non d ame     -33.076  14.866  26.848  0.00  0.00     0.048 H 
ATOM     54  H34 non d ame     -32.284  13.252  27.424  0.00  0.00     0.048 H 
BRANCH  52  55
ATOM     55  C23 non d ame     -31.944  14.961  28.649  0.00  0.00     0.259 C 
ATOM     56  O7  non d ame     -31.012  14.607  29.297  0.00  0.00    -0.265 OA
BRANCH  55  57
ATOM     57  O8  non d ame     -32.825  15.961  29.149  0.00  0.00    -0.317 OA
BRANCH  57  58
ATOM     58  C29 non d ame     -33.904  16.280  28.266  0.00  0.00     0.052 C 
ATOM     59  H47 non d ame     -33.946  15.465  27.544  0.00  0.00     0.082 H 
ATOM     60  H48 non d ame     -34.760  16.484  28.908  0.00  0.00     0.082 H 
BRANCH  58  61
ATOM     61  C35 non d ame     -33.535  17.586  27.512  0.00  0.00    -0.034 A 
ATOM     62  C30 non d ame     -32.809  18.582  28.160  0.00  0.00    -0.075 A 
ATOM     63  C31 non d ame     -32.478  19.755  27.483  0.00  0.00    -0.082 A 
ATOM     64  H49 non d ame     -32.501  18.444  29.196  0.00  0.00     0.084 H 
ATOM     65  C32 non d ame     -32.877  19.932  26.155  0.00  0.00    -0.083 A 
ATOM     66  H50 non d ame     -31.908  20.533  27.992  0.00  0.00     0.083 H 
ATOM     67  C33 non d ame     -33.604  18.937  25.516  0.00  0.00    -0.082 A 
ATOM     68  H51 non d ame     -32.621  20.846  25.619  0.00  0.00     0.083 H 
ATOM     69  C34 non d ame     -33.936  17.762  26.187  0.00  0.00    -0.075 A 
ATOM     70  H52 non d ame     -33.916  19.079  24.480  0.00  0.00     0.083 H 
ATOM     71  H53 non d ame     -34.505  16.985  25.677  0.00  0.00     0.084 H 
ENDBRANCH  58  61
ENDBRANCH  57  58
ENDBRANCH  55  57
ENDBRANCH  52  55
ENDBRANCH  49  52
ENDBRANCH  47  49
BRANCH  47  72
ATOM     72  C24 non d ame     -31.651  14.723  23.835  0.00  0.00    -0.039 C 
ATOM     73  H35 non d ame     -32.684  14.489  23.576  0.00  0.00     0.036 H 
ATOM     74  H36 non d ame     -31.395  15.714  24.211  0.00  0.00     0.036 H 
BRANCH  72  75
ATOM     75  C25 non d ame     -30.765  14.470  22.525  0.00  0.00    -0.001 C 
ATOM     76  C26 non d ame     -29.277  13.918  22.954  0.00  0.00    -0.035 C 
ATOM     77  C27 non d ame     -28.337  14.676  22.340  0.00  0.00     0.085 C 
ATOM     78  H38 non d ame     -29.100  14.102  24.013  0.00  0.00     0.036 H 
ATOM     79  H39 non d ame     -29.113  12.923  22.539  0.00  0.00     0.036 H 
ATOM     80  N5  non d ame     -29.041  15.896  21.794  0.00  0.00    -0.049 N 
ATOM     81  H40 non d ame     -27.651  14.984  23.129  0.00  0.00     0.075 H 
ATOM     82  H41 non d ame     -27.974  14.073  21.508  0.00  0.00     0.075 H 
ATOM     83  C28 non d ame     -30.618  15.557  21.844  0.00  0.00     0.193 C 
ATOM     84  H42 non d ame     -28.853  16.647  22.441  0.00  0.00     0.280 HD
ATOM     85  H43 non d ame     -28.759  15.978  20.828  0.00  0.00     0.280 HD
ATOM     86  H44 non d ame     -31.156  15.293  20.933  0.00  0.00     0.129 H 
ATOM     87  H37 non d ame     -31.304  13.904  21.766  0.00  0.00     0.046 H 
BRANCH  83  88
ATOM     88  O6  non d ame     -31.340  16.651  22.412  0.00  0.00    -0.369 OA
ATOM     89  H45 non d ame     -31.507  17.311  21.734  0.00  0.00     0.212 HD
ENDBRANCH  83  88
ENDBRANCH  72  75
ENDBRANCH  47  72
ENDBRANCH  45  47
ENDBRANCH   1  43
BRANCH   1  90
ATOM     90  C16 non d ame     -33.859  10.569  27.127  0.00  0.00    -0.035 C 
ATOM     91  H21 non d ame     -33.937  11.650  27.232  0.00  0.00     0.037 H 
ATOM     92  H22 non d ame     -34.760   9.955  27.112  0.00  0.00     0.037 H 
BRANCH  90  93
ATOM     93  C17 non d ame     -33.005  10.070  28.336  0.00  0.00    -0.059 C 
ATOM     94  H23 non d ame     -32.140   9.543  27.934  0.00  0.00     0.038 H 
BRANCH  93  95
ATOM     95  C18 non d ame     -32.477  11.251  29.212  0.00  0.00    -0.073 C 
ATOM     96  H24 non d ame     -31.462  11.505  28.907  0.00  0.00     0.028 H 
ATOM     97  H25 non d ame     -33.123  12.119  29.079  0.00  0.00     0.028 H 
ATOM     98  H26 non d ame     -32.478  10.954  30.261  0.00  0.00     0.028 H 
ENDBRANCH  93  95
BRANCH  93  99
ATOM     99  C19 non d ame     -33.793   9.071  29.188  0.00  0.00    -0.073 C 
ATOM    100  H27 non d ame     -33.261   8.119  29.216  0.00  0.00     0.028 H 
ATOM    101  H28 non d ame     -33.897   9.458  30.201  0.00  0.00     0.028 H 
ATOM    102  H29 non d ame     -34.781   8.922  28.752  0.00  0.00     0.028 H 
ENDBRANCH  93  99
ENDBRANCH  90  93
ENDBRANCH   1  90
TORSDOF 26
ENDMDL
MODEL 2
REMARK VINA RESULT:      -7.2      3.692      7.289
REMARK  26 active torsions:
REMARK  status: ('A' for Active; 'I' for Inactive)
REMARK    1  A    between atoms: C2_2  and  C3_3 
REMARK    2  A    between atoms: C4_6  and  C5_7 
REMARK       I    between atoms: C5_7  and  N2_9 
REMARK    3  A    between atoms: N2_9  and  C6_10 
REMARK    4  A    between atoms: C6_10  and  C7_11 
REMARK    5  A    between atoms: C6_10  and  C8_13 
REMARK       I    between atoms: C7_11  and  N3_14 
REMARK    6  A    between atoms: N3_14  and  C9_15 
REMARK    7  A    between atoms: C9_15  and  C10_16 
REMARK    8  A    between atoms: C9_15  and  C11_18 
REMARK       I    between atoms: C10_16  and  N4_21 
REMARK    9  A    between atoms: C11_18  and  C12_19 
REMARK   10  A    between atoms: C11_18  and  C13_20 
REMARK   11  A    between atoms: N4_21  and  C14_22 
REMARK   12  A    between atoms: C14_22  and  C15_23 
REMARK   13  A    between atoms: C14_22  and  C16_25 
REMARK       I    between atoms: C15_23  and  N6_40 
REMARK   14  A    between atoms: C16_25  and  C17_26 
REMARK   15  A    between atoms: C17_26  and  C18_27 
REMARK   16  A    between atoms: C17_26  and  C19_28 
REMARK   17  A    between atoms: C20_29  and  C21_30 
REMARK   18  A    between atoms: C20_29  and  C24_33 
REMARK   19  A    between atoms: C20_29  and  N6_40 
REMARK   20  A    between atoms: C21_30  and  C22_31 
REMARK   21  A    between atoms: C22_31  and  C23_32 
REMARK   22  A    between atoms: C23_32  and  O8_43 
REMARK   23  A    between atoms: C24_33  and  C25_34 
REMARK   24  A    between atoms: C28_38  and  O6_39 
REMARK   25  A    between atoms: C29_42  and  O8_43 
REMARK   26  A    between atoms: C29_42  and  C35_49 
ROOT
ATOM      1  C14 non d ame     -31.179  14.058  24.189  0.00  0.00     0.089 C 
ATOM      2  H20 non d ame     -30.172  14.005  24.604  0.00  0.00     0.087 H 
ENDROOT
BRANCH   1   3
ATOM      3  N4  non d ame     -31.716  12.706  24.169  0.00  0.00    -0.346 N 
ATOM      4  C10 non d ame     -31.567  11.809  25.371  0.00  0.00     0.241 C 
ATOM      5  O4  non d ame     -31.008  12.196  26.344  0.00  0.00    -0.271 OA
ATOM      6  H19 non d ame     -32.186  12.394  23.331  0.00  0.00     0.163 HD
BRANCH   4   7
ATOM      7  C9  non d ame     -32.133  10.413  25.335  0.00  0.00     0.092 C 
ATOM      8  H11 non d ame     -33.016  10.402  24.697  0.00  0.00     0.088 H 
BRANCH   7   9
ATOM      9  N3  non d ame     -31.153   9.503  24.735  0.00  0.00    -0.346 N 
ATOM     10  C7  non d ame     -31.204   9.219  23.322  0.00  0.00     0.240 C 
ATOM     11  O3  non d ame     -32.027   9.714  22.653  0.00  0.00    -0.271 OA
ATOM     12  H10 non d ame     -30.438   9.068  25.300  0.00  0.00     0.163 HD
BRANCH  10  13
ATOM     13  C6  non d ame     -30.160   8.247  22.690  0.00  0.00     0.086 C 
ATOM     14  H6  non d ame     -29.591   7.695  23.438  0.00  0.00     0.086 H 
BRANCH  13  15
ATOM     15  N2  non d ame     -30.860   7.259  21.887  0.00  0.00    -0.343 N 
ATOM     16  C5  non d ame     -31.606   6.188  22.551  0.00  0.00     0.273 C 
ATOM     17  O2  non d ame     -31.634   6.128  23.731  0.00  0.00    -0.266 OA
ATOM     18  H5  non d ame     -30.829   7.316  20.879  0.00  0.00     0.163 HD
BRANCH  16  19
ATOM     19  C4  non d ame     -32.353   5.137  21.714  0.00  0.00     0.154 A 
ATOM     20  C1  non d ame     -31.784   4.207  20.788  0.00  0.00    -0.017 A 
ATOM     21  C2  non d ame     -32.884   3.472  20.290  0.00  0.00     0.077 A 
ATOM     22  H1  non d ame     -30.735   4.083  20.519  0.00  0.00     0.091 H 
ATOM     23  O1  non d ame     -33.952   3.933  20.870  0.00  0.00    -0.218 OA
ATOM     24  N1  non d ame     -33.668   4.905  21.706  0.00  0.00    -0.123 NA
BRANCH  21  25
ATOM     25  C3  non d ame     -32.827   2.347  19.266  0.00  0.00    -0.029 C 
ATOM     26  H2  non d ame     -33.338   2.658  18.355  0.00  0.00     0.036 H 
ATOM     27  H3  non d ame     -31.786   2.117  19.036  0.00  0.00     0.036 H 
ATOM     28  H4  non d ame     -33.313   1.460  19.671  0.00  0.00     0.036 H 
ENDBRANCH  21  25
ENDBRANCH  16  19
ENDBRANCH  13  15
BRANCH  13  29
ATOM     29  C8  non d ame     -29.200   9.028  21.828  0.00  0.00    -0.049 C 
ATOM     30  H7  non d ame     -29.060   8.510  20.879  0.00  0.00     0.030 H 
ATOM     31  H8  non d ame     -29.606  10.022  21.641  0.00  0.00     0.030 H 
ATOM     32  H9  non d ame     -28.241   9.116  22.339  0.00  0.00     0.030 H 
ENDBRANCH  13  29
ENDBRANCH  10  13
ENDBRANCH   7   9
BRANCH   7  33
ATOM     33  C11 non d ame     -32.451   9.946  26.786  0.00  0.00    -0.033 C 
ATOM     34  H12 non d ame     -31.693  10.371  27.442  0.00  0.00     0.042 H 
BRANCH  33  35
ATOM     35  C12 non d ame     -33.838  10.479  27.263  0.00  0.00    -0.071 C 
ATOM     36  H13 non d ame     -34.055  10.089  28.258  0.00  0.00     0.028 H 
ATOM     37  H14 non d ame     -33.817  11.568  27.296  0.00  0.00     0.028 H 
ATOM     38  H15 non d ame     -34.612  10.151  26.569  0.00  0.00     0.028 H 
ENDBRANCH  33  35
BRANCH  33  39
ATOM     39  C13 non d ame     -32.372   8.390  26.901  0.00  0.00    -0.071 C 
ATOM     40  H16 non d ame     -31.426   8.042  26.487  0.00  0.00     0.028 H 
ATOM     41  H17 non d ame     -32.439   8.099  27.950  0.00  0.00     0.028 H 
ATOM     42  H18 non d ame     -33.197   7.942  26.348  0.00  0.00     0.028 H 
ENDBRANCH  33  39
ENDBRANCH   7  33
ENDBRANCH   4   7
ENDBRANCH   1   3
BRANCH   1  43
ATOM     43  C15 non d ame     -32.120  14.953  25.047  0.00  0.00     0.240 C 
ATOM     44  O5  non d ame     -33.122  15.381  24.573  0.00  0.00    -0.271 OA
ATOM     45  N6  non d ame     -31.777  15.266  26.463  0.00  0.00    -0.355 N 
ATOM     46  H46 non d ame     -30.931  14.904  26.879  0.00  0.00     0.162 HD
BRANCH  45  47
ATOM     47  C20 non d ame     -32.683  16.117  27.265  0.00  0.00     0.013 C 
ATOM     48  H30 non d ame     -33.693  15.993  26.874  0.00  0.00     0.072 H 
BRANCH  47  49
ATOM     49  C21 non d ame     -32.254  17.561  27.141  0.00  0.00    -0.038 C 
ATOM     50  H31 non d ame     -32.231  17.950  28.159  0.00  0.00     0.036 H 
ATOM     51  H32 non d ame     -31.343  17.547  26.542  0.00  0.00     0.036 H 
BRANCH  49  52
ATOM     52  C22 non d ame     -33.273  18.425  26.364  0.00  0.00     0.018 C 
ATOM     53  H33 non d ame     -32.720  19.300  26.026  0.00  0.00     0.048 H 
ATOM     54  H34 non d ame     -33.733  17.755  25.638  0.00  0.00     0.048 H 
BRANCH  52  55
ATOM     55  C23 non d ame     -34.434  18.965  27.244  0.00  0.00     0.259 C 
ATOM     56  O7  non d ame     -34.396  18.853  28.427  0.00  0.00    -0.265 OA
BRANCH  55  57
ATOM     57  O8  non d ame     -35.552  19.584  26.619  0.00  0.00    -0.317 OA
BRANCH  57  58
ATOM     58  C29 non d ame     -35.636  19.349  25.211  0.00  0.00     0.052 C 
ATOM     59  H47 non d ame     -35.957  20.294  24.773  0.00  0.00     0.082 H 
ATOM     60  H48 non d ame     -34.679  18.913  24.926  0.00  0.00     0.082 H 
BRANCH  58  61
ATOM     61  C35 non d ame     -36.747  18.293  24.968  0.00  0.00    -0.034 A 
ATOM     62  C30 non d ame     -38.079  18.689  24.888  0.00  0.00    -0.075 A 
ATOM     63  C31 non d ame     -39.077  17.740  24.671  0.00  0.00    -0.082 A 
ATOM     64  H49 non d ame     -38.341  19.741  24.998  0.00  0.00     0.084 H 
ATOM     65  C32 non d ame     -38.740  16.391  24.533  0.00  0.00    -0.083 A 
ATOM     66  H50 non d ame     -40.120  18.054  24.607  0.00  0.00     0.083 H 
ATOM     67  C33 non d ame     -37.410  16.001  24.617  0.00  0.00    -0.082 A 
ATOM     68  H51 non d ame     -39.514  15.643  24.362  0.00  0.00     0.083 H 
ATOM     69  C34 non d ame     -36.409  16.945  24.833  0.00  0.00    -0.075 A 
ATOM     70  H52 non d ame     -37.150  14.946  24.511  0.00  0.00     0.083 H 
ATOM     71  H53 non d ame     -35.367  16.631  24.895  0.00  0.00     0.084 H 
ENDBRANCH  58  61
ENDBRANCH  57  58
ENDBRANCH  55  57
ENDBRANCH  52  55
ENDBRANCH  49  52
ENDBRANCH  47  49
BRANCH  47  72
ATOM     72  C24 non d ame     -32.627  15.692  28.731  0.00  0.00    -0.039 C 
ATOM     73  H35 non d ame     -32.220  16.551  29.266  0.00  0.00     0.036 H 
ATOM     74  H36 non d ame     -33.628  15.328  28.966  0.00  0.00     0.036 H 
BRANCH  72  75
ATOM     75  C25 non d ame     -31.615  14.471  28.956  0.00  0.00    -0.001 C 
ATOM     76  C26 non d ame     -32.453  13.118  29.366  0.00  0.00    -0.035 C 
ATOM     77  C27 non d ame     -31.910  12.591  30.490  0.00  0.00     0.085 C 
ATOM     78  H38 non d ame     -33.465  13.382  29.672  0.00  0.00     0.036 H 
ATOM     79  H39 non d ame     -32.296  12.339  28.619  0.00  0.00     0.036 H 
ATOM     80  N5  non d ame     -30.988  13.639  31.067  0.00  0.00    -0.049 N 
ATOM     81  H40 non d ame     -32.746  12.437  31.173  0.00  0.00     0.075 H 
ATOM     82  H41 non d ame     -31.316  11.742  30.156  0.00  0.00     0.075 H 
ATOM     83  C28 non d ame     -30.772  14.732  29.899  0.00  0.00     0.193 C 
ATOM     84  H42 non d ame     -31.492  14.076  31.826  0.00  0.00     0.280 HD
ATOM     85  H43 non d ame     -30.108  13.178  31.244  0.00  0.00     0.280 HD
ATOM     86  H44 non d ame     -29.841  14.756  29.330  0.00  0.00     0.129 H 
ATOM     87  H37 non d ame     -30.892  14.380  28.146  0.00  0.00     0.046 H 
BRANCH  83  88
ATOM     88  O6  non d ame     -30.936  16.051  30.420  0.00  0.00    -0.369 OA
ATOM     89  H45 non d ame     -30.856  16.030  31.377  0.00  0.00     0.212 HD
ENDBRANCH  83  88
ENDBRANCH  72  75
ENDBRANCH  47  72
ENDBRANCH  45  47
ENDBRANCH   1  43
BRANCH   1  90
ATOM     90  C16 non d ame     -31.123  14.593  22.767  0.00  0.00    -0.035 C 
ATOM     91  H21 non d ame     -31.061  13.712  22.130  0.00  0.00     0.037 H 
ATOM     92  H22 non d ame     -31.972  15.271  22.680  0.00  0.00     0.037 H 
BRANCH  90  93
ATOM     93  C17 non d ame     -29.846  15.442  22.468  0.00  0.00    -0.059 C 
ATOM     94  H23 non d ame     -29.863  16.307  23.131  0.00  0.00     0.038 H 
BRANCH  93  95
ATOM     95  C18 non d ame     -28.531  14.650  22.752  0.00  0.00    -0.073 C 
ATOM     96  H24 non d ame     -27.887  14.684  21.873  0.00  0.00     0.028 H 
ATOM     97  H25 non d ame     -28.011  15.099  23.598  0.00  0.00     0.028 H 
ATOM     98  H26 non d ame     -28.774  13.613  22.984  0.00  0.00     0.028 H 
ENDBRANCH  93  95
BRANCH  93  99
ATOM     99  C19 non d ame     -29.864  15.969  21.030  0.00  0.00    -0.073 C 
ATOM    100  H27 non d ame     -29.269  15.311  20.395  0.00  0.00     0.028 H 
ATOM    101  H28 non d ame     -30.891  15.994  20.665  0.00  0.00     0.028 H 
ATOM    102  H29 non d ame     -29.445  16.974  21.006  0.00  0.00     0.028 H 
ENDBRANCH  93  99
ENDBRANCH  90  93
ENDBRANCH   1  90
TORSDOF 26
ENDMDL
MODEL 3
REMARK VINA RESULT:      -7.2      3.060     10.233
REMARK  26 active torsions:
REMARK  status: ('A' for Active; 'I' for Inactive)
REMARK    1  A    between atoms: C2_2  and  C3_3 
REMARK    2  A    between atoms: C4_6  and  C5_7 
REMARK       I    between atoms: C5_7  and  N2_9 
REMARK    3  A    between atoms: N2_9  and  C6_10 
REMARK    4  A    between atoms: C6_10  and  C7_11 
REMARK    5  A    between atoms: C6_10  and  C8_13 
REMARK       I    between atoms: C7_11  and  N3_14 
REMARK    6  A    between atoms: N3_14  and  C9_15 
REMARK    7  A    between atoms: C9_15  and  C10_16 
REMARK    8  A    between atoms: C9_15  and  C11_18 
REMARK       I    between atoms: C10_16  and  N4_21 
REMARK    9  A    between atoms: C11_18  and  C12_19 
REMARK   10  A    between atoms: C11_18  and  C13_20 
REMARK   11  A    between atoms: N4_21  and  C14_22 
REMARK   12  A    between atoms: C14_22  and  C15_23 
REMARK   13  A    between atoms: C14_22  and  C16_25 
REMARK       I    between atoms: C15_23  and  N6_40 
REMARK   14  A    between atoms: C16_25  and  C17_26 
REMARK   15  A    between atoms: C17_26  and  C18_27 
REMARK   16  A    between atoms: C17_26  and  C19_28 
REMARK   17  A    between atoms: C20_29  and  C21_30 
REMARK   18  A    between atoms: C20_29  and  C24_33 
REMARK   19  A    between atoms: C20_29  and  N6_40 
REMARK   20  A    between atoms: C21_30  and  C22_31 
REMARK   21  A    between atoms: C22_31  and  C23_32 
REMARK   22  A    between atoms: C23_32  and  O8_43 
REMARK   23  A    between atoms: C24_33  and  C25_34 
REMARK   24  A    between atoms: C28_38  and  O6_39 
REMARK   25  A    between atoms: C29_42  and  O8_43 
REMARK   26  A    between atoms: C29_42  and  C35_49 
ROOT
ATOM      1  C14 non d ame     -36.142  13.409  26.428  0.00  0.00     0.089 C 
ATOM      2  H20 non d ame     -36.747  13.298  27.328  0.00  0.00     0.087 H 
ENDROOT
BRANCH   1   3
ATOM      3  N4  non d ame     -35.857  14.827  26.263  0.00  0.00    -0.346 N 
ATOM      4  C10 non d ame     -36.884  15.860  26.651  0.00  0.00     0.241 C 
ATOM      5  O4  non d ame     -37.935  15.527  27.092  0.00  0.00    -0.271 OA
ATOM      6  H19 non d ame     -34.959  15.090  25.884  0.00  0.00     0.163 HD
BRANCH   4   7
ATOM      7  C9  non d ame     -36.571  17.323  26.478  0.00  0.00     0.092 C 
ATOM      8  H11 non d ame     -36.799  17.851  27.404  0.00  0.00     0.088 H 
BRANCH   7   9
ATOM      9  N3  non d ame     -35.136  17.490  26.227  0.00  0.00    -0.346 N 
ATOM     10  C7  non d ame     -34.245  17.796  27.319  0.00  0.00     0.240 C 
ATOM     11  O3  non d ame     -34.664  17.911  28.405  0.00  0.00    -0.271 OA
ATOM     12  H10 non d ame     -34.760  17.395  25.295  0.00  0.00     0.163 HD
BRANCH  10  13
ATOM     13  C6  non d ame     -32.719  17.975  27.045  0.00  0.00     0.086 C 
ATOM     14  H6  non d ame     -32.096  17.461  27.776  0.00  0.00     0.086 H 
BRANCH  13  15
ATOM     15  N2  non d ame     -32.401  17.399  25.749  0.00  0.00    -0.343 N 
ATOM     16  C5  non d ame     -31.752  16.088  25.682  0.00  0.00     0.273 C 
ATOM     17  O2  non d ame     -31.486  15.506  26.677  0.00  0.00    -0.266 OA
ATOM     18  H5  non d ame     -32.628  17.904  24.905  0.00  0.00     0.163 HD
BRANCH  16  19
ATOM     19  C4  non d ame     -31.410  15.467  24.319  0.00  0.00     0.154 A 
ATOM     20  C1  non d ame     -31.333  16.138  23.058  0.00  0.00    -0.017 A 
ATOM     21  C2  non d ame     -30.989  15.129  22.130  0.00  0.00     0.077 A 
ATOM     22  H1  non d ame     -31.501  17.194  22.848  0.00  0.00     0.091 H 
ATOM     23  O1  non d ame     -30.882  14.015  22.791  0.00  0.00    -0.218 OA
ATOM     24  N1  non d ame     -31.124  14.186  24.071  0.00  0.00    -0.123 NA
BRANCH  21  25
ATOM     25  C3  non d ame     -30.781  15.314  20.633  0.00  0.00    -0.029 C 
ATOM     26  H2  non d ame     -29.767  15.016  20.368  0.00  0.00     0.036 H 
ATOM     27  H3  non d ame     -31.494  14.696  20.087  0.00  0.00     0.036 H 
ATOM     28  H4  non d ame     -30.932  16.361  20.371  0.00  0.00     0.036 H 
ENDBRANCH  21  25
ENDBRANCH  16  19
ENDBRANCH  13  15
BRANCH  13  29
ATOM     29  C8  non d ame     -32.373  19.442  27.057  0.00  0.00    -0.049 C 
ATOM     30  H7  non d ame     -32.689  19.899  26.120  0.00  0.00     0.030 H 
ATOM     31  H8  non d ame     -32.883  19.930  27.887  0.00  0.00     0.030 H 
ATOM     32  H9  non d ame     -31.294  19.560  27.173  0.00  0.00     0.030 H 
ENDBRANCH  13  29
ENDBRANCH  10  13
ENDBRANCH   7   9
BRANCH   7  33
ATOM     33  C11 non d ame     -37.375  17.886  25.269  0.00  0.00    -0.033 C 
ATOM     34  H12 non d ame     -38.408  18.012  25.591  0.00  0.00     0.042 H 
BRANCH  33  35
ATOM     35  C12 non d ame     -36.844  19.289  24.839  0.00  0.00    -0.071 C 
ATOM     36  H13 non d ame     -37.308  19.579  23.895  0.00  0.00     0.028 H 
ATOM     37  H14 non d ame     -37.091  20.023  25.605  0.00  0.00     0.028 H 
ATOM     38  H15 non d ame     -35.763  19.245  24.711  0.00  0.00     0.028 H 
ENDBRANCH  33  35
BRANCH  33  39
ATOM     39  C13 non d ame     -37.360  16.883  24.072  0.00  0.00    -0.071 C 
ATOM     40  H16 non d ame     -36.392  16.384  24.028  0.00  0.00     0.028 H 
ATOM     41  H17 non d ame     -38.147  16.140  24.210  0.00  0.00     0.028 H 
ATOM     42  H18 non d ame     -37.533  17.424  23.142  0.00  0.00     0.028 H 
ENDBRANCH  33  39
ENDBRANCH   7  33
ENDBRANCH   4   7
ENDBRANCH   1   3
BRANCH   1  43
ATOM     43  C15 non d ame     -34.792  12.642  26.530  0.00  0.00     0.240 C 
ATOM     44  O5  non d ame     -33.845  13.029  25.926  0.00  0.00    -0.271 OA
ATOM     45  N6  non d ame     -34.678  11.429  27.389  0.00  0.00    -0.355 N 
ATOM     46  H46 non d ame     -35.475  11.093  27.912  0.00  0.00     0.162 HD
BRANCH  45  47
ATOM     47  C20 non d ame     -33.387  10.712  27.476  0.00  0.00     0.013 C 
ATOM     48  H30 non d ame     -32.649  11.283  26.913  0.00  0.00     0.072 H 
BRANCH  47  49
ATOM     49  C21 non d ame     -33.541   9.332  26.878  0.00  0.00    -0.038 C 
ATOM     50  H31 non d ame     -34.572   9.037  27.078  0.00  0.00     0.036 H 
ATOM     51  H32 non d ame     -33.188   9.416  25.850  0.00  0.00     0.036 H 
BRANCH  49  52
ATOM     52  C22 non d ame     -32.644   8.278  27.563  0.00  0.00     0.018 C 
ATOM     53  H33 non d ame     -31.828   8.088  26.867  0.00  0.00     0.048 H 
ATOM     54  H34 non d ame     -32.432   8.673  28.557  0.00  0.00     0.048 H 
BRANCH  52  55
ATOM     55  C23 non d ame     -33.345   6.910  27.787  0.00  0.00     0.259 C 
ATOM     56  O7  non d ame     -32.740   5.894  27.659  0.00  0.00    -0.265 OA
BRANCH  55  57
ATOM     57  O8  non d ame     -34.724   6.882  28.134  0.00  0.00    -0.317 OA
BRANCH  57  58
ATOM     58  C29 non d ame     -34.975   6.522  29.496  0.00  0.00     0.052 C 
ATOM     59  H47 non d ame     -35.837   5.856  29.472  0.00  0.00     0.082 H 
ATOM     60  H48 non d ame     -34.023   6.169  29.889  0.00  0.00     0.082 H 
BRANCH  58  61
ATOM     61  C35 non d ame     -35.373   7.811  30.265  0.00  0.00    -0.034 A 
ATOM     62  C30 non d ame     -35.046   7.947  31.611  0.00  0.00    -0.075 A 
ATOM     63  C31 non d ame     -35.404   9.105  32.302  0.00  0.00    -0.082 A 
ATOM     64  H49 non d ame     -34.511   7.149  32.124  0.00  0.00     0.084 H 
ATOM     65  C32 non d ame     -36.092  10.127  31.643  0.00  0.00    -0.083 A 
ATOM     66  H50 non d ame     -35.144   9.210  33.356  0.00  0.00     0.083 H 
ATOM     67  C33 non d ame     -36.419   9.984  30.301  0.00  0.00    -0.082 A 
ATOM     68  H51 non d ame     -36.375  11.035  32.176  0.00  0.00     0.083 H 
ATOM     69  C34 non d ame     -36.062   8.830  29.607  0.00  0.00    -0.075 A 
ATOM     70  H52 non d ame     -36.959  10.782  29.790  0.00  0.00     0.083 H 
ATOM     71  H53 non d ame     -36.321   8.726  28.553  0.00  0.00     0.084 H 
ENDBRANCH  58  61
ENDBRANCH  57  58
ENDBRANCH  55  57
ENDBRANCH  52  55
ENDBRANCH  49  52
ENDBRANCH  47  49
BRANCH  47  72
ATOM     72  C24 non d ame     -32.962  10.590  28.938  0.00  0.00    -0.039 C 
ATOM     73  H35 non d ame     -33.739   9.994  29.417  0.00  0.00     0.036 H 
ATOM     74  H36 non d ame     -31.935  10.226  28.912  0.00  0.00     0.036 H 
BRANCH  72  75
ATOM     75  C25 non d ame     -32.940  12.015  29.670  0.00  0.00    -0.001 C 
ATOM     76  C26 non d ame     -31.833  12.996  28.952  0.00  0.00    -0.035 C 
ATOM     77  C27 non d ame     -31.019  13.508  29.907  0.00  0.00     0.085 C 
ATOM     78  H38 non d ame     -31.158  12.407  28.332  0.00  0.00     0.036 H 
ATOM     79  H39 non d ame     -32.324  13.876  28.538  0.00  0.00     0.036 H 
ATOM     80  N5  non d ame     -31.263  12.712  31.167  0.00  0.00    -0.049 N 
ATOM     81  H40 non d ame     -30.004  13.318  29.557  0.00  0.00     0.075 H 
ATOM     82  H41 non d ame     -31.359  14.531  30.061  0.00  0.00     0.075 H 
ATOM     83  C28 non d ame     -32.632  11.895  30.918  0.00  0.00     0.193 C 
ATOM     84  H42 non d ame     -30.503  12.052  31.240  0.00  0.00     0.280 HD
ATOM     85  H43 non d ame     -31.419  13.386  31.903  0.00  0.00     0.280 HD
ATOM     86  H44 non d ame     -33.563  12.220  31.383  0.00  0.00     0.129 H 
ATOM     87  H37 non d ame     -33.941  12.420  29.814  0.00  0.00     0.046 H 
BRANCH  83  88
ATOM     88  O6  non d ame     -32.468  10.529  31.303  0.00  0.00    -0.369 OA
ATOM     89  H45 non d ame     -33.121  10.304  31.972  0.00  0.00     0.212 HD
ENDBRANCH  83  88
ENDBRANCH  72  75
ENDBRANCH  47  72
ENDBRANCH  45  47
ENDBRANCH   1  43
BRANCH   1  90
ATOM     90  C16 non d ame     -36.920  12.915  25.219  0.00  0.00    -0.035 C 
ATOM     91  H21 non d ame     -37.119  13.803  24.621  0.00  0.00     0.037 H 
ATOM     92  H22 non d ame     -36.325  12.100  24.807  0.00  0.00     0.037 H 
BRANCH  90  93
ATOM     93  C17 non d ame     -38.314  12.306  25.579  0.00  0.00    -0.059 C 
ATOM     94  H23 non d ame     -39.065  13.075  25.401  0.00  0.00     0.038 H 
BRANCH  93  95
ATOM     95  C18 non d ame     -38.669  11.077  24.683  0.00  0.00    -0.073 C 
ATOM     96  H24 non d ame     -38.466  10.157  25.230  0.00  0.00     0.028 H 
ATOM     97  H25 non d ame     -39.725  11.115  24.417  0.00  0.00     0.028 H 
ATOM     98  H26 non d ame     -38.065  11.101  23.776  0.00  0.00     0.028 H 
ENDBRANCH  93  95
BRANCH  93  99
ATOM     99  C19 non d ame     -38.382  11.936  27.063  0.00  0.00    -0.073 C 
ATOM    100  H27 non d ame     -37.685  11.123  27.267  0.00  0.00     0.028 H 
ATOM    101  H28 non d ame     -38.115  12.803  27.667  0.00  0.00     0.028 H 
ATOM    102  H29 non d ame     -39.395  11.618  27.311  0.00  0.00     0.028 H 
ENDBRANCH  93  99
ENDBRANCH  90  93
ENDBRANCH   1  90
TORSDOF 26
ENDMDL
MODEL 4
REMARK VINA RESULT:      -7.2      2.988      5.553
REMARK  26 active torsions:
REMARK  status: ('A' for Active; 'I' for Inactive)
REMARK    1  A    between atoms: C2_2  and  C3_3 
REMARK    2  A    between atoms: C4_6  and  C5_7 
REMARK       I    between atoms: C5_7  and  N2_9 
REMARK    3  A    between atoms: N2_9  and  C6_10 
REMARK    4  A    between atoms: C6_10  and  C7_11 
REMARK    5  A    between atoms: C6_10  and  C8_13 
REMARK       I    between atoms: C7_11  and  N3_14 
REMARK    6  A    between atoms: N3_14  and  C9_15 
REMARK    7  A    between atoms: C9_15  and  C10_16 
REMARK    8  A    between atoms: C9_15  and  C11_18 
REMARK       I    between atoms: C10_16  and  N4_21 
REMARK    9  A    between atoms: C11_18  and  C12_19 
REMARK   10  A    between atoms: C11_18  and  C13_20 
REMARK   11  A    between atoms: N4_21  and  C14_22 
REMARK   12  A    between atoms: C14_22  and  C15_23 
REMARK   13  A    between atoms: C14_22  and  C16_25 
REMARK       I    between atoms: C15_23  and  N6_40 
REMARK   14  A    between atoms: C16_25  and  C17_26 
REMARK   15  A    between atoms: C17_26  and  C18_27 
REMARK   16  A    between atoms: C17_26  and  C19_28 
REMARK   17  A    between atoms: C20_29  and  C21_30 
REMARK   18  A    between atoms: C20_29  and  C24_33 
REMARK   19  A    between atoms: C20_29  and  N6_40 
REMARK   20  A    between atoms: C21_30  and  C22_31 
REMARK   21  A    between atoms: C22_31  and  C23_32 
REMARK   22  A    between atoms: C23_32  and  O8_43 
REMARK   23  A    between atoms: C24_33  and  C25_34 
REMARK   24  A    between atoms: C28_38  and  O6_39 
REMARK   25  A    between atoms: C29_42  and  O8_43 
REMARK   26  A    between atoms: C29_42  and  C35_49 
ROOT
ATOM      1  C14 non d ame     -30.921  13.350  24.270  0.00  0.00     0.089 C 
ATOM      2  H20 non d ame     -29.963  13.305  24.791  0.00  0.00     0.087 H 
ENDROOT
BRANCH   1   3
ATOM      3  N4  non d ame     -31.440  11.993  24.192  0.00  0.00    -0.346 N 
ATOM      4  C10 non d ame     -31.396  11.089  25.398  0.00  0.00     0.241 C 
ATOM      5  O4  non d ame     -30.936  11.476  26.422  0.00  0.00    -0.271 OA
ATOM      6  H19 non d ame     -31.825  11.682  23.312  0.00  0.00     0.163 HD
BRANCH   4   7
ATOM      7  C9  non d ame     -31.943   9.689  25.301  0.00  0.00     0.092 C 
ATOM      8  H11 non d ame     -31.163   8.980  25.576  0.00  0.00     0.088 H 
BRANCH   7   9
ATOM      9  N3  non d ame     -33.038   9.524  26.262  0.00  0.00    -0.346 N 
ATOM     10  C7  non d ame     -33.031   8.409  27.177  0.00  0.00     0.240 C 
ATOM     11  O3  non d ame     -32.153   7.636  27.154  0.00  0.00    -0.271 OA
ATOM     12  H10 non d ame     -33.803  10.182  26.292  0.00  0.00     0.163 HD
BRANCH  10  13
ATOM     13  C6  non d ame     -34.201   8.236  28.195  0.00  0.00     0.086 C 
ATOM     14  H6  non d ame     -33.946   8.589  29.194  0.00  0.00     0.086 H 
BRANCH  13  15
ATOM     15  N2  non d ame     -35.334   9.030  27.751  0.00  0.00    -0.343 N 
ATOM     16  C5  non d ame     -35.665  10.272  28.452  0.00  0.00     0.273 C 
ATOM     17  O2  non d ame     -35.015  10.623  29.374  0.00  0.00    -0.266 OA
ATOM     18  H5  non d ame     -35.886   8.720  26.963  0.00  0.00     0.163 HD
BRANCH  16  19
ATOM     19  C4  non d ame     -36.861  11.121  27.992  0.00  0.00     0.154 A 
ATOM     20  C1  non d ame     -36.976  11.863  26.774  0.00  0.00    -0.017 A 
ATOM     21  C2  non d ame     -38.255  12.461  26.834  0.00  0.00     0.077 A 
ATOM     22  H1  non d ame     -36.245  11.954  25.971  0.00  0.00     0.091 H 
ATOM     23  O1  non d ame     -38.801  12.097  27.956  0.00  0.00    -0.218 OA
ATOM     24  N1  non d ame     -38.006  11.315  28.650  0.00  0.00    -0.123 NA
BRANCH  21  25
ATOM     25  C3  non d ame     -38.879  13.363  25.777  0.00  0.00    -0.029 C 
ATOM     26  H2  non d ame     -38.707  12.938  24.789  0.00  0.00     0.036 H 
ATOM     27  H3  non d ame     -39.951  13.443  25.954  0.00  0.00     0.036 H 
ATOM     28  H4  non d ame     -38.427  14.353  25.830  0.00  0.00     0.036 H 
ENDBRANCH  21  25
ENDBRANCH  16  19
ENDBRANCH  13  15
BRANCH  13  29
ATOM     29  C8  non d ame     -34.588   6.782  28.277  0.00  0.00    -0.049 C 
ATOM     30  H7  non d ame     -34.087   6.319  29.126  0.00  0.00     0.030 H 
ATOM     31  H8  non d ame     -35.667   6.699  28.404  0.00  0.00     0.030 H 
ATOM     32  H9  non d ame     -34.290   6.274  27.359  0.00  0.00     0.030 H 
ENDBRANCH  13  29
ENDBRANCH  10  13
ENDBRANCH   7   9
BRANCH   7  33
ATOM     33  C11 non d ame     -32.479   9.441  23.860  0.00  0.00    -0.033 C 
ATOM     34  H12 non d ame     -32.148  10.273  23.238  0.00  0.00     0.042 H 
BRANCH  33  35
ATOM     35  C12 non d ame     -31.884   8.134  23.250  0.00  0.00    -0.071 C 
ATOM     36  H13 non d ame     -32.692   7.516  22.857  0.00  0.00     0.028 H 
ATOM     37  H14 non d ame     -31.197   8.388  22.444  0.00  0.00     0.028 H 
ATOM     38  H15 non d ame     -31.351   7.582  24.024  0.00  0.00     0.028 H 
ENDBRANCH  33  35
BRANCH  33  39
ATOM     39  C13 non d ame     -34.041   9.416  23.841  0.00  0.00    -0.071 C 
ATOM     40  H16 non d ame     -34.392   8.433  24.155  0.00  0.00     0.028 H 
ATOM     41  H17 non d ame     -34.426  10.175  24.524  0.00  0.00     0.028 H 
ATOM     42  H18 non d ame     -34.396   9.624  22.832  0.00  0.00     0.028 H 
ENDBRANCH  33  39
ENDBRANCH   7  33
ENDBRANCH   4   7
ENDBRANCH   1   3
BRANCH   1  43
ATOM     43  C15 non d ame     -31.957  14.234  25.023  0.00  0.00     0.240 C 
ATOM     44  O5  non d ame     -32.965  14.553  24.481  0.00  0.00    -0.271 OA
ATOM     45  N6  non d ame     -31.696  14.675  26.423  0.00  0.00    -0.355 N 
ATOM     46  H46 non d ame     -30.845  14.405  26.895  0.00  0.00     0.162 HD
BRANCH  45  47
ATOM     47  C20 non d ame     -32.691  15.514  27.124  0.00  0.00     0.013 C 
ATOM     48  H30 non d ame     -33.679  15.240  26.755  0.00  0.00     0.072 H 
BRANCH  47  49
ATOM     49  C21 non d ame     -32.413  16.971  26.830  0.00  0.00    -0.038 C 
ATOM     50  H31 non d ame     -31.329  17.053  26.747  0.00  0.00     0.036 H 
ATOM     51  H32 non d ame     -33.046  17.225  25.979  0.00  0.00     0.036 H 
BRANCH  49  52
ATOM     52  C22 non d ame     -32.837  17.907  27.983  0.00  0.00     0.018 C 
ATOM     53  H33 non d ame     -33.763  17.490  28.376  0.00  0.00     0.048 H 
ATOM     54  H34 non d ame     -31.962  17.995  28.627  0.00  0.00     0.048 H 
BRANCH  52  55
ATOM     55  C23 non d ame     -33.178  19.351  27.523  0.00  0.00     0.259 C 
ATOM     56  O7  non d ame     -32.880  20.284  28.197  0.00  0.00    -0.265 OA
BRANCH  55  57
ATOM     57  O8  non d ame     -33.863  19.548  26.292  0.00  0.00    -0.317 OA
BRANCH  57  58
ATOM     58  C29 non d ame     -35.256  19.839  26.440  0.00  0.00     0.052 C 
ATOM     59  H47 non d ame     -35.486  19.650  27.488  0.00  0.00     0.082 H 
ATOM     60  H48 non d ame     -35.395  20.835  26.021  0.00  0.00     0.082 H 
BRANCH  58  61
ATOM     61  C35 non d ame     -36.051  18.827  25.572  0.00  0.00    -0.034 A 
ATOM     62  C30 non d ame     -35.848  17.460  25.736  0.00  0.00    -0.075 A 
ATOM     63  C31 non d ame     -36.562  16.551  24.956  0.00  0.00    -0.082 A 
ATOM     64  H49 non d ame     -35.130  17.101  26.473  0.00  0.00     0.084 H 
ATOM     65  C32 non d ame     -37.480  17.013  24.009  0.00  0.00    -0.083 A 
ATOM     66  H50 non d ame     -36.402  15.480  25.087  0.00  0.00     0.083 H 
ATOM     67  C33 non d ame     -37.676  18.378  23.848  0.00  0.00    -0.082 A 
ATOM     68  H51 non d ame     -38.043  16.309  23.396  0.00  0.00     0.083 H 
ATOM     69  C34 non d ame     -36.966  19.290  24.626  0.00  0.00    -0.075 A 
ATOM     70  H52 non d ame     -38.391  18.736  23.106  0.00  0.00     0.083 H 
ATOM     71  H53 non d ame     -37.126  20.360  24.494  0.00  0.00     0.084 H 
ENDBRANCH  58  61
ENDBRANCH  57  58
ENDBRANCH  55  57
ENDBRANCH  52  55
ENDBRANCH  49  52
ENDBRANCH  47  49
BRANCH  47  72
ATOM     72  C24 non d ame     -32.602  15.271  28.629  0.00  0.00    -0.039 C 
ATOM     73  H35 non d ame     -32.299  16.227  29.059  0.00  0.00     0.036 H 
ATOM     74  H36 non d ame     -33.558  14.827  28.909  0.00  0.00     0.036 H 
BRANCH  72  75
ATOM     75  C25 non d ame     -31.461  14.207  28.992  0.00  0.00    -0.001 C 
ATOM     76  C26 non d ame     -32.148  12.782  29.441  0.00  0.00    -0.035 C 
ATOM     77  C27 non d ame     -31.618  12.396  30.626  0.00  0.00     0.085 C 
ATOM     78  H38 non d ame     -33.203  12.930  29.670  0.00  0.00     0.036 H 
ATOM     79  H39 non d ame     -31.846  11.988  28.756  0.00  0.00     0.036 H 
ATOM     80  N5  non d ame     -30.875  13.586  31.185  0.00  0.00    -0.049 N 
ATOM     81  H40 non d ame     -32.470  12.174  31.268  0.00  0.00     0.075 H 
ATOM     82  H41 non d ame     -30.901  11.612  30.383  0.00  0.00     0.075 H 
ATOM     83  C28 non d ame     -30.721  14.628  29.962  0.00  0.00     0.193 C 
ATOM     84  H42 non d ame     -31.477  13.996  31.883  0.00  0.00     0.280 HD
ATOM     85  H43 non d ame     -29.956  13.253  31.443  0.00  0.00     0.280 HD
ATOM     86  H44 non d ame     -29.766  14.740  29.448  0.00  0.00     0.129 H 
ATOM     87  H37 non d ame     -30.681  14.164  28.233  0.00  0.00     0.046 H 
BRANCH  83  88
ATOM     88  O6  non d ame     -31.084  15.943  30.386  0.00  0.00    -0.369 OA
ATOM     89  H45 non d ame     -30.924  16.031  31.329  0.00  0.00     0.212 HD
ENDBRANCH  83  88
ENDBRANCH  72  75
ENDBRANCH  47  72
ENDBRANCH  45  47
ENDBRANCH   1  43
BRANCH   1  90
ATOM     90  C16 non d ame     -30.717  13.887  22.863  0.00  0.00    -0.035 C 
ATOM     91  H21 non d ame     -30.004  13.209  22.396  0.00  0.00     0.037 H 
ATOM     92  H22 non d ame     -31.720  13.994  22.448  0.00  0.00     0.037 H 
BRANCH  90  93
ATOM     93  C17 non d ame     -30.068  15.307  22.822  0.00  0.00    -0.059 C 
ATOM     94  H23 non d ame     -30.126  15.725  23.827  0.00  0.00     0.038 H 
BRANCH  93  95
ATOM     95  C18 non d ame     -28.561  15.254  22.416  0.00  0.00    -0.073 C 
ATOM     96  H24 non d ame     -28.280  16.193  21.937  0.00  0.00     0.028 H 
ATOM     97  H25 non d ame     -27.949  15.104  23.306  0.00  0.00     0.028 H 
ATOM     98  H26 non d ame     -28.400  14.430  21.721  0.00  0.00     0.028 H 
ENDBRANCH  93  95
BRANCH  93  99
ATOM     99  C19 non d ame     -30.850  16.240  21.894  0.00  0.00    -0.073 C 
ATOM    100  H27 non d ame     -30.885  15.809  20.892  0.00  0.00     0.028 H 
ATOM    101  H28 non d ame     -31.865  16.362  22.271  0.00  0.00     0.028 H 
ATOM    102  H29 non d ame     -30.357  17.211  21.856  0.00  0.00     0.028 H 
ENDBRANCH  93  99
ENDBRANCH  90  93
ENDBRANCH   1  90
TORSDOF 26
ENDMDL
MODEL 5
REMARK VINA RESULT:      -7.1      2.811     10.126
REMARK  26 active torsions:
REMARK  status: ('A' for Active; 'I' for Inactive)
REMARK    1  A    between atoms: C2_2  and  C3_3 
REMARK    2  A    between atoms: C4_6  and  C5_7 
REMARK       I    between atoms: C5_7  and  N2_9 
REMARK    3  A    between atoms: N2_9  and  C6_10 
REMARK    4  A    between atoms: C6_10  and  C7_11 
REMARK    5  A    between atoms: C6_10  and  C8_13 
REMARK       I    between atoms: C7_11  and  N3_14 
REMARK    6  A    between atoms: N3_14  and  C9_15 
REMARK    7  A    between atoms: C9_15  and  C10_16 
REMARK    8  A    between atoms: C9_15  and  C11_18 
REMARK       I    between atoms: C10_16  and  N4_21 
REMARK    9  A    between atoms: C11_18  and  C12_19 
REMARK   10  A    between atoms: C11_18  and  C13_20 
REMARK   11  A    between atoms: N4_21  and  C14_22 
REMARK   12  A    between atoms: C14_22  and  C15_23 
REMARK   13  A    between atoms: C14_22  and  C16_25 
REMARK       I    between atoms: C15_23  and  N6_40 
REMARK   14  A    between atoms: C16_25  and  C17_26 
REMARK   15  A    between atoms: C17_26  and  C18_27 
REMARK   16  A    between atoms: C17_26  and  C19_28 
REMARK   17  A    between atoms: C20_29  and  C21_30 
REMARK   18  A    between atoms: C20_29  and  C24_33 
REMARK   19  A    between atoms: C20_29  and  N6_40 
REMARK   20  A    between atoms: C21_30  and  C22_31 
REMARK   21  A    between atoms: C22_31  and  C23_32 
REMARK   22  A    between atoms: C23_32  and  O8_43 
REMARK   23  A    between atoms: C24_33  and  C25_34 
REMARK   24  A    between atoms: C28_38  and  O6_39 
REMARK   25  A    between atoms: C29_42  and  O8_43 
REMARK   26  A    between atoms: C29_42  and  C35_49 
ROOT
ATOM      1  C14 non d ame     -32.734  10.371  28.022  0.00  0.00     0.089 C 
ATOM      2  H20 non d ame     -31.699  10.416  28.361  0.00  0.00     0.087 H 
ENDROOT
BRANCH   1   3
ATOM      3  N4  non d ame     -32.883  11.332  26.939  0.00  0.00    -0.346 N 
ATOM      4  C10 non d ame     -31.821  12.374  26.694  0.00  0.00     0.241 C 
ATOM      5  O4  non d ame     -30.855  12.421  27.383  0.00  0.00    -0.271 OA
ATOM      6  H19 non d ame     -33.713  11.278  26.367  0.00  0.00     0.163 HD
BRANCH   4   7
ATOM      7  C9  non d ame     -31.989  13.358  25.566  0.00  0.00     0.092 C 
ATOM      8  H11 non d ame     -32.999  13.275  25.165  0.00  0.00     0.088 H 
BRANCH   7   9
ATOM      9  N3  non d ame     -31.838  14.723  26.082  0.00  0.00    -0.346 N 
ATOM     10  C7  non d ame     -33.003  15.483  26.459  0.00  0.00     0.240 C 
ATOM     11  O3  non d ame     -34.070  15.014  26.355  0.00  0.00    -0.271 OA
ATOM     12  H10 non d ame     -30.924  15.141  26.176  0.00  0.00     0.163 HD
BRANCH  10  13
ATOM     13  C6  non d ame     -32.836  16.936  27.004  0.00  0.00     0.086 C 
ATOM     14  H6  non d ame     -32.030  17.480  26.513  0.00  0.00     0.086 H 
BRANCH  13  15
ATOM     15  N2  non d ame     -34.058  17.680  26.746  0.00  0.00    -0.343 N 
ATOM     16  C5  non d ame     -33.989  19.125  26.521  0.00  0.00     0.273 C 
ATOM     17  O2  non d ame     -32.946  19.681  26.552  0.00  0.00    -0.266 OA
ATOM     18  H5  non d ame     -34.945  17.197  26.723  0.00  0.00     0.163 HD
BRANCH  16  19
ATOM     19  C4  non d ame     -35.273  19.924  26.246  0.00  0.00     0.154 A 
ATOM     20  C1  non d ame     -36.232  19.690  25.210  0.00  0.00    -0.017 A 
ATOM     21  C2  non d ame     -37.212  20.690  25.390  0.00  0.00     0.077 A 
ATOM     22  H1  non d ame     -36.218  18.913  24.445  0.00  0.00     0.091 H 
ATOM     23  O1  non d ame     -36.851  21.408  26.413  0.00  0.00    -0.218 OA
ATOM     24  N1  non d ame     -35.722  20.980  26.929  0.00  0.00    -0.123 NA
BRANCH  21  25
ATOM     25  C3  non d ame     -38.463  20.890  24.545  0.00  0.00    -0.029 C 
ATOM     26  H2  non d ame     -39.156  20.067  24.720  0.00  0.00     0.036 H 
ATOM     27  H3  non d ame     -38.942  21.830  24.819  0.00  0.00     0.036 H 
ATOM     28  H4  non d ame     -38.189  20.916  23.490  0.00  0.00     0.036 H 
ENDBRANCH  21  25
ENDBRANCH  16  19
ENDBRANCH  13  15
BRANCH  13  29
ATOM     29  C8  non d ame     -32.561  16.892  28.485  0.00  0.00    -0.049 C 
ATOM     30  H7  non d ame     -33.373  16.370  28.991  0.00  0.00     0.030 H 
ATOM     31  H8  non d ame     -31.625  16.365  28.666  0.00  0.00     0.030 H 
ATOM     32  H9  non d ame     -32.487  17.909  28.871  0.00  0.00     0.030 H 
ENDBRANCH  13  29
ENDBRANCH  10  13
ENDBRANCH   7   9
BRANCH   7  33
ATOM     33  C11 non d ame     -30.904  13.093  24.482  0.00  0.00    -0.033 C 
ATOM     34  H12 non d ame     -29.931  13.144  24.971  0.00  0.00     0.042 H 
BRANCH  33  35
ATOM     35  C12 non d ame     -31.048  11.665  23.871  0.00  0.00    -0.071 C 
ATOM     36  H13 non d ame     -30.069  11.188  23.826  0.00  0.00     0.028 H 
ATOM     37  H14 non d ame     -31.714  11.068  24.494  0.00  0.00     0.028 H 
ATOM     38  H15 non d ame     -31.461  11.739  22.865  0.00  0.00     0.028 H 
ENDBRANCH  33  35
BRANCH  33  39
ATOM     39  C13 non d ame     -30.943  14.191  23.371  0.00  0.00    -0.071 C 
ATOM     40  H16 non d ame     -30.142  14.910  23.541  0.00  0.00     0.028 H 
ATOM     41  H17 non d ame     -30.813  13.725  22.394  0.00  0.00     0.028 H 
ATOM     42  H18 non d ame     -31.904  14.705  23.402  0.00  0.00     0.028 H 
ENDBRANCH  33  39
ENDBRANCH   7  33
ENDBRANCH   4   7
ENDBRANCH   1   3
BRANCH   1  43
ATOM     43  C15 non d ame     -33.116   8.961  27.487  0.00  0.00     0.240 C 
ATOM     44  O5  non d ame     -34.163   8.481  27.781  0.00  0.00    -0.271 OA
ATOM     45  N6  non d ame     -32.181   8.211  26.601  0.00  0.00    -0.355 N 
ATOM     46  H46 non d ame     -31.290   8.611  26.341  0.00  0.00     0.162 HD
BRANCH  45  47
ATOM     47  C20 non d ame     -32.559   6.872  26.101  0.00  0.00     0.013 C 
ATOM     48  H30 non d ame     -33.644   6.848  25.998  0.00  0.00     0.072 H 
BRANCH  47  49
ATOM     49  C21 non d ame     -32.110   5.823  27.092  0.00  0.00    -0.038 C 
ATOM     50  H31 non d ame     -31.240   5.345  26.640  0.00  0.00     0.036 H 
ATOM     51  H32 non d ame     -32.013   6.341  28.046  0.00  0.00     0.036 H 
BRANCH  49  52
ATOM     52  C22 non d ame     -33.160   4.710  27.304  0.00  0.00     0.018 C 
ATOM     53  H33 non d ame     -34.079   5.084  26.857  0.00  0.00     0.048 H 
ATOM     54  H34 non d ame     -32.701   3.796  26.927  0.00  0.00     0.048 H 
BRANCH  52  55
ATOM     55  C23 non d ame     -33.489   4.438  28.798  0.00  0.00     0.259 C 
ATOM     56  O7  non d ame     -32.742   3.810  29.476  0.00  0.00    -0.265 OA
BRANCH  55  57
ATOM     57  O8  non d ame     -34.704   4.937  29.346  0.00  0.00    -0.317 OA
BRANCH  57  58
ATOM     58  C29 non d ame     -34.598   5.364  30.707  0.00  0.00     0.052 C 
ATOM     59  H47 non d ame     -34.781   4.475  31.310  0.00  0.00     0.082 H 
ATOM     60  H48 non d ame     -33.644   5.885  30.780  0.00  0.00     0.082 H 
BRANCH  58  61
ATOM     61  C35 non d ame     -35.735   6.384  30.979  0.00  0.00    -0.034 A 
ATOM     62  C30 non d ame     -37.065   5.994  30.854  0.00  0.00    -0.075 A 
ATOM     63  C31 non d ame     -38.087   6.911  31.097  0.00  0.00    -0.082 A 
ATOM     64  H49 non d ame     -37.307   4.971  30.564  0.00  0.00     0.084 H 
ATOM     65  C32 non d ame     -37.776   8.222  31.465  0.00  0.00    -0.083 A 
ATOM     66  H50 non d ame     -39.129   6.601  31.000  0.00  0.00     0.083 H 
ATOM     67  C33 non d ame     -36.447   8.608  31.585  0.00  0.00    -0.082 A 
ATOM     68  H51 non d ame     -38.569   8.945  31.658  0.00  0.00     0.083 H 
ATOM     69  C34 non d ame     -35.423   7.695  31.344  0.00  0.00    -0.075 A 
ATOM     70  H52 non d ame     -36.207   9.633  31.870  0.00  0.00     0.083 H 
ATOM     71  H53 non d ame     -34.382   8.004  31.442  0.00  0.00     0.084 H 
ENDBRANCH  58  61
ENDBRANCH  57  58
ENDBRANCH  55  57
ENDBRANCH  52  55
ENDBRANCH  49  52
ENDBRANCH  47  49
BRANCH  47  72
ATOM     72  C24 non d ame     -31.893   6.618  24.750  0.00  0.00    -0.039 C 
ATOM     73  H35 non d ame     -30.836   6.463  24.974  0.00  0.00     0.036 H 
ATOM     74  H36 non d ame     -32.474   5.822  24.285  0.00  0.00     0.036 H 
BRANCH  72  75
ATOM     75  C25 non d ame     -31.991   7.897  23.791  0.00  0.00    -0.001 C 
ATOM     76  C26 non d ame     -33.223   7.701  22.721  0.00  0.00    -0.035 C 
ATOM     77  C27 non d ame     -32.756   7.929  21.470  0.00  0.00     0.085 C 
ATOM     78  H38 non d ame     -33.531   6.657  22.692  0.00  0.00     0.036 H 
ATOM     79  H39 non d ame     -33.969   8.485  22.861  0.00  0.00     0.036 H 
ATOM     80  N5  non d ame     -31.248   7.941  21.558  0.00  0.00    -0.049 N 
ATOM     81  H40 non d ame     -33.072   7.068  20.880  0.00  0.00     0.075 H 
ATOM     82  H41 non d ame     -33.104   8.927  21.206  0.00  0.00     0.075 H 
ATOM     83  C28 non d ame     -30.896   8.068  23.128  0.00  0.00     0.193 C 
ATOM     84  H42 non d ame     -30.936   7.038  21.231  0.00  0.00     0.280 HD
ATOM     85  H43 non d ame     -30.942   8.782  21.089  0.00  0.00     0.280 HD
ATOM     86  H44 non d ame     -30.559   9.019  23.544  0.00  0.00     0.129 H 
ATOM     87  H37 non d ame     -31.961   8.834  24.348  0.00  0.00     0.046 H 
BRANCH  83  88
ATOM     88  O6  non d ame     -29.893   7.117  23.487  0.00  0.00    -0.369 OA
ATOM     89  H45 non d ame     -29.496   6.754  22.692  0.00  0.00     0.212 HD
ENDBRANCH  83  88
ENDBRANCH  72  75
ENDBRANCH  47  72
ENDBRANCH  45  47
ENDBRANCH   1  43
BRANCH   1  90
ATOM     90  C16 non d ame     -33.666  10.756  29.160  0.00  0.00    -0.035 C 
ATOM     91  H21 non d ame     -33.943  11.791  28.969  0.00  0.00     0.037 H 
ATOM     92  H22 non d ame     -34.432   9.980  29.180  0.00  0.00     0.037 H 
BRANCH  90  93
ATOM     93  C17 non d ame     -32.980  10.736  30.564  0.00  0.00    -0.059 C 
ATOM     94  H23 non d ame     -32.700   9.705  30.780  0.00  0.00     0.038 H 
BRANCH  93  95
ATOM     95  C18 non d ame     -31.678  11.598  30.596  0.00  0.00    -0.073 C 
ATOM     96  H24 non d ame     -31.939  12.645  30.757  0.00  0.00     0.028 H 
ATOM     97  H25 non d ame     -31.036  11.257  31.408  0.00  0.00     0.028 H 
ATOM     98  H26 non d ame     -31.151  11.497  29.648  0.00  0.00     0.028 H 
ENDBRANCH  93  95
BRANCH  93  99
ATOM     99  C19 non d ame     -33.956  11.182  31.656  0.00  0.00    -0.073 C 
ATOM    100  H27 non d ame     -33.462  11.898  32.314  0.00  0.00     0.028 H 
ATOM    101  H28 non d ame     -34.826  11.652  31.197  0.00  0.00     0.028 H 
ATOM    102  H29 non d ame     -34.274  10.315  32.235  0.00  0.00     0.028 H 
ENDBRANCH  93  99
ENDBRANCH  90  93
ENDBRANCH   1  90
TORSDOF 26
ENDMDL
MODEL 6
REMARK VINA RESULT:      -7.0      2.333      5.461
REMARK  26 active torsions:
REMARK  status: ('A' for Active; 'I' for Inactive)
REMARK    1  A    between atoms: C2_2  and  C3_3 
REMARK    2  A    between atoms: C4_6  and  C5_7 
REMARK       I    between atoms: C5_7  and  N2_9 
REMARK    3  A    between atoms: N2_9  and  C6_10 
REMARK    4  A    between atoms: C6_10  and  C7_11 
REMARK    5  A    between atoms: C6_10  and  C8_13 
REMARK       I    between atoms: C7_11  and  N3_14 
REMARK    6  A    between atoms: N3_14  and  C9_15 
REMARK    7  A    between atoms: C9_15  and  C10_16 
REMARK    8  A    between atoms: C9_15  and  C11_18 
REMARK       I    between atoms: C10_16  and  N4_21 
REMARK    9  A    between atoms: C11_18  and  C12_19 
REMARK   10  A    between atoms: C11_18  and  C13_20 
REMARK   11  A    between atoms: N4_21  and  C14_22 
REMARK   12  A    between atoms: C14_22  and  C15_23 
REMARK   13  A    between atoms: C14_22  and  C16_25 
REMARK       I    between atoms: C15_23  and  N6_40 
REMARK   14  A    between atoms: C16_25  and  C17_26 
REMARK   15  A    between atoms: C17_26  and  C18_27 
REMARK   16  A    between atoms: C17_26  and  C19_28 
REMARK   17  A    between atoms: C20_29  and  C21_30 
REMARK   18  A    between atoms: C20_29  and  C24_33 
REMARK   19  A    between atoms: C20_29  and  N6_40 
REMARK   20  A    between atoms: C21_30  and  C22_31 
REMARK   21  A    between atoms: C22_31  and  C23_32 
REMARK   22  A    between atoms: C23_32  and  O8_43 
REMARK   23  A    between atoms: C24_33  and  C25_34 
REMARK   24  A    between atoms: C28_38  and  O6_39 
REMARK   25  A    between atoms: C29_42  and  O8_43 
REMARK   26  A    between atoms: C29_42  and  C35_49 
ROOT
ATOM      1  C14 non d ame     -33.968   9.763  28.989  0.00  0.00     0.089 C 
ATOM      2  H20 non d ame     -34.991  10.080  28.786  0.00  0.00     0.087 H 
ENDROOT
BRANCH   1   3
ATOM      3  N4  non d ame     -33.859   8.362  28.611  0.00  0.00    -0.346 N 
ATOM      4  C10 non d ame     -35.099   7.537  28.380  0.00  0.00     0.241 C 
ATOM      5  O4  non d ame     -36.175   8.021  28.507  0.00  0.00    -0.271 OA
ATOM      6  H19 non d ame     -32.934   7.968  28.511  0.00  0.00     0.163 HD
BRANCH   4   7
ATOM      7  C9  non d ame     -34.968   6.089  27.985  0.00  0.00     0.092 C 
ATOM      8  H11 non d ame     -35.943   5.609  28.055  0.00  0.00     0.088 H 
BRANCH   7   9
ATOM      9  N3  non d ame     -34.540   6.001  26.585  0.00  0.00    -0.346 N 
ATOM     10  C7  non d ame     -35.500   5.680  25.558  0.00  0.00     0.240 C 
ATOM     11  O3  non d ame     -36.620   5.489  25.840  0.00  0.00    -0.271 OA
ATOM     12  H10 non d ame     -33.577   6.162  26.328  0.00  0.00     0.163 HD
BRANCH  10  13
ATOM     13  C6  non d ame     -35.039   5.585  24.070  0.00  0.00     0.086 C 
ATOM     14  H6  non d ame     -35.765   6.007  23.376  0.00  0.00     0.086 H 
BRANCH  13  15
ATOM     15  N2  non d ame     -33.814   6.349  23.906  0.00  0.00    -0.343 N 
ATOM     16  C5  non d ame     -33.773   7.450  22.942  0.00  0.00     0.273 C 
ATOM     17  O2  non d ame     -34.731   7.711  22.299  0.00  0.00    -0.266 OA
ATOM     18  H5  non d ame     -32.999   6.117  24.457  0.00  0.00     0.163 HD
BRANCH  16  19
ATOM     19  C4  non d ame     -32.484   8.266  22.758  0.00  0.00     0.154 A 
ATOM     20  C1  non d ame     -31.249   7.817  22.193  0.00  0.00    -0.017 A 
ATOM     21  C2  non d ame     -30.393   8.938  22.255  0.00  0.00     0.077 A 
ATOM     22  H1  non d ame     -31.011   6.829  21.798  0.00  0.00     0.091 H 
ATOM     23  O1  non d ame     -31.066   9.912  22.793  0.00  0.00    -0.218 OA
ATOM     24  N1  non d ame     -32.290   9.544  23.095  0.00  0.00    -0.123 NA
BRANCH  21  25
ATOM     25  C3  non d ame     -28.948   8.997  21.778  0.00  0.00    -0.029 C 
ATOM     26  H2  non d ame     -28.592   7.988  21.571  0.00  0.00     0.036 H 
ATOM     27  H3  non d ame     -28.889   9.594  20.868  0.00  0.00     0.036 H 
ATOM     28  H4  non d ame     -28.327   9.449  22.550  0.00  0.00     0.036 H 
ENDBRANCH  21  25
ENDBRANCH  16  19
ENDBRANCH  13  15
BRANCH  13  29
ATOM     29  C8  non d ame     -34.801   4.142  23.707  0.00  0.00    -0.049 C 
ATOM     30  H7  non d ame     -35.556   3.517  24.183  0.00  0.00     0.030 H 
ATOM     31  H8  non d ame     -34.863   4.024  22.625  0.00  0.00     0.030 H 
ATOM     32  H9  non d ame     -33.810   3.839  24.050  0.00  0.00     0.030 H 
ENDBRANCH  13  29
ENDBRANCH  10  13
ENDBRANCH   7   9
BRANCH   7  33
ATOM     33  C11 non d ame     -33.907   5.398  28.892  0.00  0.00    -0.033 C 
ATOM     34  H12 non d ame     -33.053   6.070  28.970  0.00  0.00     0.042 H 
BRANCH  33  35
ATOM     35  C12 non d ame     -34.457   5.170  30.335  0.00  0.00    -0.071 C 
ATOM     36  H13 non d ame     -35.530   5.359  30.349  0.00  0.00     0.028 H 
ATOM     37  H14 non d ame     -34.265   4.142  30.639  0.00  0.00     0.028 H 
ATOM     38  H15 non d ame     -33.960   5.853  31.025  0.00  0.00     0.028 H 
ENDBRANCH  33  35
BRANCH  33  39
ATOM     39  C13 non d ame     -33.413   4.060  28.256  0.00  0.00    -0.071 C 
ATOM     40  H16 non d ame     -32.681   4.276  27.478  0.00  0.00     0.028 H 
ATOM     41  H17 non d ame     -32.954   3.438  29.025  0.00  0.00     0.028 H 
ATOM     42  H18 non d ame     -34.260   3.530  27.820  0.00  0.00     0.028 H 
ENDBRANCH  33  39
ENDBRANCH   7  33
ENDBRANCH   4   7
ENDBRANCH   1   3
BRANCH   1  43
ATOM     43  C15 non d ame     -32.928  10.580  28.168  0.00  0.00     0.240 C 
ATOM     44  O5  non d ame     -32.530  10.157  27.131  0.00  0.00    -0.271 OA
ATOM     45  N6  non d ame     -32.436  11.894  28.670  0.00  0.00    -0.355 N 
ATOM     46  H46 non d ame     -32.771  12.266  29.548  0.00  0.00     0.162 HD
BRANCH  45  47
ATOM     47  C20 non d ame     -31.448  12.658  27.878  0.00  0.00     0.013 C 
ATOM     48  H30 non d ame     -30.670  11.967  27.557  0.00  0.00     0.072 H 
BRANCH  47  49
ATOM     49  C21 non d ame     -30.851  13.748  28.739  0.00  0.00    -0.038 C 
ATOM     50  H31 non d ame     -30.103  13.255  29.360  0.00  0.00     0.036 H 
ATOM     51  H32 non d ame     -30.553  14.538  28.049  0.00  0.00     0.036 H 
BRANCH  49  52
ATOM     52  C22 non d ame     -31.877  14.377  29.707  0.00  0.00     0.018 C 
ATOM     53  H33 non d ame     -32.847  13.987  29.402  0.00  0.00     0.048 H 
ATOM     54  H34 non d ame     -31.498  14.177  30.709  0.00  0.00     0.048 H 
BRANCH  52  55
ATOM     55  C23 non d ame     -31.981  15.923  29.590  0.00  0.00     0.259 C 
ATOM     56  O7  non d ame     -31.340  16.626  30.303  0.00  0.00    -0.265 OA
BRANCH  55  57
ATOM     57  O8  non d ame     -32.862  16.492  28.629  0.00  0.00    -0.317 OA
BRANCH  57  58
ATOM     58  C29 non d ame     -32.540  17.838  28.268  0.00  0.00     0.052 C 
ATOM     59  H47 non d ame     -32.520  18.398  29.203  0.00  0.00     0.082 H 
ATOM     60  H48 non d ame     -31.645  17.773  27.651  0.00  0.00     0.082 H 
BRANCH  58  61
ATOM     61  C35 non d ame     -33.698  18.389  27.392  0.00  0.00    -0.034 A 
ATOM     62  C30 non d ame     -34.322  17.561  26.463  0.00  0.00    -0.075 A 
ATOM     63  C31 non d ame     -35.362  18.055  25.676  0.00  0.00    -0.082 A 
ATOM     64  H49 non d ame     -33.997  16.527  26.351  0.00  0.00     0.084 H 
ATOM     65  C32 non d ame     -35.776  19.382  25.820  0.00  0.00    -0.083 A 
ATOM     66  H50 non d ame     -35.851  17.403  24.951  0.00  0.00     0.083 H 
ATOM     67  C33 non d ame     -35.148  20.204  26.745  0.00  0.00    -0.082 A 
ATOM     68  H51 non d ame     -36.589  19.775  25.209  0.00  0.00     0.083 H 
ATOM     69  C34 non d ame     -34.110  19.714  27.534  0.00  0.00    -0.075 A 
ATOM     70  H52 non d ame     -35.472  21.240  26.852  0.00  0.00     0.083 H 
ATOM     71  H53 non d ame     -33.623  20.366  28.260  0.00  0.00     0.084 H 
ENDBRANCH  58  61
ENDBRANCH  57  58
ENDBRANCH  55  57
ENDBRANCH  52  55
ENDBRANCH  49  52
ENDBRANCH  47  49
BRANCH  47  72
ATOM     72  C24 non d ame     -32.134  13.284  26.665  0.00  0.00    -0.039 C 
ATOM     73  H35 non d ame     -32.645  12.461  26.164  0.00  0.00     0.036 H 
ATOM     74  H36 non d ame     -32.708  14.124  27.057  0.00  0.00     0.036 H 
BRANCH  72  75
ATOM     75  C25 non d ame     -31.071  13.882  25.627  0.00  0.00    -0.001 C 
ATOM     76  C26 non d ame     -31.422  15.457  25.310  0.00  0.00    -0.035 C 
ATOM     77  C27 non d ame     -31.472  15.632  23.968  0.00  0.00     0.085 C 
ATOM     78  H38 non d ame     -32.437  15.686  25.635  0.00  0.00     0.036 H 
ATOM     79  H39 non d ame     -30.594  16.095  25.619  0.00  0.00     0.036 H 
ATOM     80  N5  non d ame     -31.511  14.257  23.345  0.00  0.00    -0.049 N 
ATOM     81  H40 non d ame     -32.419  16.137  23.775  0.00  0.00     0.075 H 
ATOM     82  H41 non d ame     -30.533  16.116  23.702  0.00  0.00     0.075 H 
ATOM     83  C28 non d ame     -31.086  13.228  24.513  0.00  0.00     0.193 C 
ATOM     84  H42 non d ame     -32.474  14.082  23.098  0.00  0.00     0.280 HD
ATOM     85  H43 non d ame     -30.796  14.247  22.631  0.00  0.00     0.280 HD
ATOM     86  H44 non d ame     -30.088  12.789  24.528  0.00  0.00     0.129 H 
ATOM     87  H37 non d ame     -30.044  13.650  25.907  0.00  0.00     0.046 H 
BRANCH  83  88
ATOM     88  O6  non d ame     -31.990  12.122  24.550  0.00  0.00    -0.369 OA
ATOM     89  H45 non d ame     -31.989  11.679  23.698  0.00  0.00     0.212 HD
ENDBRANCH  83  88
ENDBRANCH  72  75
ENDBRANCH  47  72
ENDBRANCH  45  47
ENDBRANCH   1  43
BRANCH   1  90
ATOM     90  C16 non d ame     -33.670   9.902  30.473  0.00  0.00    -0.035 C 
ATOM     91  H21 non d ame     -33.074   9.029  30.731  0.00  0.00     0.037 H 
ATOM     92  H22 non d ame     -33.252  10.902  30.591  0.00  0.00     0.037 H 
BRANCH  90  93
ATOM     93  C17 non d ame     -34.944   9.847  31.375  0.00  0.00    -0.059 C 
ATOM     94  H23 non d ame     -35.807  10.044  30.739  0.00  0.00     0.038 H 
BRANCH  93  95
ATOM     95  C18 non d ame     -35.145   8.442  32.027  0.00  0.00    -0.073 C 
ATOM     96  H24 non d ame     -35.428   7.721  31.259  0.00  0.00     0.028 H 
ATOM     97  H25 non d ame     -34.215   8.123  32.497  0.00  0.00     0.028 H 
ATOM     98  H26 non d ame     -35.932   8.499  32.779  0.00  0.00     0.028 H 
ENDBRANCH  93  95
BRANCH  93  99
ATOM     99  C19 non d ame     -34.906  10.942  32.444  0.00  0.00    -0.073 C 
ATOM    100  H27 non d ame     -34.143  11.677  32.184  0.00  0.00     0.028 H 
ATOM    101  H28 non d ame     -35.878  11.433  32.498  0.00  0.00     0.028 H 
ATOM    102  H29 non d ame     -34.669  10.498  33.411  0.00  0.00     0.028 H 
ENDBRANCH  93  99
ENDBRANCH  90  93
ENDBRANCH   1  90
TORSDOF 26
ENDMDL
MODEL 7
REMARK VINA RESULT:      -7.0      4.052      8.912
REMARK  26 active torsions:
REMARK  status: ('A' for Active; 'I' for Inactive)
REMARK    1  A    between atoms: C2_2  and  C3_3 
REMARK    2  A    between atoms: C4_6  and  C5_7 
REMARK       I    between atoms: C5_7  and  N2_9 
REMARK    3  A    between atoms: N2_9  and  C6_10 
REMARK    4  A    between atoms: C6_10  and  C7_11 
REMARK    5  A    between atoms: C6_10  and  C8_13 
REMARK       I    between atoms: C7_11  and  N3_14 
REMARK    6  A    between atoms: N3_14  and  C9_15 
REMARK    7  A    between atoms: C9_15  and  C10_16 
REMARK    8  A    between atoms: C9_15  and  C11_18 
REMARK       I    between atoms: C10_16  and  N4_21 
REMARK    9  A    between atoms: C11_18  and  C12_19 
REMARK   10  A    between atoms: C11_18  and  C13_20 
REMARK   11  A    between atoms: N4_21  and  C14_22 
REMARK   12  A    between atoms: C14_22  and  C15_23 
REMARK   13  A    between atoms: C14_22  and  C16_25 
REMARK       I    between atoms: C15_23  and  N6_40 
REMARK   14  A    between atoms: C16_25  and  C17_26 
REMARK   15  A    between atoms: C17_26  and  C18_27 
REMARK   16  A    between atoms: C17_26  and  C19_28 
REMARK   17  A    between atoms: C20_29  and  C21_30 
REMARK   18  A    between atoms: C20_29  and  C24_33 
REMARK   19  A    between atoms: C20_29  and  N6_40 
REMARK   20  A    between atoms: C21_30  and  C22_31 
REMARK   21  A    between atoms: C22_31  and  C23_32 
REMARK   22  A    between atoms: C23_32  and  O8_43 
REMARK   23  A    between atoms: C24_33  and  C25_34 
REMARK   24  A    between atoms: C28_38  and  O6_39 
REMARK   25  A    between atoms: C29_42  and  O8_43 
REMARK   26  A    between atoms: C29_42  and  C35_49 
ROOT
ATOM      1  C14 non d ame     -36.960   7.836  26.921  0.00  0.00     0.089 C 
ATOM      2  H20 non d ame     -37.801   8.184  26.319  0.00  0.00     0.087 H 
ENDROOT
BRANCH   1   3
ATOM      3  N4  non d ame     -36.603   6.507  26.449  0.00  0.00    -0.346 N 
ATOM      4  C10 non d ame     -37.006   6.054  25.069  0.00  0.00     0.241 C 
ATOM      5  O4  non d ame     -37.620   6.778  24.355  0.00  0.00    -0.271 OA
ATOM      6  H19 non d ame     -36.084   5.906  27.072  0.00  0.00     0.163 HD
BRANCH   4   7
ATOM      7  C9  non d ame     -36.624   4.676  24.595  0.00  0.00     0.092 C 
ATOM      8  H11 non d ame     -37.309   4.367  23.805  0.00  0.00     0.088 H 
BRANCH   7   9
ATOM      9  N3  non d ame     -35.279   4.714  24.013  0.00  0.00    -0.346 N 
ATOM     10  C7  non d ame     -35.115   4.878  22.590  0.00  0.00     0.240 C 
ATOM     11  O3  non d ame     -36.053   4.981  21.898  0.00  0.00    -0.271 OA
ATOM     12  H10 non d ame     -34.460   4.626  24.597  0.00  0.00     0.163 HD
BRANCH  10  13
ATOM     13  C6  non d ame     -33.681   4.915  21.975  0.00  0.00     0.086 C 
ATOM     14  H6  non d ame     -33.689   5.031  20.892  0.00  0.00     0.086 H 
BRANCH  13  15
ATOM     15  N2  non d ame     -32.967   6.063  22.510  0.00  0.00    -0.343 N 
ATOM     16  C5  non d ame     -32.429   7.069  21.594  0.00  0.00     0.273 C 
ATOM     17  O2  non d ame     -32.572   6.946  20.427  0.00  0.00    -0.266 OA
ATOM     18  H5  non d ame     -32.847   6.159  23.509  0.00  0.00     0.163 HD
BRANCH  16  19
ATOM     19  C4  non d ame     -31.673   8.288  22.146  0.00  0.00     0.154 A 
ATOM     20  C1  non d ame     -32.170   9.273  23.057  0.00  0.00    -0.017 A 
ATOM     21  C2  non d ame     -31.094  10.169  23.245  0.00  0.00     0.077 A 
ATOM     22  H1  non d ame     -33.159   9.330  23.512  0.00  0.00     0.091 H 
ATOM     23  O1  non d ame     -30.101   9.739  22.524  0.00  0.00    -0.218 OA
ATOM     24  N1  non d ame     -30.415   8.642  21.873  0.00  0.00    -0.123 NA
BRANCH  21  25
ATOM     25  C3  non d ame     -31.096  11.408  24.130  0.00  0.00    -0.029 C 
ATOM     26  H2  non d ame     -30.914  12.292  23.519  0.00  0.00     0.036 H 
ATOM     27  H3  non d ame     -32.065  11.502  24.622  0.00  0.00     0.036 H 
ATOM     28  H4  non d ame     -30.314  11.319  24.883  0.00  0.00     0.036 H 
ENDBRANCH  21  25
ENDBRANCH  16  19
ENDBRANCH  13  15
BRANCH  13  29
ATOM     29  C8  non d ame     -32.950   3.644  22.323  0.00  0.00    -0.049 C 
ATOM     30  H7  non d ame     -33.552   2.785  22.029  0.00  0.00     0.030 H 
ATOM     31  H8  non d ame     -31.997   3.616  21.795  0.00  0.00     0.030 H 
ATOM     32  H9  non d ame     -32.770   3.610  23.399  0.00  0.00     0.030 H 
ENDBRANCH  13  29
ENDBRANCH  10  13
ENDBRANCH   7   9
BRANCH   7  33
ATOM     33  C11 non d ame     -36.637   3.692  25.801  0.00  0.00    -0.033 C 
ATOM     34  H12 non d ame     -36.129   4.183  26.631  0.00  0.00     0.042 H 
BRANCH  33  35
ATOM     35  C12 non d ame     -38.094   3.377  26.262  0.00  0.00    -0.071 C 
ATOM     36  H13 non d ame     -38.743   4.218  26.015  0.00  0.00     0.028 H 
ATOM     37  H14 non d ame     -38.451   2.482  25.754  0.00  0.00     0.028 H 
ATOM     38  H15 non d ame     -38.107   3.214  27.340  0.00  0.00     0.028 H 
ENDBRANCH  33  35
BRANCH  33  39
ATOM     39  C13 non d ame     -35.854   2.383  25.463  0.00  0.00    -0.071 C 
ATOM     40  H16 non d ame     -34.914   2.638  24.972  0.00  0.00     0.028 H 
ATOM     41  H17 non d ame     -35.648   1.834  26.382  0.00  0.00     0.028 H 
ATOM     42  H18 non d ame     -36.454   1.762  24.798  0.00  0.00     0.028 H 
ENDBRANCH  33  39
ENDBRANCH   7  33
ENDBRANCH   4   7
ENDBRANCH   1   3
BRANCH   1  43
ATOM     43  C15 non d ame     -35.717   8.762  26.781  0.00  0.00     0.240 C 
ATOM     44  O5  non d ame     -35.572   9.412  25.797  0.00  0.00    -0.271 OA
ATOM     45  N6  non d ame     -34.711   8.844  27.878  0.00  0.00    -0.355 N 
ATOM     46  H46 non d ame     -34.826   8.300  28.721  0.00  0.00     0.162 HD
BRANCH  45  47
ATOM     47  C20 non d ame     -33.536   9.729  27.730  0.00  0.00     0.013 C 
ATOM     48  H30 non d ame     -33.870  10.652  27.255  0.00  0.00     0.072 H 
BRANCH  47  49
ATOM     49  C21 non d ame     -32.502   9.047  26.863  0.00  0.00    -0.038 C 
ATOM     50  H31 non d ame     -32.953   8.968  25.873  0.00  0.00     0.036 H 
ATOM     51  H32 non d ame     -31.582   9.615  27.000  0.00  0.00     0.036 H 
BRANCH  49  52
ATOM     52  C22 non d ame     -32.196   7.604  27.320  0.00  0.00     0.018 C 
ATOM     53  H33 non d ame     -31.110   7.538  27.382  0.00  0.00     0.048 H 
ATOM     54  H34 non d ame     -32.804   7.441  28.209  0.00  0.00     0.048 H 
BRANCH  52  55
ATOM     55  C23 non d ame     -32.632   6.518  26.298  0.00  0.00     0.259 C 
ATOM     56  O7  non d ame     -32.081   6.421  25.249  0.00  0.00    -0.265 OA
BRANCH  55  57
ATOM     57  O8  non d ame     -33.709   5.647  26.624  0.00  0.00    -0.317 OA
BRANCH  57  58
ATOM     58  C29 non d ame     -33.301   4.413  27.221  0.00  0.00     0.052 C 
ATOM     59  H47 non d ame     -33.977   3.656  26.825  0.00  0.00     0.082 H 
ATOM     60  H48 non d ame     -32.230   4.337  27.038  0.00  0.00     0.082 H 
BRANCH  58  61
ATOM     61  C35 non d ame     -33.530   4.524  28.752  0.00  0.00    -0.034 A 
ATOM     62  C30 non d ame     -34.574   5.300  29.245  0.00  0.00    -0.075 A 
ATOM     63  C31 non d ame     -34.779   5.400  30.621  0.00  0.00    -0.082 A 
ATOM     64  H49 non d ame     -35.230   5.831  28.556  0.00  0.00     0.084 H 
ATOM     65  C32 non d ame     -33.935   4.722  31.504  0.00  0.00    -0.083 A 
ATOM     66  H50 non d ame     -35.600   6.008  31.005  0.00  0.00     0.083 H 
ATOM     67  C33 non d ame     -32.893   3.952  31.007  0.00  0.00    -0.082 A 
ATOM     68  H51 non d ame     -34.090   4.794  32.581  0.00  0.00     0.083 H 
ATOM     69  C34 non d ame     -32.685   3.847  29.633  0.00  0.00    -0.075 A 
ATOM     70  H52 non d ame     -32.234   3.425  31.699  0.00  0.00     0.083 H 
ATOM     71  H53 non d ame     -31.865   3.239  29.250  0.00  0.00     0.084 H 
ENDBRANCH  58  61
ENDBRANCH  57  58
ENDBRANCH  55  57
ENDBRANCH  52  55
ENDBRANCH  49  52
ENDBRANCH  47  49
BRANCH  47  72
ATOM     72  C24 non d ame     -32.936  10.026  29.103  0.00  0.00    -0.039 C 
ATOM     73  H35 non d ame     -33.673   9.669  29.823  0.00  0.00     0.036 H 
ATOM     74  H36 non d ame     -31.938   9.589  29.083  0.00  0.00     0.036 H 
BRANCH  72  75
ATOM     75  C25 non d ame     -32.761  11.599  29.346  0.00  0.00    -0.001 C 
ATOM     76  C26 non d ame     -31.496  12.164  28.461  0.00  0.00    -0.035 C 
ATOM     77  C27 non d ame     -30.671  12.865  29.276  0.00  0.00     0.085 C 
ATOM     78  H38 non d ame     -30.875  11.335  28.123  0.00  0.00     0.036 H 
ATOM     79  H39 non d ame     -31.843  12.912  27.747  0.00  0.00     0.036 H 
ATOM     80  N5  non d ame     -31.084  12.554  30.695  0.00  0.00    -0.049 N 
ATOM     81  H40 non d ame     -29.674  12.461  29.099  0.00  0.00     0.075 H 
ATOM     82  H41 non d ame     -30.878  13.914  29.068  0.00  0.00     0.075 H 
ATOM     83  C28 non d ame     -32.537  11.857  30.591  0.00  0.00     0.193 C 
ATOM     84  H42 non d ame     -30.425  11.873  31.042  0.00  0.00     0.280 HD
ATOM     85  H43 non d ame     -31.186  13.443  31.163  0.00  0.00     0.280 HD
ATOM     86  H44 non d ame     -33.438  12.417  30.843  0.00  0.00     0.129 H 
ATOM     87  H37 non d ame     -33.704  12.137  29.262  0.00  0.00     0.046 H 
BRANCH  83  88
ATOM     88  O6  non d ame     -32.578  10.681  31.402  0.00  0.00    -0.369 OA
ATOM     89  H45 non d ame     -32.968   9.960  30.900  0.00  0.00     0.212 HD
ENDBRANCH  83  88
ENDBRANCH  72  75
ENDBRANCH  47  72
ENDBRANCH  45  47
ENDBRANCH   1  43
BRANCH   1  90
ATOM     90  C16 non d ame     -37.372   7.752  28.381  0.00  0.00    -0.035 C 
ATOM     91  H21 non d ame     -36.507   7.343  28.902  0.00  0.00     0.037 H 
ATOM     92  H22 non d ame     -37.742   8.745  28.634  0.00  0.00     0.037 H 
BRANCH  90  93
ATOM     93  C17 non d ame     -38.551   6.761  28.643  0.00  0.00    -0.059 C 
ATOM     94  H23 non d ame     -38.613   6.088  27.787  0.00  0.00     0.038 H 
BRANCH  93  95
ATOM     95  C18 non d ame     -38.317   5.889  29.918  0.00  0.00    -0.073 C 
ATOM     96  H24 non d ame     -37.291   5.522  29.925  0.00  0.00     0.028 H 
ATOM     97  H25 non d ame     -38.492   6.494  30.808  0.00  0.00     0.028 H 
ATOM     98  H26 non d ame     -39.005   5.044  29.911  0.00  0.00     0.028 H 
ENDBRANCH  93  95
BRANCH  93  99
ATOM     99  C19 non d ame     -39.884   7.509  28.732  0.00  0.00    -0.073 C 
ATOM    100  H27 non d ame     -39.703   8.583  28.669  0.00  0.00     0.028 H 
ATOM    101  H28 non d ame     -40.530   7.202  27.909  0.00  0.00     0.028 H 
ATOM    102  H29 non d ame     -40.369   7.277  29.680  0.00  0.00     0.028 H 
ENDBRANCH  93  99
ENDBRANCH  90  93
ENDBRANCH   1  90
TORSDOF 26
ENDMDL
MODEL 8
REMARK VINA RESULT:      -7.0      2.542     10.586
REMARK  26 active torsions:
REMARK  status: ('A' for Active; 'I' for Inactive)
REMARK    1  A    between atoms: C2_2  and  C3_3 
REMARK    2  A    between atoms: C4_6  and  C5_7 
REMARK       I    between atoms: C5_7  and  N2_9 
REMARK    3  A    between atoms: N2_9  and  C6_10 
REMARK    4  A    between atoms: C6_10  and  C7_11 
REMARK    5  A    between atoms: C6_10  and  C8_13 
REMARK       I    between atoms: C7_11  and  N3_14 
REMARK    6  A    between atoms: N3_14  and  C9_15 
REMARK    7  A    between atoms: C9_15  and  C10_16 
REMARK    8  A    between atoms: C9_15  and  C11_18 
REMARK       I    between atoms: C10_16  and  N4_21 
REMARK    9  A    between atoms: C11_18  and  C12_19 
REMARK   10  A    between atoms: C11_18  and  C13_20 
REMARK   11  A    between atoms: N4_21  and  C14_22 
REMARK   12  A    between atoms: C14_22  and  C15_23 
REMARK   13  A    between atoms: C14_22  and  C16_25 
REMARK       I    between atoms: C15_23  and  N6_40 
REMARK   14  A    between atoms: C16_25  and  C17_26 
REMARK   15  A    between atoms: C17_26  and  C18_27 
REMARK   16  A    between atoms: C17_26  and  C19_28 
REMARK   17  A    between atoms: C20_29  and  C21_30 
REMARK   18  A    between atoms: C20_29  and  C24_33 
REMARK   19  A    between atoms: C20_29  and  N6_40 
REMARK   20  A    between atoms: C21_30  and  C22_31 
REMARK   21  A    between atoms: C22_31  and  C23_32 
REMARK   22  A    between atoms: C23_32  and  O8_43 
REMARK   23  A    between atoms: C24_33  and  C25_34 
REMARK   24  A    between atoms: C28_38  and  O6_39 
REMARK   25  A    between atoms: C29_42  and  O8_43 
REMARK   26  A    between atoms: C29_42  and  C35_49 
ROOT
ATOM      1  C14 non d ame     -33.024  10.647  29.883  0.00  0.00     0.089 C 
ATOM      2  H20 non d ame     -32.039  10.191  29.779  0.00  0.00     0.087 H 
ENDROOT
BRANCH   1   3
ATOM      3  N4  non d ame     -33.436  11.106  28.565  0.00  0.00    -0.346 N 
ATOM      4  C10 non d ame     -33.110  10.292  27.339  0.00  0.00     0.241 C 
ATOM      5  O4  non d ame     -32.514   9.271  27.436  0.00  0.00    -0.271 OA
ATOM      6  H19 non d ame     -33.940  11.979  28.503  0.00  0.00     0.163 HD
BRANCH   4   7
ATOM      7  C9  non d ame     -33.548  10.780  25.982  0.00  0.00     0.092 C 
ATOM      8  H11 non d ame     -34.636  10.821  25.950  0.00  0.00     0.088 H 
BRANCH   7   9
ATOM      9  N3  non d ame     -33.056  12.145  25.772  0.00  0.00    -0.346 N 
ATOM     10  C7  non d ame     -33.893  13.272  26.104  0.00  0.00     0.240 C 
ATOM     11  O3  non d ame     -34.964  13.098  26.542  0.00  0.00    -0.271 OA
ATOM     12  H10 non d ame     -32.134  12.310  25.394  0.00  0.00     0.163 HD
BRANCH  10  13
ATOM     13  C6  non d ame     -33.365  14.722  25.875  0.00  0.00     0.086 C 
ATOM     14  H6  non d ame     -32.546  14.984  26.544  0.00  0.00     0.086 H 
BRANCH  13  15
ATOM     15  N2  non d ame     -32.845  14.827  24.522  0.00  0.00    -0.343 N 
ATOM     16  C5  non d ame     -31.440  14.508  24.262  0.00  0.00     0.273 C 
ATOM     17  O2  non d ame     -30.734  14.172  25.149  0.00  0.00    -0.266 OA
ATOM     18  H5  non d ame     -33.455  15.118  23.770  0.00  0.00     0.163 HD
BRANCH  16  19
ATOM     19  C4  non d ame     -30.878  14.614  22.835  0.00  0.00     0.154 A 
ATOM     20  C1  non d ame     -31.304  15.507  21.802  0.00  0.00    -0.017 A 
ATOM     21  C2  non d ame     -30.477  15.205  20.698  0.00  0.00     0.077 A 
ATOM     22  H1  non d ame     -32.092  16.258  21.847  0.00  0.00     0.091 H 
ATOM     23  O1  non d ame     -29.672  14.251  21.064  0.00  0.00    -0.218 OA
ATOM     24  N1  non d ame     -29.887  13.889  22.308  0.00  0.00    -0.123 NA
BRANCH  21  25
ATOM     25  C3  non d ame     -30.518  15.875  19.331  0.00  0.00    -0.029 C 
ATOM     26  H2  non d ame     -31.020  16.838  19.413  0.00  0.00     0.036 H 
ATOM     27  H3  non d ame     -29.501  16.027  18.969  0.00  0.00     0.036 H 
ATOM     28  H4  non d ame     -31.061  15.240  18.630  0.00  0.00     0.036 H 
ENDBRANCH  21  25
ENDBRANCH  16  19
ENDBRANCH  13  15
BRANCH  13  29
ATOM     29  C8  non d ame     -34.490  15.706  26.074  0.00  0.00    -0.049 C 
ATOM     30  H7  non d ame     -34.527  16.392  25.229  0.00  0.00     0.030 H 
ATOM     31  H8  non d ame     -35.435  15.168  26.147  0.00  0.00     0.030 H 
ATOM     32  H9  non d ame     -34.321  16.270  26.993  0.00  0.00     0.030 H 
ENDBRANCH  13  29
ENDBRANCH  10  13
ENDBRANCH   7   9
BRANCH   7  33
ATOM     33  C11 non d ame     -32.963   9.846  24.882  0.00  0.00    -0.033 C 
ATOM     34  H12 non d ame     -32.563   8.963  25.380  0.00  0.00     0.042 H 
BRANCH  33  35
ATOM     35  C12 non d ame     -34.074   9.366  23.896  0.00  0.00    -0.071 C 
ATOM     36  H13 non d ame     -33.838   9.709  22.889  0.00  0.00     0.028 H 
ATOM     37  H14 non d ame     -34.125   8.278  23.908  0.00  0.00     0.028 H 
ATOM     38  H15 non d ame     -35.035   9.779  24.203  0.00  0.00     0.028 H 
ENDBRANCH  33  35
BRANCH  33  39
ATOM     39  C13 non d ame     -31.792  10.544  24.120  0.00  0.00    -0.071 C 
ATOM     40  H16 non d ame     -30.946   9.860  24.048  0.00  0.00     0.028 H 
ATOM     41  H17 non d ame     -32.123  10.821  23.119  0.00  0.00     0.028 H 
ATOM     42  H18 non d ame     -31.489  11.440  24.662  0.00  0.00     0.028 H 
ENDBRANCH  33  39
ENDBRANCH   7  33
ENDBRANCH   4   7
ENDBRANCH   1   3
BRANCH   1  43
ATOM     43  C15 non d ame     -34.085   9.637  30.409  0.00  0.00     0.240 C 
ATOM     44  O5  non d ame     -34.132   9.380  31.569  0.00  0.00    -0.271 OA
ATOM     45  N6  non d ame     -35.050   8.999  29.469  0.00  0.00    -0.355 N 
ATOM     46  H46 non d ame     -35.023   9.213  28.482  0.00  0.00     0.162 HD
BRANCH  45  47
ATOM     47  C20 non d ame     -36.052   8.042  29.985  0.00  0.00     0.013 C 
ATOM     48  H30 non d ame     -35.825   7.853  31.035  0.00  0.00     0.072 H 
BRANCH  47  49
ATOM     49  C21 non d ame     -35.968   6.755  29.197  0.00  0.00    -0.038 C 
ATOM     50  H31 non d ame     -36.997   6.413  29.081  0.00  0.00     0.036 H 
ATOM     51  H32 non d ame     -35.368   6.988  28.317  0.00  0.00     0.036 H 
BRANCH  49  52
ATOM     52  C22 non d ame     -35.218   5.637  29.954  0.00  0.00     0.018 C 
ATOM     53  H33 non d ame     -34.587   6.145  30.682  0.00  0.00     0.048 H 
ATOM     54  H34 non d ame     -35.988   4.941  30.290  0.00  0.00     0.048 H 
BRANCH  52  55
ATOM     55  C23 non d ame     -34.257   4.809  29.056  0.00  0.00     0.259 C 
ATOM     56  O7  non d ame     -33.259   4.347  29.508  0.00  0.00    -0.265 OA
BRANCH  55  57
ATOM     57  O8  non d ame     -34.575   4.621  27.683  0.00  0.00    -0.317 OA
BRANCH  57  58
ATOM     58  C29 non d ame     -33.642   3.798  26.976  0.00  0.00     0.052 C 
ATOM     59  H47 non d ame     -32.822   3.619  27.671  0.00  0.00     0.082 H 
ATOM     60  H48 non d ame     -34.221   2.961  26.588  0.00  0.00     0.082 H 
BRANCH  58  61
ATOM     61  C35 non d ame     -33.098   4.616  25.774  0.00  0.00    -0.034 A 
ATOM     62  C30 non d ame     -33.433   4.249  24.474  0.00  0.00    -0.075 A 
ATOM     63  C31 non d ame     -32.944   4.982  23.394  0.00  0.00    -0.082 A 
ATOM     64  H49 non d ame     -34.077   3.386  24.301  0.00  0.00     0.084 H 
ATOM     65  C32 non d ame     -32.117   6.086  23.617  0.00  0.00    -0.083 A 
ATOM     66  H50 non d ame     -33.210   4.694  22.376  0.00  0.00     0.083 H 
ATOM     67  C33 non d ame     -31.783   6.446  24.916  0.00  0.00    -0.082 A 
ATOM     68  H51 non d ame     -31.731   6.666  22.778  0.00  0.00     0.083 H 
ATOM     69  C34 non d ame     -32.270   5.717  25.998  0.00  0.00    -0.075 A 
ATOM     70  H52 non d ame     -31.135   7.307  25.087  0.00  0.00     0.083 H 
ATOM     71  H53 non d ame     -32.005   6.006  27.015  0.00  0.00     0.084 H 
ENDBRANCH  58  61
ENDBRANCH  57  58
ENDBRANCH  55  57
ENDBRANCH  52  55
ENDBRANCH  49  52
ENDBRANCH  47  49
BRANCH  47  72
ATOM     72  C24 non d ame     -37.452   8.636  29.845  0.00  0.00    -0.039 C 
ATOM     73  H35 non d ame     -37.371   9.387  29.058  0.00  0.00     0.036 H 
ATOM     74  H36 non d ame     -38.118   7.783  29.716  0.00  0.00     0.036 H 
BRANCH  72  75
ATOM     75  C25 non d ame     -37.910   9.396  31.178  0.00  0.00    -0.001 C 
ATOM     76  C26 non d ame     -39.442   8.952  31.578  0.00  0.00    -0.035 C 
ATOM     77  C27 non d ame     -40.185  10.068  31.771  0.00  0.00     0.085 C 
ATOM     78  H38 non d ame     -39.925   8.468  30.730  0.00  0.00     0.036 H 
ATOM     79  H39 non d ame     -39.449   8.470  32.556  0.00  0.00     0.036 H 
ATOM     80  N5  non d ame     -39.389  11.228  31.220  0.00  0.00    -0.049 N 
ATOM     81  H40 non d ame     -41.080   9.930  31.164  0.00  0.00     0.075 H 
ATOM     82  H41 non d ame     -40.271  10.178  32.851  0.00  0.00     0.075 H 
ATOM     83  C28 non d ame     -37.885  10.677  31.018  0.00  0.00     0.193 C 
ATOM     84  H42 non d ame     -39.779  11.437  30.313  0.00  0.00     0.280 HD
ATOM     85  H43 non d ame     -39.379  11.934  31.942  0.00  0.00     0.280 HD
ATOM     86  H44 non d ame     -37.097  10.949  31.721  0.00  0.00     0.129 H 
ATOM     87  H37 non d ame     -37.157   9.342  31.964  0.00  0.00     0.046 H 
BRANCH  83  88
ATOM     88  O6  non d ame     -37.393  11.050  29.729  0.00  0.00    -0.369 OA
ATOM     89  H45 non d ame     -38.127  11.121  29.114  0.00  0.00     0.212 HD
ENDBRANCH  83  88
ENDBRANCH  72  75
ENDBRANCH  47  72
ENDBRANCH  45  47
ENDBRANCH   1  43
BRANCH   1  90
ATOM     90  C16 non d ame     -32.944  11.839  30.823  0.00  0.00    -0.035 C 
ATOM     91  H21 non d ame     -33.725  12.521  30.490  0.00  0.00     0.037 H 
ATOM     92  H22 non d ame     -32.978  11.417  31.827  0.00  0.00     0.037 H 
BRANCH  90  93
ATOM     93  C17 non d ame     -31.598  12.627  30.720  0.00  0.00    -0.059 C 
ATOM     94  H23 non d ame     -31.476  13.192  31.643  0.00  0.00     0.038 H 
BRANCH  93  95
ATOM     95  C18 non d ame     -30.368  11.675  30.578  0.00  0.00    -0.073 C 
ATOM     96  H24 non d ame     -30.440  11.124  29.640  0.00  0.00     0.028 H 
ATOM     97  H25 non d ame     -29.451  12.265  30.581  0.00  0.00     0.028 H 
ATOM     98  H26 non d ame     -30.352  10.974  31.411  0.00  0.00     0.028 H 
ENDBRANCH  93  95
BRANCH  93  99
ATOM     99  C19 non d ame     -31.642  13.636  29.570  0.00  0.00    -0.073 C 
ATOM    100  H27 non d ame     -31.528  14.645  29.968  0.00  0.00     0.028 H 
ATOM    101  H28 non d ame     -30.830  13.429  28.872  0.00  0.00     0.028 H 
ATOM    102  H29 non d ame     -32.597  13.555  29.051  0.00  0.00     0.028 H 
ENDBRANCH  93  99
ENDBRANCH  90  93
ENDBRANCH   1  90
TORSDOF 26
ENDMDL
MODEL 9
REMARK VINA RESULT:      -6.8      1.890      2.427
REMARK  26 active torsions:
REMARK  status: ('A' for Active; 'I' for Inactive)
REMARK    1  A    between atoms: C2_2  and  C3_3 
REMARK    2  A    between atoms: C4_6  and  C5_7 
REMARK       I    between atoms: C5_7  and  N2_9 
REMARK    3  A    between atoms: N2_9  and  C6_10 
REMARK    4  A    between atoms: C6_10  and  C7_11 
REMARK    5  A    between atoms: C6_10  and  C8_13 
REMARK       I    between atoms: C7_11  and  N3_14 
REMARK    6  A    between atoms: N3_14  and  C9_15 
REMARK    7  A    between atoms: C9_15  and  C10_16 
REMARK    8  A    between atoms: C9_15  and  C11_18 
REMARK       I    between atoms: C10_16  and  N4_21 
REMARK    9  A    between atoms: C11_18  and  C12_19 
REMARK   10  A    between atoms: C11_18  and  C13_20 
REMARK   11  A    between atoms: N4_21  and  C14_22 
REMARK   12  A    between atoms: C14_22  and  C15_23 
REMARK   13  A    between atoms: C14_22  and  C16_25 
REMARK       I    between atoms: C15_23  and  N6_40 
REMARK   14  A    between atoms: C16_25  and  C17_26 
REMARK   15  A    between atoms: C17_26  and  C18_27 
REMARK   16  A    between atoms: C17_26  and  C19_28 
REMARK   17  A    between atoms: C20_29  and  C21_30 
REMARK   18  A    between atoms: C20_29  and  C24_33 
REMARK   19  A    between atoms: C20_29  and  N6_40 
REMARK   20  A    between atoms: C21_30  and  C22_31 
REMARK   21  A    between atoms: C22_31  and  C23_32 
REMARK   22  A    between atoms: C23_32  and  O8_43 
REMARK   23  A    between atoms: C24_33  and  C25_34 
REMARK   24  A    between atoms: C28_38  and  O6_39 
REMARK   25  A    between atoms: C29_42  and  O8_43 
REMARK   26  A    between atoms: C29_42  and  C35_49 
ROOT
ATOM      1  C14 non d ame     -32.440  10.297  26.531  0.00  0.00     0.089 C 
ATOM      2  H20 non d ame     -33.481  10.405  26.225  0.00  0.00     0.087 H 
ENDROOT
BRANCH   1   3
ATOM      3  N4  non d ame     -31.855   9.235  25.726  0.00  0.00    -0.346 N 
ATOM      4  C10 non d ame     -32.344   8.985  24.322  0.00  0.00     0.241 C 
ATOM      5  O4  non d ame     -33.212   9.651  23.861  0.00  0.00    -0.271 OA
ATOM      6  H19 non d ame     -31.120   8.677  26.137  0.00  0.00     0.163 HD
BRANCH   4   7
ATOM      7  C9  non d ame     -31.725   7.884  23.501  0.00  0.00     0.092 C 
ATOM      8  H11 non d ame     -30.761   7.615  23.932  0.00  0.00     0.088 H 
BRANCH   7   9
ATOM      9  N3  non d ame     -32.575   6.692  23.561  0.00  0.00    -0.346 N 
ATOM     10  C7  non d ame     -32.520   5.825  24.713  0.00  0.00     0.240 C 
ATOM     11  O3  non d ame     -31.798   6.073  25.600  0.00  0.00    -0.271 OA
ATOM     12  H10 non d ame     -33.202   6.465  22.803  0.00  0.00     0.163 HD
BRANCH  10  13
ATOM     13  C6  non d ame     -33.425   4.556  24.770  0.00  0.00     0.086 C 
ATOM     14  H6  non d ame     -32.933   3.709  25.247  0.00  0.00     0.086 H 
BRANCH  13  15
ATOM     15  N2  non d ame     -34.606   4.853  25.564  0.00  0.00    -0.343 N 
ATOM     16  C5  non d ame     -34.700   4.345  26.934  0.00  0.00     0.273 C 
ATOM     17  O2  non d ame     -33.822   3.696  27.388  0.00  0.00    -0.266 OA
ATOM     18  H5  non d ame     -35.352   5.406  25.167  0.00  0.00     0.163 HD
BRANCH  16  19
ATOM     19  C4  non d ame     -35.942   4.652  27.785  0.00  0.00     0.154 A 
ATOM     20  C1  non d ame     -37.216   4.005  27.721  0.00  0.00    -0.017 A 
ATOM     21  C2  non d ame     -38.002   4.652  28.700  0.00  0.00     0.077 A 
ATOM     22  H1  non d ame     -37.523   3.190  27.065  0.00  0.00     0.091 H 
ATOM     23  O1  non d ame     -37.258   5.561  29.256  0.00  0.00    -0.218 OA
ATOM     24  N1  non d ame     -36.051   5.581  28.739  0.00  0.00    -0.123 NA
BRANCH  21  25
ATOM     25  C3  non d ame     -39.453   4.340  29.042  0.00  0.00    -0.029 C 
ATOM     26  H2  non d ame     -39.841   3.600  28.343  0.00  0.00     0.036 H 
ATOM     27  H3  non d ame     -39.511   3.945  30.056  0.00  0.00     0.036 H 
ATOM     28  H4  non d ame     -40.048   5.251  28.973  0.00  0.00     0.036 H 
ENDBRANCH  21  25
ENDBRANCH  16  19
ENDBRANCH  13  15
BRANCH  13  29
ATOM     29  C8  non d ame     -33.829   4.159  23.373  0.00  0.00    -0.049 C 
ATOM     30  H7  non d ame     -34.915   4.117  23.306  0.00  0.00     0.030 H 
ATOM     31  H8  non d ame     -33.450   4.894  22.662  0.00  0.00     0.030 H 
ATOM     32  H9  non d ame     -33.411   3.179  23.138  0.00  0.00     0.030 H 
ENDBRANCH  13  29
ENDBRANCH  10  13
ENDBRANCH   7   9
BRANCH   7  33
ATOM     33  C11 non d ame     -31.596   8.352  22.021  0.00  0.00    -0.033 C 
ATOM     34  H12 non d ame     -32.209   9.245  21.904  0.00  0.00     0.042 H 
BRANCH  33  35
ATOM     35  C12 non d ame     -30.125   8.743  21.676  0.00  0.00    -0.071 C 
ATOM     36  H13 non d ame     -30.012   9.826  21.741  0.00  0.00     0.028 H 
ATOM     37  H14 non d ame     -29.446   8.264  22.380  0.00  0.00     0.028 H 
ATOM     38  H15 non d ame     -29.890   8.416  20.663  0.00  0.00     0.028 H 
ENDBRANCH  33  35
BRANCH  33  39
ATOM     39  C13 non d ame     -32.137   7.262  21.042  0.00  0.00    -0.071 C 
ATOM     40  H16 non d ame     -31.657   6.308  21.258  0.00  0.00     0.028 H 
ATOM     41  H17 non d ame     -33.216   7.164  21.167  0.00  0.00     0.028 H 
ATOM     42  H18 non d ame     -31.918   7.555  20.015  0.00  0.00     0.028 H 
ENDBRANCH  33  39
ENDBRANCH   7  33
ENDBRANCH   4   7
ENDBRANCH   1   3
BRANCH   1  43
ATOM     43  C15 non d ame     -31.622  11.600  26.299  0.00  0.00     0.240 C 
ATOM     44  O5  non d ame     -30.768  11.907  27.067  0.00  0.00    -0.271 OA
ATOM     45  N6  non d ame     -31.897  12.462  25.115  0.00  0.00    -0.355 N 
ATOM     46  H46 non d ame     -32.617  12.210  24.452  0.00  0.00     0.162 HD
BRANCH  45  47
ATOM     47  C20 non d ame     -31.111  13.698  24.909  0.00  0.00     0.013 C 
ATOM     48  H30 non d ame     -30.250  13.661  25.576  0.00  0.00     0.072 H 
BRANCH  47  49
ATOM     49  C21 non d ame     -31.969  14.898  25.238  0.00  0.00    -0.038 C 
ATOM     50  H31 non d ame     -31.282  15.658  25.610  0.00  0.00     0.036 H 
ATOM     51  H32 non d ame     -32.562  15.090  24.343  0.00  0.00     0.036 H 
BRANCH  49  52
ATOM     52  C22 non d ame     -32.975  14.621  26.376  0.00  0.00     0.018 C 
ATOM     53  H33 non d ame     -33.852  15.226  26.149  0.00  0.00     0.048 H 
ATOM     54  H34 non d ame     -33.062  13.536  26.436  0.00  0.00     0.048 H 
BRANCH  52  55
ATOM     55  C23 non d ame     -32.483  15.089  27.774  0.00  0.00     0.259 C 
ATOM     56  O7  non d ame     -31.395  14.802  28.157  0.00  0.00    -0.265 OA
BRANCH  55  57
ATOM     57  O8  non d ame     -33.353  15.854  28.600  0.00  0.00    -0.317 OA
BRANCH  57  58
ATOM     58  C29 non d ame     -34.424  16.484  27.891  0.00  0.00     0.052 C 
ATOM     59  H47 non d ame     -34.681  15.805  27.079  0.00  0.00     0.082 H 
ATOM     60  H48 non d ame     -35.168  16.739  28.645  0.00  0.00     0.082 H 
BRANCH  58  61
ATOM     61  C35 non d ame     -33.880  17.802  27.276  0.00  0.00    -0.034 A 
ATOM     62  C30 non d ame     -33.063  18.638  28.032  0.00  0.00    -0.075 A 
ATOM     63  C31 non d ame     -32.575  19.821  27.479  0.00  0.00    -0.082 A 
ATOM     64  H49 non d ame     -32.806  18.367  29.055  0.00  0.00     0.084 H 
ATOM     65  C32 non d ame     -32.908  20.169  26.167  0.00  0.00    -0.083 A 
ATOM     66  H50 non d ame     -31.933  20.474  28.073  0.00  0.00     0.083 H 
ATOM     67  C33 non d ame     -33.726  19.333  25.419  0.00  0.00    -0.082 A 
ATOM     68  H51 non d ame     -32.529  21.092  25.728  0.00  0.00     0.083 H 
ATOM     69  C34 non d ame     -34.215  18.149  25.966  0.00  0.00    -0.075 A 
ATOM     70  H52 non d ame     -33.986  19.608  24.396  0.00  0.00     0.083 H 
ATOM     71  H53 non d ame     -34.855  17.497  25.372  0.00  0.00     0.084 H 
ENDBRANCH  58  61
ENDBRANCH  57  58
ENDBRANCH  55  57
ENDBRANCH  52  55
ENDBRANCH  49  52
ENDBRANCH  47  49
BRANCH  47  72
ATOM     72  C24 non d ame     -30.652  13.781  23.455  0.00  0.00    -0.039 C 
ATOM     73  H35 non d ame     -29.674  13.299  23.432  0.00  0.00     0.036 H 
ATOM     74  H36 non d ame     -31.474  13.372  22.867  0.00  0.00     0.036 H 
BRANCH  72  75
ATOM     75  C25 non d ame     -30.443  15.298  22.985  0.00  0.00    -0.001 C 
ATOM     76  C26 non d ame     -31.427  15.629  21.710  0.00  0.00    -0.035 C 
ATOM     77  C27 non d ame     -30.686  16.172  20.715  0.00  0.00     0.085 C 
ATOM     78  H38 non d ame     -31.800  14.703  21.274  0.00  0.00     0.036 H 
ATOM     79  H39 non d ame     -32.124  16.427  21.972  0.00  0.00     0.036 H 
ATOM     80  N5  non d ame     -29.236  15.939  21.068  0.00  0.00    -0.049 N 
ATOM     81  H40 non d ame     -30.932  15.597  19.822  0.00  0.00     0.075 H 
ATOM     82  H41 non d ame     -30.892  17.241  20.748  0.00  0.00     0.075 H 
ATOM     83  C28 non d ame     -29.222  15.512  22.625  0.00  0.00     0.193 C 
ATOM     84  H42 non d ame     -28.930  15.152  20.516  0.00  0.00     0.280 HD
ATOM     85  H43 non d ame     -28.774  16.832  20.975  0.00  0.00     0.280 HD
ATOM     86  H44 non d ame     -28.912  16.223  23.391  0.00  0.00     0.129 H 
ATOM     87  H37 non d ame     -30.464  15.996  23.821  0.00  0.00     0.046 H 
BRANCH  83  88
ATOM     88  O6  non d ame     -28.395  14.362  22.813  0.00  0.00    -0.369 OA
ATOM     89  H45 non d ame     -27.497  14.642  23.009  0.00  0.00     0.212 HD
ENDBRANCH  83  88
ENDBRANCH  72  75
ENDBRANCH  47  72
ENDBRANCH  45  47
ENDBRANCH   1  43
BRANCH   1  90
ATOM     90  C16 non d ame     -32.371   9.904  27.998  0.00  0.00    -0.035 C 
ATOM     91  H21 non d ame     -32.045   8.866  28.003  0.00  0.00     0.037 H 
ATOM     92  H22 non d ame     -31.760  10.671  28.473  0.00  0.00     0.037 H 
BRANCH  90  93
ATOM     93  C17 non d ame     -33.757   9.934  28.719  0.00  0.00    -0.059 C 
ATOM     94  H23 non d ame     -34.208   8.948  28.607  0.00  0.00     0.038 H 
BRANCH  93  95
ATOM     95  C18 non d ame     -33.620  10.225  30.247  0.00  0.00    -0.073 C 
ATOM     96  H24 non d ame     -34.361   9.643  30.796  0.00  0.00     0.028 H 
ATOM     97  H25 non d ame     -32.621   9.946  30.582  0.00  0.00     0.028 H 
ATOM     98  H26 non d ame     -33.782  11.287  30.431  0.00  0.00     0.028 H 
ENDBRANCH  93  95
BRANCH  93  99
ATOM     99  C19 non d ame     -34.697  10.943  28.055  0.00  0.00    -0.073 C 
ATOM    100  H27 non d ame     -35.129  10.500  27.156  0.00  0.00     0.028 H 
ATOM    101  H28 non d ame     -35.497  11.207  28.748  0.00  0.00     0.028 H 
ATOM    102  H29 non d ame     -34.138  11.839  27.786  0.00  0.00     0.028 H 
ENDBRANCH  93  99
ENDBRANCH  90  93
ENDBRANCH   1  90
TORSDOF 26
ENDMDL
MODEL 10
REMARK VINA RESULT:      -6.8      2.529      5.400
REMARK  26 active torsions:
REMARK  status: ('A' for Active; 'I' for Inactive)
REMARK    1  A    between atoms: C2_2  and  C3_3 
REMARK    2  A    between atoms: C4_6  and  C5_7 
REMARK       I    between atoms: C5_7  and  N2_9 
REMARK    3  A    between atoms: N2_9  and  C6_10 
REMARK    4  A    between atoms: C6_10  and  C7_11 
REMARK    5  A    between atoms: C6_10  and  C8_13 
REMARK       I    between atoms: C7_11  and  N3_14 
REMARK    6  A    between atoms: N3_14  and  C9_15 
REMARK    7  A    between atoms: C9_15  and  C10_16 
REMARK    8  A    between atoms: C9_15  and  C11_18 
REMARK       I    between atoms: C10_16  and  N4_21 
REMARK    9  A    between atoms: C11_18  and  C12_19 
REMARK   10  A    between atoms: C11_18  and  C13_20 
REMARK   11  A    between atoms: N4_21  and  C14_22 
REMARK   12  A    between atoms: C14_22  and  C15_23 
REMARK   13  A    between atoms: C14_22  and  C16_25 
REMARK       I    between atoms: C15_23  and  N6_40 
REMARK   14  A    between atoms: C16_25  and  C17_26 
REMARK   15  A    between atoms: C17_26  and  C18_27 
REMARK   16  A    between atoms: C17_26  and  C19_28 
REMARK   17  A    between atoms: C20_29  and  C21_30 
REMARK   18  A    between atoms: C20_29  and  C24_33 
REMARK   19  A    between atoms: C20_29  and  N6_40 
REMARK   20  A    between atoms: C21_30  and  C22_31 
REMARK   21  A    between atoms: C22_31  and  C23_32 
REMARK   22  A    between atoms: C23_32  and  O8_43 
REMARK   23  A    between atoms: C24_33  and  C25_34 
REMARK   24  A    between atoms: C28_38  and  O6_39 
REMARK   25  A    between atoms: C29_42  and  O8_43 
REMARK   26  A    between atoms: C29_42  and  C35_49 
ROOT
ATOM      1  C14 non d ame     -31.796   9.267  24.162  0.00  0.00     0.089 C 
ATOM      2  H20 non d ame     -31.126   8.466  24.473  0.00  0.00     0.087 H 
ENDROOT
BRANCH   1   3
ATOM      3  N4  non d ame     -33.059   9.078  24.860  0.00  0.00    -0.346 N 
ATOM      4  C10 non d ame     -33.203   7.990  25.893  0.00  0.00     0.241 C 
ATOM      5  O4  non d ame     -32.288   7.277  26.147  0.00  0.00    -0.271 OA
ATOM      6  H19 non d ame     -33.826   9.693  24.628  0.00  0.00     0.163 HD
BRANCH   4   7
ATOM      7  C9  non d ame     -34.516   7.811  26.609  0.00  0.00     0.092 C 
ATOM      8  H11 non d ame     -34.516   6.851  27.124  0.00  0.00     0.088 H 
BRANCH   7   9
ATOM      9  N3  non d ame     -34.661   8.851  27.632  0.00  0.00    -0.346 N 
ATOM     10  C7  non d ame     -34.804   8.482  29.019  0.00  0.00     0.240 C 
ATOM     11  O3  non d ame     -34.805   7.354  29.329  0.00  0.00    -0.271 OA
ATOM     12  H10 non d ame     -34.664   9.829  27.379  0.00  0.00     0.163 HD
BRANCH  10  13
ATOM     13  C6  non d ame     -34.962   9.593  30.103  0.00  0.00     0.086 C 
ATOM     14  H6  non d ame     -34.455   9.347  31.036  0.00  0.00     0.086 H 
BRANCH  13  15
ATOM     15  N2  non d ame     -34.357  10.820  29.613  0.00  0.00    -0.343 N 
ATOM     16  C5  non d ame     -33.039  11.224  30.109  0.00  0.00     0.273 C 
ATOM     17  O2  non d ame     -32.476  10.556  30.905  0.00  0.00    -0.266 OA
ATOM     18  H5  non d ame     -34.847  11.386  28.935  0.00  0.00     0.163 HD
BRANCH  16  19
ATOM     19  C4  non d ame     -32.388  12.519  29.598  0.00  0.00     0.154 A 
ATOM     20  C1  non d ame     -32.907  13.848  29.704  0.00  0.00    -0.017 A 
ATOM     21  C2  non d ame     -31.936  14.666  29.084  0.00  0.00     0.077 A 
ATOM     22  H1  non d ame     -33.843  14.168  30.160  0.00  0.00     0.091 H 
ATOM     23  O1  non d ame     -30.977  13.890  28.676  0.00  0.00    -0.218 OA
ATOM     24  N1  non d ame     -31.217  12.631  28.965  0.00  0.00    -0.123 NA
BRANCH  21  25
ATOM     25  C3  non d ame     -32.002  16.179  28.926  0.00  0.00    -0.029 C 
ATOM     26  H2  non d ame     -32.687  16.431  28.117  0.00  0.00     0.036 H 
ATOM     27  H3  non d ame     -32.358  16.627  29.854  0.00  0.00     0.036 H 
ATOM     28  H4  non d ame     -31.009  16.565  28.694  0.00  0.00     0.036 H 
ENDBRANCH  21  25
ENDBRANCH  16  19
ENDBRANCH  13  15
BRANCH  13  29
ATOM     29  C8  non d ame     -36.425   9.817  30.389  0.00  0.00    -0.049 C 
ATOM     30  H7  non d ame     -36.546  10.165  31.414  0.00  0.00     0.030 H 
ATOM     31  H8  non d ame     -36.819  10.566  29.702  0.00  0.00     0.030 H 
ATOM     32  H9  non d ame     -36.968   8.880  30.257  0.00  0.00     0.030 H 
ENDBRANCH  13  29
ENDBRANCH  10  13
ENDBRANCH   7   9
BRANCH   7  33
ATOM     33  C11 non d ame     -35.684   7.928  25.586  0.00  0.00    -0.033 C 
ATOM     34  H12 non d ame     -35.485   8.795  24.957  0.00  0.00     0.042 H 
BRANCH  33  35
ATOM     35  C12 non d ame     -35.749   6.678  24.654  0.00  0.00    -0.071 C 
ATOM     36  H13 non d ame     -35.221   6.889  23.724  0.00  0.00     0.028 H 
ATOM     37  H14 non d ame     -35.283   5.828  25.152  0.00  0.00     0.028 H 
ATOM     38  H15 non d ame     -36.791   6.443  24.432  0.00  0.00     0.028 H 
ENDBRANCH  33  35
BRANCH  33  39
ATOM     39  C13 non d ame     -37.045   8.163  26.315  0.00  0.00    -0.071 C 
ATOM     40  H16 non d ame     -37.343   9.206  26.203  0.00  0.00     0.028 H 
ATOM     41  H17 non d ame     -37.808   7.517  25.879  0.00  0.00     0.028 H 
ATOM     42  H18 non d ame     -36.936   7.928  27.374  0.00  0.00     0.028 H 
ENDBRANCH  33  39
ENDBRANCH   7  33
ENDBRANCH   4   7
ENDBRANCH   1   3
BRANCH   1  43
ATOM     43  C15 non d ame     -31.237  10.673  24.523  0.00  0.00     0.240 C 
ATOM     44  O5  non d ame     -30.912  10.911  25.642  0.00  0.00    -0.271 OA
ATOM     45  N6  non d ame     -31.097  11.722  23.473  0.00  0.00    -0.355 N 
ATOM     46  H46 non d ame     -31.365  11.530  22.518  0.00  0.00     0.162 HD
BRANCH  45  47
ATOM     47  C20 non d ame     -30.563  13.053  23.833  0.00  0.00     0.013 C 
ATOM     48  H30 non d ame     -29.922  12.931  24.707  0.00  0.00     0.072 H 
BRANCH  47  49
ATOM     49  C21 non d ame     -31.711  13.981  24.158  0.00  0.00    -0.038 C 
ATOM     50  H31 non d ame     -31.831  14.619  23.282  0.00  0.00     0.036 H 
ATOM     51  H32 non d ame     -32.529  13.336  24.479  0.00  0.00     0.036 H 
BRANCH  49  52
ATOM     52  C22 non d ame     -31.404  14.921  25.344  0.00  0.00     0.018 C 
ATOM     53  H33 non d ame     -31.649  14.354  26.241  0.00  0.00     0.048 H 
ATOM     54  H34 non d ame     -30.386  15.276  25.184  0.00  0.00     0.048 H 
BRANCH  52  55
ATOM     55  C23 non d ame     -32.298  16.192  25.384  0.00  0.00     0.259 C 
ATOM     56  O7  non d ame     -31.836  17.245  25.683  0.00  0.00    -0.265 OA
BRANCH  55  57
ATOM     57  O8  non d ame     -33.682  16.080  25.072  0.00  0.00    -0.317 OA
BRANCH  57  58
ATOM     58  C29 non d ame     -34.499  15.686  26.178  0.00  0.00     0.052 C 
ATOM     59  H47 non d ame     -33.826  15.623  27.033  0.00  0.00     0.082 H 
ATOM     60  H48 non d ame     -35.335  16.384  26.191  0.00  0.00     0.082 H 
BRANCH  58  61
ATOM     61  C35 non d ame     -35.051  14.266  25.882  0.00  0.00    -0.034 A 
ATOM     62  C30 non d ame     -36.179  14.110  25.081  0.00  0.00    -0.075 A 
ATOM     63  C31 non d ame     -36.676  12.835  24.816  0.00  0.00    -0.082 A 
ATOM     64  H49 non d ame     -36.674  14.987  24.663  0.00  0.00     0.084 H 
ATOM     65  C32 non d ame     -36.041  11.712  25.355  0.00  0.00    -0.083 A 
ATOM     66  H50 non d ame     -37.559  12.716  24.187  0.00  0.00     0.083 H 
ATOM     67  C33 non d ame     -34.919  11.873  26.156  0.00  0.00    -0.082 A 
ATOM     68  H51 non d ame     -36.423  10.711  25.152  0.00  0.00     0.083 H 
ATOM     69  C34 non d ame     -34.418  13.146  26.423  0.00  0.00    -0.075 A 
ATOM     70  H52 non d ame     -34.427  10.995  26.577  0.00  0.00     0.083 H 
ATOM     71  H53 non d ame     -33.535  13.263  27.051  0.00  0.00     0.084 H 
ENDBRANCH  58  61
ENDBRANCH  57  58
ENDBRANCH  55  57
ENDBRANCH  52  55
ENDBRANCH  49  52
ENDBRANCH  47  49
BRANCH  47  72
ATOM     72  C24 non d ame     -29.762  13.621  22.663  0.00  0.00    -0.039 C 
ATOM     73  H35 non d ame     -28.789  13.886  23.080  0.00  0.00     0.036 H 
ATOM     74  H36 non d ame     -29.830  12.872  21.874  0.00  0.00     0.036 H 
BRANCH  72  75
ATOM     75  C25 non d ame     -30.416  14.968  22.095  0.00  0.00    -0.001 C 
ATOM     76  C26 non d ame     -31.010  14.708  20.585  0.00  0.00    -0.035 C 
ATOM     77  C27 non d ame     -30.530  15.665  19.755  0.00  0.00     0.085 C 
ATOM     78  H38 non d ame     -30.600  13.786  20.175  0.00  0.00     0.036 H 
ATOM     79  H39 non d ame     -32.088  14.878  20.572  0.00  0.00     0.036 H 
ATOM     80  N5  non d ame     -29.405  16.358  20.487  0.00  0.00    -0.049 N 
ATOM     81  H40 non d ame     -30.120  15.128  18.899  0.00  0.00     0.075 H 
ATOM     82  H41 non d ame     -31.350  16.368  19.616  0.00  0.00     0.075 H 
ATOM     83  C28 non d ame     -29.546  15.920  22.034  0.00  0.00     0.193 C 
ATOM     84  H42 non d ame     -28.547  15.975  20.121  0.00  0.00     0.280 HD
ATOM     85  H43 non d ame     -29.587  17.349  20.415  0.00  0.00     0.280 HD
ATOM     86  H44 non d ame     -29.958  16.612  22.770  0.00  0.00     0.129 H 
ATOM     87  H37 non d ame     -31.084  15.439  22.817  0.00  0.00     0.046 H 
BRANCH  83  88
ATOM     88  O6  non d ame     -28.275  15.524  22.552  0.00  0.00    -0.369 OA
ATOM     89  H45 non d ame     -28.366  15.288  23.479  0.00  0.00     0.212 HD
ENDBRANCH  83  88
ENDBRANCH  72  75
ENDBRANCH  47  72
ENDBRANCH  45  47
ENDBRANCH   1  43
BRANCH   1  90
ATOM     90  C16 non d ame     -32.038   9.183  22.663  0.00  0.00    -0.035 C 
ATOM     91  H21 non d ame     -33.116   9.272  22.540  0.00  0.00     0.037 H 
ATOM     92  H22 non d ame     -31.375   9.927  22.222  0.00  0.00     0.037 H 
BRANCH  90  93
ATOM     93  C17 non d ame     -31.636   7.808  22.041  0.00  0.00    -0.059 C 
ATOM     94  H23 non d ame     -31.053   8.011  21.142  0.00  0.00     0.038 H 
BRANCH  93  95
ATOM     95  C18 non d ame     -30.745   6.962  23.005  0.00  0.00    -0.073 C 
ATOM     96  H24 non d ame     -31.041   5.914  22.949  0.00  0.00     0.028 H 
ATOM     97  H25 non d ame     -29.700   7.058  22.712  0.00  0.00     0.028 H 
ATOM     98  H26 non d ame     -30.871   7.322  24.026  0.00  0.00     0.028 H 
ENDBRANCH  93  95
BRANCH  93  99
ATOM     99  C19 non d ame     -32.876   7.019  21.611  0.00  0.00    -0.073 C 
ATOM    100  H27 non d ame     -33.645   7.105  22.380  0.00  0.00     0.028 H 
ATOM    101  H28 non d ame     -33.255   7.419  20.671  0.00  0.00     0.028 H 
ATOM    102  H29 non d ame     -32.611   5.970  21.479  0.00  0.00     0.028 H 
ENDBRANCH  93  99
ENDBRANCH  90  93
ENDBRANCH   1  90
TORSDOF 26
ENDMDL
MODEL 11
REMARK VINA RESULT:      -6.7      2.494      5.341
REMARK  26 active torsions:
REMARK  status: ('A' for Active; 'I' for Inactive)
REMARK    1  A    between atoms: C2_2  and  C3_3 
REMARK    2  A    between atoms: C4_6  and  C5_7 
REMARK       I    between atoms: C5_7  and  N2_9 
REMARK    3  A    between atoms: N2_9  and  C6_10 
REMARK    4  A    between atoms: C6_10  and  C7_11 
REMARK    5  A    between atoms: C6_10  and  C8_13 
REMARK       I    between atoms: C7_11  and  N3_14 
REMARK    6  A    between atoms: N3_14  and  C9_15 
REMARK    7  A    between atoms: C9_15  and  C10_16 
REMARK    8  A    between atoms: C9_15  and  C11_18 
REMARK       I    between atoms: C10_16  and  N4_21 
REMARK    9  A    between atoms: C11_18  and  C12_19 
REMARK   10  A    between atoms: C11_18  and  C13_20 
REMARK   11  A    between atoms: N4_21  and  C14_22 
REMARK   12  A    between atoms: C14_22  and  C15_23 
REMARK   13  A    between atoms: C14_22  and  C16_25 
REMARK       I    between atoms: C15_23  and  N6_40 
REMARK   14  A    between atoms: C16_25  and  C17_26 
REMARK   15  A    between atoms: C17_26  and  C18_27 
REMARK   16  A    between atoms: C17_26  and  C19_28 
REMARK   17  A    between atoms: C20_29  and  C21_30 
REMARK   18  A    between atoms: C20_29  and  C24_33 
REMARK   19  A    between atoms: C20_29  and  N6_40 
REMARK   20  A    between atoms: C21_30  and  C22_31 
REMARK   21  A    between atoms: C22_31  and  C23_32 
REMARK   22  A    between atoms: C23_32  and  O8_43 
REMARK   23  A    between atoms: C24_33  and  C25_34 
REMARK   24  A    between atoms: C28_38  and  O6_39 
REMARK   25  A    between atoms: C29_42  and  O8_43 
REMARK   26  A    between atoms: C29_42  and  C35_49 
ROOT
ATOM      1  C14 non d ame     -32.919   8.465  25.388  0.00  0.00     0.089 C 
ATOM      2  H20 non d ame     -31.865   8.186  25.394  0.00  0.00     0.087 H 
ENDROOT
BRANCH   1   3
ATOM      3  N4  non d ame     -33.576   7.719  26.451  0.00  0.00    -0.346 N 
ATOM      4  C10 non d ame     -32.780   6.798  27.339  0.00  0.00     0.241 C 
ATOM      5  O4  non d ame     -31.611   6.671  27.180  0.00  0.00    -0.271 OA
ATOM      6  H19 non d ame     -34.572   7.838  26.568  0.00  0.00     0.163 HD
BRANCH   4   7
ATOM      7  C9  non d ame     -33.475   6.036  28.437  0.00  0.00     0.092 C 
ATOM      8  H11 non d ame     -32.977   6.237  29.385  0.00  0.00     0.088 H 
BRANCH   7   9
ATOM      9  N3  non d ame     -34.856   6.512  28.564  0.00  0.00    -0.346 N 
ATOM     10  C7  non d ame     -35.457   6.640  29.869  0.00  0.00     0.240 C 
ATOM     11  O3  non d ame     -34.844   6.364  30.827  0.00  0.00    -0.271 OA
ATOM     12  H10 non d ame     -35.397   6.753  27.746  0.00  0.00     0.163 HD
BRANCH  10  13
ATOM     13  C6  non d ame     -36.927   7.145  29.998  0.00  0.00     0.086 C 
ATOM     14  H6  non d ame     -37.150   7.548  30.986  0.00  0.00     0.086 H 
BRANCH  13  15
ATOM     15  N2  non d ame     -37.140   8.226  29.051  0.00  0.00    -0.343 N 
ATOM     16  C5  non d ame     -37.242   9.603  29.538  0.00  0.00     0.273 C 
ATOM     17  O2  non d ame     -37.155   9.831  30.695  0.00  0.00    -0.266 OA
ATOM     18  H5  non d ame     -37.217   8.023  28.064  0.00  0.00     0.163 HD
BRANCH  16  19
ATOM     19  C4  non d ame     -37.466  10.756  28.547  0.00  0.00     0.154 A 
ATOM     20  C1  non d ame     -36.547  11.243  27.565  0.00  0.00    -0.017 A 
ATOM     21  C2  non d ame     -37.229  12.300  26.922  0.00  0.00     0.077 A 
ATOM     22  H1  non d ame     -35.541  10.884  27.351  0.00  0.00     0.091 H 
ATOM     23  O1  non d ame     -38.401  12.399  27.476  0.00  0.00    -0.218 OA
ATOM     24  N1  non d ame     -38.563  11.509  28.428  0.00  0.00    -0.123 NA
BRANCH  21  25
ATOM     25  C3  non d ame     -36.691  13.162  25.788  0.00  0.00    -0.029 C 
ATOM     26  H2  non d ame     -35.827  13.726  26.138  0.00  0.00     0.036 H 
ATOM     27  H3  non d ame     -36.394  12.524  24.955  0.00  0.00     0.036 H 
ATOM     28  H4  non d ame     -37.466  13.853  25.456  0.00  0.00     0.036 H 
ENDBRANCH  21  25
ENDBRANCH  16  19
ENDBRANCH  13  15
BRANCH  13  29
ATOM     29  C8  non d ame     -37.878   6.011  29.710  0.00  0.00    -0.049 C 
ATOM     30  H7  non d ame     -38.256   5.606  30.648  0.00  0.00     0.030 H 
ATOM     31  H8  non d ame     -38.711   6.378  29.111  0.00  0.00     0.030 H 
ATOM     32  H9  non d ame     -37.353   5.227  29.162  0.00  0.00     0.030 H 
ENDBRANCH  13  29
ENDBRANCH  10  13
ENDBRANCH   7   9
BRANCH   7  33
ATOM     33  C11 non d ame     -33.484   4.518  28.089  0.00  0.00    -0.033 C 
ATOM     34  H12 non d ame     -32.806   4.370  27.249  0.00  0.00     0.042 H 
BRANCH  33  35
ATOM     35  C12 non d ame     -32.950   3.660  29.279  0.00  0.00    -0.071 C 
ATOM     36  H13 non d ame     -32.410   2.796  28.890  0.00  0.00     0.028 H 
ATOM     37  H14 non d ame     -32.279   4.263  29.890  0.00  0.00     0.028 H 
ATOM     38  H15 non d ame     -33.788   3.319  29.886  0.00  0.00     0.028 H 
ENDBRANCH  33  35
BRANCH  33  39
ATOM     39  C13 non d ame     -34.908   4.053  27.650  0.00  0.00    -0.071 C 
ATOM     40  H16 non d ame     -35.141   4.470  26.669  0.00  0.00     0.028 H 
ATOM     41  H17 non d ame     -34.936   2.964  27.598  0.00  0.00     0.028 H 
ATOM     42  H18 non d ame     -35.644   4.400  28.375  0.00  0.00     0.028 H 
ENDBRANCH  33  39
ENDBRANCH   7  33
ENDBRANCH   4   7
ENDBRANCH   1   3
BRANCH   1  43
ATOM     43  C15 non d ame     -33.124   9.985  25.651  0.00  0.00     0.240 C 
ATOM     44  O5  non d ame     -34.023  10.560  25.128  0.00  0.00    -0.271 OA
ATOM     45  N6  non d ame     -32.206  10.723  26.565  0.00  0.00    -0.355 N 
ATOM     46  H46 non d ame     -31.441  10.244  27.020  0.00  0.00     0.162 HD
BRANCH  45  47
ATOM     47  C20 non d ame     -32.415  12.167  26.805  0.00  0.00     0.013 C 
ATOM     48  H30 non d ame     -32.991  12.565  25.970  0.00  0.00     0.072 H 
BRANCH  47  49
ATOM     49  C21 non d ame     -31.074  12.860  26.886  0.00  0.00    -0.038 C 
ATOM     50  H31 non d ame     -30.702  12.665  27.892  0.00  0.00     0.036 H 
ATOM     51  H32 non d ame     -30.511  12.513  26.020  0.00  0.00     0.036 H 
BRANCH  49  52
ATOM     52  C22 non d ame     -31.183  14.394  26.749  0.00  0.00     0.018 C 
ATOM     53  H33 non d ame     -32.187  14.650  27.087  0.00  0.00     0.048 H 
ATOM     54  H34 non d ame     -30.313  14.799  27.268  0.00  0.00     0.048 H 
BRANCH  52  55
ATOM     55  C23 non d ame     -31.081  14.901  25.284  0.00  0.00     0.259 C 
ATOM     56  O7  non d ame     -30.688  14.181  24.423  0.00  0.00    -0.265 OA
BRANCH  55  57
ATOM     57  O8  non d ame     -31.451  16.241  24.982  0.00  0.00    -0.317 OA
BRANCH  57  58
ATOM     58  C29 non d ame     -32.821  16.545  25.261  0.00  0.00     0.052 C 
ATOM     59  H47 non d ame     -33.263  16.818  24.303  0.00  0.00     0.082 H 
ATOM     60  H48 non d ame     -33.206  15.691  25.816  0.00  0.00     0.082 H 
BRANCH  58  61
ATOM     61  C35 non d ame     -32.855  17.789  26.190  0.00  0.00    -0.034 A 
ATOM     62  C30 non d ame     -33.173  19.039  25.667  0.00  0.00    -0.075 A 
ATOM     63  C31 non d ame     -33.204  20.156  26.501  0.00  0.00    -0.082 A 
ATOM     64  H49 non d ame     -33.396  19.144  24.606  0.00  0.00     0.084 H 
ATOM     65  C32 non d ame     -32.914  20.020  27.862  0.00  0.00    -0.083 A 
ATOM     66  H50 non d ame     -33.455  21.134  26.089  0.00  0.00     0.083 H 
ATOM     67  C33 non d ame     -32.595  18.771  28.377  0.00  0.00    -0.082 A 
ATOM     68  H51 non d ame     -32.937  20.888  28.521  0.00  0.00     0.083 H 
ATOM     69  C34 non d ame     -32.564  17.652  27.548  0.00  0.00    -0.075 A 
ATOM     70  H52 non d ame     -32.367  18.668  29.439  0.00  0.00     0.083 H 
ATOM     71  H53 non d ame     -32.314  16.674  27.960  0.00  0.00     0.084 H 
ENDBRANCH  58  61
ENDBRANCH  57  58
ENDBRANCH  55  57
ENDBRANCH  52  55
ENDBRANCH  49  52
ENDBRANCH  47  49
BRANCH  47  72
ATOM     72  C24 non d ame     -33.174  12.367  28.115  0.00  0.00    -0.039 C 
ATOM     73  H35 non d ame     -33.022  13.415  28.380  0.00  0.00     0.036 H 
ATOM     74  H36 non d ame     -34.180  11.994  27.928  0.00  0.00     0.036 H 
BRANCH  72  75
ATOM     75  C25 non d ame     -32.554  11.485  29.300  0.00  0.00    -0.001 C 
ATOM     76  C26 non d ame     -33.484  10.153  29.551  0.00  0.00    -0.035 C 
ATOM     77  C27 non d ame     -33.786  10.072  30.869  0.00  0.00     0.085 C 
ATOM     78  H38 non d ame     -34.456  10.279  29.074  0.00  0.00     0.036 H 
ATOM     79  H39 non d ame     -32.901   9.249  29.367  0.00  0.00     0.036 H 
ATOM     80  N5  non d ame     -33.424  11.402  31.486  0.00  0.00    -0.049 N 
ATOM     81  H40 non d ame     -34.868   9.943  30.912  0.00  0.00     0.075 H 
ATOM     82  H41 non d ame     -33.129   9.303  31.271  0.00  0.00     0.075 H 
ATOM     83  C28 non d ame     -32.497  12.157  30.401  0.00  0.00     0.193 C 
ATOM     84  H42 non d ame     -34.287  11.916  31.585  0.00  0.00     0.280 HD
ATOM     85  H43 non d ame     -32.863  11.194  32.300  0.00  0.00     0.280 HD
ATOM     86  H44 non d ame     -31.417  12.215  30.542  0.00  0.00     0.129 H 
ATOM     87  H37 non d ame     -31.483  11.327  29.180  0.00  0.00     0.046 H 
BRANCH  83  88
ATOM     88  O6  non d ame     -32.934  13.507  30.234  0.00  0.00    -0.369 OA
ATOM     89  H45 non d ame     -32.788  13.780  29.325  0.00  0.00     0.212 HD
ENDBRANCH  83  88
ENDBRANCH  72  75
ENDBRANCH  47  72
ENDBRANCH  45  47
ENDBRANCH   1  43
BRANCH   1  90
ATOM     90  C16 non d ame     -33.545   8.089  24.055  0.00  0.00    -0.035 C 
ATOM     91  H21 non d ame     -34.189   7.237  24.269  0.00  0.00     0.037 H 
ATOM     92  H22 non d ame     -33.973   9.013  23.666  0.00  0.00     0.037 H 
BRANCH  90  93
ATOM     93  C17 non d ame     -32.509   7.600  22.993  0.00  0.00    -0.059 C 
ATOM     94  H23 non d ame     -33.064   7.127  22.184  0.00  0.00     0.038 H 
BRANCH  93  95
ATOM     95  C18 non d ame     -31.691   8.782  22.381  0.00  0.00    -0.073 C 
ATOM     96  H24 non d ame     -31.320   8.497  21.396  0.00  0.00     0.028 H 
ATOM     97  H25 non d ame     -32.333   9.658  22.286  0.00  0.00     0.028 H 
ATOM     98  H26 non d ame     -30.849   9.017  23.032  0.00  0.00     0.028 H 
ENDBRANCH  93  95
BRANCH  93  99
ATOM     99  C19 non d ame     -31.575   6.542  23.586  0.00  0.00    -0.073 C 
ATOM    100  H27 non d ame     -30.972   6.991  24.376  0.00  0.00     0.028 H 
ATOM    101  H28 non d ame     -32.167   5.726  24.002  0.00  0.00     0.028 H 
ATOM    102  H29 non d ame     -30.921   6.155  22.805  0.00  0.00     0.028 H 
ENDBRANCH  93  99
ENDBRANCH  90  93
ENDBRANCH   1  90
TORSDOF 26
ENDMDL
MODEL 12
REMARK VINA RESULT:      -6.7      1.712      3.037
REMARK  26 active torsions:
REMARK  status: ('A' for Active; 'I' for Inactive)
REMARK    1  A    between atoms: C2_2  and  C3_3 
REMARK    2  A    between atoms: C4_6  and  C5_7 
REMARK       I    between atoms: C5_7  and  N2_9 
REMARK    3  A    between atoms: N2_9  and  C6_10 
REMARK    4  A    between atoms: C6_10  and  C7_11 
REMARK    5  A    between atoms: C6_10  and  C8_13 
REMARK       I    between atoms: C7_11  and  N3_14 
REMARK    6  A    between atoms: N3_14  and  C9_15 
REMARK    7  A    between atoms: C9_15  and  C10_16 
REMARK    8  A    between atoms: C9_15  and  C11_18 
REMARK       I    between atoms: C10_16  and  N4_21 
REMARK    9  A    between atoms: C11_18  and  C12_19 
REMARK   10  A    between atoms: C11_18  and  C13_20 
REMARK   11  A    between atoms: N4_21  and  C14_22 
REMARK   12  A    between atoms: C14_22  and  C15_23 
REMARK   13  A    between atoms: C14_22  and  C16_25 
REMARK       I    between atoms: C15_23  and  N6_40 
REMARK   14  A    between atoms: C16_25  and  C17_26 
REMARK   15  A    between atoms: C17_26  and  C18_27 
REMARK   16  A    between atoms: C17_26  and  C19_28 
REMARK   17  A    between atoms: C20_29  and  C21_30 
REMARK   18  A    between atoms: C20_29  and  C24_33 
REMARK   19  A    between atoms: C20_29  and  N6_40 
REMARK   20  A    between atoms: C21_30  and  C22_31 
REMARK   21  A    between atoms: C22_31  and  C23_32 
REMARK   22  A    between atoms: C23_32  and  O8_43 
REMARK   23  A    between atoms: C24_33  and  C25_34 
REMARK   24  A    between atoms: C28_38  and  O6_39 
REMARK   25  A    between atoms: C29_42  and  O8_43 
REMARK   26  A    between atoms: C29_42  and  C35_49 
ROOT
ATOM      1  C14 non d ame     -32.888  10.679  25.480  0.00  0.00     0.089 C 
ATOM      2  H20 non d ame     -33.755  10.676  24.819  0.00  0.00     0.087 H 
ENDROOT
BRANCH   1   3
ATOM      3  N4  non d ame     -32.257   9.371  25.381  0.00  0.00    -0.346 N 
ATOM      4  C10 non d ame     -33.045   8.180  24.900  0.00  0.00     0.241 C 
ATOM      5  O4  non d ame     -34.187   8.297  24.599  0.00  0.00    -0.271 OA
ATOM      6  H19 non d ame     -31.285   9.292  25.645  0.00  0.00     0.163 HD
BRANCH   4   7
ATOM      7  C9  non d ame     -32.375   6.834  24.800  0.00  0.00     0.092 C 
ATOM      8  H11 non d ame     -31.343   6.921  25.139  0.00  0.00     0.088 H 
BRANCH   7   9
ATOM      9  N3  non d ame     -33.047   5.886  25.695  0.00  0.00    -0.346 N 
ATOM     10  C7  non d ame     -32.623   5.768  27.068  0.00  0.00     0.240 C 
ATOM     11  O3  non d ame     -31.744   6.427  27.470  0.00  0.00    -0.271 OA
ATOM     12  H10 non d ame     -33.806   5.309  25.361  0.00  0.00     0.163 HD
BRANCH  10  13
ATOM     13  C6  non d ame     -33.339   4.755  28.014  0.00  0.00     0.086 C 
ATOM     14  H6  non d ame     -32.656   4.018  28.436  0.00  0.00     0.086 H 
BRANCH  13  15
ATOM     15  N2  non d ame     -33.912   5.480  29.135  0.00  0.00    -0.343 N 
ATOM     16  C5  non d ame     -34.765   6.643  28.882  0.00  0.00     0.273 C 
ATOM     17  O2  non d ame     -34.982   6.989  27.773  0.00  0.00    -0.266 OA
ATOM     18  H5  non d ame     -33.719   5.180  30.080  0.00  0.00     0.163 HD
BRANCH  16  19
ATOM     19  C4  non d ame     -35.378   7.419  30.059  0.00  0.00     0.154 A 
ATOM     20  C1  non d ame     -34.719   8.359  30.912  0.00  0.00    -0.017 A 
ATOM     21  C2  non d ame     -35.712   8.782  31.823  0.00  0.00     0.077 A 
ATOM     22  H1  non d ame     -33.679   8.684  30.876  0.00  0.00     0.091 H 
ATOM     23  O1  non d ame     -36.810   8.155  31.518  0.00  0.00    -0.218 OA
ATOM     24  N1  non d ame     -36.640   7.353  30.492  0.00  0.00    -0.123 NA
BRANCH  21  25
ATOM     25  C3  non d ame     -35.532   9.789  32.951  0.00  0.00    -0.029 C 
ATOM     26  H2  non d ame     -35.894  10.764  32.629  0.00  0.00     0.036 H 
ATOM     27  H3  non d ame     -36.098   9.462  33.824  0.00  0.00     0.036 H 
ATOM     28  H4  non d ame     -34.476   9.861  33.209  0.00  0.00     0.036 H 
ENDBRANCH  21  25
ENDBRANCH  16  19
ENDBRANCH  13  15
BRANCH  13  29
ATOM     29  C8  non d ame     -34.424   4.035  27.256  0.00  0.00    -0.049 C 
ATOM     30  H7  non d ame     -35.314   3.956  27.879  0.00  0.00     0.030 H 
ATOM     31  H8  non d ame     -34.664   4.590  26.349  0.00  0.00     0.030 H 
ATOM     32  H9  non d ame     -34.078   3.035  26.989  0.00  0.00     0.030 H 
ENDBRANCH  13  29
ENDBRANCH  10  13
ENDBRANCH   7   9
BRANCH   7  33
ATOM     33  C11 non d ame     -32.470   6.316  23.335  0.00  0.00    -0.033 C 
ATOM     34  H12 non d ame     -33.202   6.933  22.814  0.00  0.00     0.042 H 
BRANCH  33  35
ATOM     35  C12 non d ame     -31.109   6.474  22.588  0.00  0.00    -0.071 C 
ATOM     36  H13 non d ame     -30.983   7.511  22.277  0.00  0.00     0.028 H 
ATOM     37  H14 non d ame     -30.294   6.193  23.254  0.00  0.00     0.028 H 
ATOM     38  H15 non d ame     -31.100   5.828  21.709  0.00  0.00     0.028 H 
ENDBRANCH  33  35
BRANCH  33  39
ATOM     39  C13 non d ame     -32.970   4.837  23.296  0.00  0.00    -0.071 C 
ATOM     40  H16 non d ame     -32.950   4.473  22.268  0.00  0.00     0.028 H 
ATOM     41  H17 non d ame     -32.321   4.217  23.915  0.00  0.00     0.028 H 
ATOM     42  H18 non d ame     -33.990   4.788  23.678  0.00  0.00     0.028 H 
ENDBRANCH  33  39
ENDBRANCH   7  33
ENDBRANCH   4   7
ENDBRANCH   1   3
BRANCH   1  43
ATOM     43  C15 non d ame     -31.847  11.763  25.076  0.00  0.00     0.240 C 
ATOM     44  O5  non d ame     -30.727  11.446  24.836  0.00  0.00    -0.271 OA
ATOM     45  N6  non d ame     -32.248  13.195  24.978  0.00  0.00    -0.355 N 
ATOM     46  H46 non d ame     -33.199  13.476  25.175  0.00  0.00     0.162 HD
BRANCH  45  47
ATOM     47  C20 non d ame     -31.247  14.212  24.592  0.00  0.00     0.013 C 
ATOM     48  H30 non d ame     -30.274  13.722  24.542  0.00  0.00     0.072 H 
BRANCH  47  49
ATOM     49  C21 non d ame     -31.221  15.309  25.633  0.00  0.00    -0.038 C 
ATOM     50  H31 non d ame     -31.315  14.804  26.595  0.00  0.00     0.036 H 
ATOM     51  H32 non d ame     -30.333  15.902  25.413  0.00  0.00     0.036 H 
BRANCH  49  52
ATOM     52  C22 non d ame     -32.426  16.268  25.522  0.00  0.00     0.018 C 
ATOM     53  H33 non d ame     -32.030  17.263  25.722  0.00  0.00     0.048 H 
ATOM     54  H34 non d ame     -32.890  16.048  24.561  0.00  0.00     0.048 H 
BRANCH  52  55
ATOM     55  C23 non d ame     -33.523  16.021  26.594  0.00  0.00     0.259 C 
ATOM     56  O7  non d ame     -34.367  16.834  26.792  0.00  0.00    -0.265 OA
BRANCH  55  57
ATOM     57  O8  non d ame     -33.500  14.815  27.350  0.00  0.00    -0.317 OA
BRANCH  57  58
ATOM     58  C29 non d ame     -33.305  15.011  28.753  0.00  0.00     0.052 C 
ATOM     59  H47 non d ame     -32.735  15.935  28.846  0.00  0.00     0.082 H 
ATOM     60  H48 non d ame     -34.294  14.932  29.203  0.00  0.00     0.082 H 
BRANCH  58  61
ATOM     61  C35 non d ame     -32.433  13.841  29.282  0.00  0.00    -0.034 A 
ATOM     62  C30 non d ame     -31.114  13.709  28.858  0.00  0.00    -0.075 A 
ATOM     63  C31 non d ame     -30.331  12.658  29.333  0.00  0.00    -0.082 A 
ATOM     64  H49 non d ame     -30.695  14.427  28.154  0.00  0.00     0.084 H 
ATOM     65  C32 non d ame     -30.871  11.736  30.234  0.00  0.00    -0.083 A 
ATOM     66  H50 non d ame     -29.296  12.558  29.001  0.00  0.00     0.083 H 
ATOM     67  C33 non d ame     -32.188  11.870  30.650  0.00  0.00    -0.082 A 
ATOM     68  H51 non d ame     -30.264  10.911  30.610  0.00  0.00     0.083 H 
ATOM     69  C34 non d ame     -32.974  12.919  30.180  0.00  0.00    -0.075 A 
ATOM     70  H52 non d ame     -32.608  11.147  31.351  0.00  0.00     0.083 H 
ATOM     71  H53 non d ame     -34.007  13.019  30.513  0.00  0.00     0.084 H 
ENDBRANCH  58  61
ENDBRANCH  57  58
ENDBRANCH  55  57
ENDBRANCH  52  55
ENDBRANCH  49  52
ENDBRANCH  47  49
BRANCH  47  72
ATOM     72  C24 non d ame     -31.612  14.806  23.233  0.00  0.00    -0.039 C 
ATOM     73  H35 non d ame     -32.519  14.285  22.924  0.00  0.00     0.036 H 
ATOM     74  H36 non d ame     -31.628  15.886  23.384  0.00  0.00     0.036 H 
BRANCH  72  75
ATOM     75  C25 non d ame     -30.491  14.499  22.131  0.00  0.00    -0.001 C 
ATOM     76  C26 non d ame     -29.099  14.023  22.866  0.00  0.00    -0.035 C 
ATOM     77  C27 non d ame     -28.075  14.770  22.389  0.00  0.00     0.085 C 
ATOM     78  H38 non d ame     -29.128  14.279  23.925  0.00  0.00     0.036 H 
ATOM     79  H39 non d ame     -28.840  13.010  22.558  0.00  0.00     0.036 H 
ATOM     80  N5  non d ame     -28.687  15.930  21.639  0.00  0.00    -0.049 N 
ATOM     81  H40 non d ame     -27.556  15.149  23.269  0.00  0.00     0.075 H 
ATOM     82  H41 non d ame     -27.551  14.128  21.682  0.00  0.00     0.075 H 
ATOM     83  C28 non d ame     -30.239  15.545  21.417  0.00  0.00     0.193 C 
ATOM     84  H42 non d ame     -28.639  16.726  22.257  0.00  0.00     0.280 HD
ATOM     85  H43 non d ame     -28.230  15.960  20.739  0.00  0.00     0.280 HD
ATOM     86  H44 non d ame     -30.591  15.208  20.442  0.00  0.00     0.129 H 
ATOM     87  H37 non d ame     -30.866  13.870  21.325  0.00  0.00     0.046 H 
BRANCH  83  88
ATOM     88  O6  non d ame     -31.076  16.650  21.765  0.00  0.00    -0.369 OA
ATOM     89  H45 non d ame     -31.932  16.548  21.343  0.00  0.00     0.212 HD
ENDBRANCH  83  88
ENDBRANCH  72  75
ENDBRANCH  47  72
ENDBRANCH  45  47
ENDBRANCH   1  43
BRANCH   1  90
ATOM     90  C16 non d ame     -33.335  10.909  26.914  0.00  0.00    -0.035 C 
ATOM     91  H21 non d ame     -32.993  10.035  27.467  0.00  0.00     0.037 H 
ATOM     92  H22 non d ame     -32.963  11.900  27.176  0.00  0.00     0.037 H 
BRANCH  90  93
ATOM     93  C17 non d ame     -34.886  10.959  27.086  0.00  0.00    -0.059 C 
ATOM     94  H23 non d ame     -35.311  10.154  26.487  0.00  0.00     0.038 H 
BRANCH  93  95
ATOM     95  C18 non d ame     -35.323  10.731  28.569  0.00  0.00    -0.073 C 
ATOM     96  H24 non d ame     -35.228  11.664  29.124  0.00  0.00     0.028 H 
ATOM     97  H25 non d ame     -36.361  10.398  28.595  0.00  0.00     0.028 H 
ATOM     98  H26 non d ame     -34.687   9.971  29.022  0.00  0.00     0.028 H 
ENDBRANCH  93  95
BRANCH  93  99
ATOM     99  C19 non d ame     -35.454  12.275  26.548  0.00  0.00    -0.073 C 
ATOM    100  H27 non d ame     -36.404  12.083  26.048  0.00  0.00     0.028 H 
ATOM    101  H28 non d ame     -35.614  12.968  27.375  0.00  0.00     0.028 H 
ATOM    102  H29 non d ame     -34.751  12.712  25.839  0.00  0.00     0.028 H 
ENDBRANCH  93  99
ENDBRANCH  90  93
ENDBRANCH   1  90
TORSDOF 26
ENDMDL
MODEL 13
REMARK VINA RESULT:      -6.7      3.152      9.012
REMARK  26 active torsions:
REMARK  status: ('A' for Active; 'I' for Inactive)
REMARK    1  A    between atoms: C2_2  and  C3_3 
REMARK    2  A    between atoms: C4_6  and  C5_7 
REMARK       I    between atoms: C5_7  and  N2_9 
REMARK    3  A    between atoms: N2_9  and  C6_10 
REMARK    4  A    between atoms: C6_10  and  C7_11 
REMARK    5  A    between atoms: C6_10  and  C8_13 
REMARK       I    between atoms: C7_11  and  N3_14 
REMARK    6  A    between atoms: N3_14  and  C9_15 
REMARK    7  A    between atoms: C9_15  and  C10_16 
REMARK    8  A    between atoms: C9_15  and  C11_18 
REMARK       I    between atoms: C10_16  and  N4_21 
REMARK    9  A    between atoms: C11_18  and  C12_19 
REMARK   10  A    between atoms: C11_18  and  C13_20 
REMARK   11  A    between atoms: N4_21  and  C14_22 
REMARK   12  A    between atoms: C14_22  and  C15_23 
REMARK   13  A    between atoms: C14_22  and  C16_25 
REMARK       I    between atoms: C15_23  and  N6_40 
REMARK   14  A    between atoms: C16_25  and  C17_26 
REMARK   15  A    between atoms: C17_26  and  C18_27 
REMARK   16  A    between atoms: C17_26  and  C19_28 
REMARK   17  A    between atoms: C20_29  and  C21_30 
REMARK   18  A    between atoms: C20_29  and  C24_33 
REMARK   19  A    between atoms: C20_29  and  N6_40 
REMARK   20  A    between atoms: C21_30  and  C22_31 
REMARK   21  A    between atoms: C22_31  and  C23_32 
REMARK   22  A    between atoms: C23_32  and  O8_43 
REMARK   23  A    between atoms: C24_33  and  C25_34 
REMARK   24  A    between atoms: C28_38  and  O6_39 
REMARK   25  A    between atoms: C29_42  and  O8_43 
REMARK   26  A    between atoms: C29_42  and  C35_49 
ROOT
ATOM      1  C14 non d ame     -36.994  10.941  27.130  0.00  0.00     0.089 C 
ATOM      2  H20 non d ame     -37.728  10.140  27.228  0.00  0.00     0.087 H 
ENDROOT
BRANCH   1   3
ATOM      3  N4  non d ame     -36.267  11.026  28.388  0.00  0.00    -0.346 N 
ATOM      4  C10 non d ame     -35.850   9.771  29.112  0.00  0.00     0.241 C 
ATOM      5  O4  non d ame     -36.112   8.704  28.665  0.00  0.00    -0.271 OA
ATOM      6  H19 non d ame     -36.056  11.943  28.753  0.00  0.00     0.163 HD
BRANCH   4   7
ATOM      7  C9  non d ame     -35.093   9.877  30.410  0.00  0.00     0.092 C 
ATOM      8  H11 non d ame     -34.477   8.988  30.540  0.00  0.00     0.088 H 
BRANCH   7   9
ATOM      9  N3  non d ame     -34.188  11.029  30.357  0.00  0.00    -0.346 N 
ATOM     10  C7  non d ame     -32.957  10.943  29.611  0.00  0.00     0.240 C 
ATOM     11  O3  non d ame     -32.679   9.955  29.048  0.00  0.00    -0.271 OA
ATOM     12  H10 non d ame     -34.414  11.887  30.838  0.00  0.00     0.163 HD
BRANCH  10  13
ATOM     13  C6  non d ame     -31.996  12.171  29.559  0.00  0.00     0.086 C 
ATOM     14  H6  non d ame     -31.310  12.135  28.713  0.00  0.00     0.086 H 
BRANCH  13  15
ATOM     15  N2  non d ame     -32.785  13.382  29.403  0.00  0.00    -0.343 N 
ATOM     16  C5  non d ame     -32.269  14.478  28.580  0.00  0.00     0.273 C 
ATOM     17  O2  non d ame     -31.217  14.378  28.050  0.00  0.00    -0.266 OA
ATOM     18  H5  non d ame     -33.681  13.460  29.861  0.00  0.00     0.163 HD
BRANCH  16  19
ATOM     19  C4  non d ame     -33.093  15.763  28.405  0.00  0.00     0.154 A 
ATOM     20  C1  non d ame     -34.441  15.869  27.937  0.00  0.00    -0.017 A 
ATOM     21  C2  non d ame     -34.726  17.252  27.962  0.00  0.00     0.077 A 
ATOM     22  H1  non d ame     -35.109  15.066  27.626  0.00  0.00     0.091 H 
ATOM     23  O1  non d ame     -33.662  17.860  28.397  0.00  0.00    -0.218 OA
ATOM     24  N1  non d ame     -32.695  17.012  28.662  0.00  0.00    -0.123 NA
BRANCH  21  25
ATOM     25  C3  non d ame     -36.039  17.909  27.557  0.00  0.00    -0.029 C 
ATOM     26  H2  non d ame     -35.900  18.988  27.490  0.00  0.00     0.036 H 
ATOM     27  H3  non d ame     -36.354  17.525  26.586  0.00  0.00     0.036 H 
ATOM     28  H4  non d ame     -36.803  17.687  28.301  0.00  0.00     0.036 H 
ENDBRANCH  21  25
ENDBRANCH  16  19
ENDBRANCH  13  15
BRANCH  13  29
ATOM     29  C8  non d ame     -31.193  12.238  30.834  0.00  0.00    -0.049 C 
ATOM     30  H7  non d ame     -31.532  13.083  31.433  0.00  0.00     0.030 H 
ATOM     31  H8  non d ame     -31.330  11.316  31.398  0.00  0.00     0.030 H 
ATOM     32  H9  non d ame     -30.137  12.364  30.592  0.00  0.00     0.030 H 
ENDBRANCH  13  29
ENDBRANCH  10  13
ENDBRANCH   7   9
BRANCH   7  33
ATOM     33  C11 non d ame     -36.101  10.067  31.583  0.00  0.00    -0.033 C 
ATOM     34  H12 non d ame     -36.264  11.138  31.706  0.00  0.00     0.042 H 
BRANCH  33  35
ATOM     35  C12 non d ame     -37.481   9.417  31.256  0.00  0.00    -0.071 C 
ATOM     36  H13 non d ame     -38.269   9.952  31.786  0.00  0.00     0.028 H 
ATOM     37  H14 non d ame     -37.663   9.470  30.183  0.00  0.00     0.028 H 
ATOM     38  H15 non d ame     -37.476   8.374  31.573  0.00  0.00     0.028 H 
ENDBRANCH  33  35
BRANCH  33  39
ATOM     39  C13 non d ame     -35.514   9.511  32.920  0.00  0.00    -0.071 C 
ATOM     40  H16 non d ame     -36.286   8.954  33.451  0.00  0.00     0.028 H 
ATOM     41  H17 non d ame     -34.673   8.852  32.702  0.00  0.00     0.028 H 
ATOM     42  H18 non d ame     -35.173  10.340  33.540  0.00  0.00     0.028 H 
ENDBRANCH  33  39
ENDBRANCH   7  33
ENDBRANCH   4   7
ENDBRANCH   1   3
BRANCH   1  43
ATOM     43  C15 non d ame     -35.976  10.666  25.986  0.00  0.00     0.240 C 
ATOM     44  O5  non d ame     -35.632  11.554  25.275  0.00  0.00    -0.271 OA
ATOM     45  N6  non d ame     -35.421   9.298  25.784  0.00  0.00    -0.355 N 
ATOM     46  H46 non d ame     -35.702   8.536  26.385  0.00  0.00     0.162 HD
BRANCH  45  47
ATOM     47  C20 non d ame     -34.453   9.053  24.693  0.00  0.00     0.013 C 
ATOM     48  H30 non d ame     -34.674   9.753  23.886  0.00  0.00     0.072 H 
BRANCH  47  49
ATOM     49  C21 non d ame     -34.602   7.632  24.201  0.00  0.00    -0.038 C 
ATOM     50  H31 non d ame     -35.353   7.671  23.411  0.00  0.00     0.036 H 
ATOM     51  H32 non d ame     -33.591   7.290  23.976  0.00  0.00     0.036 H 
BRANCH  49  52
ATOM     52  C22 non d ame     -35.155   6.678  25.282  0.00  0.00     0.018 C 
ATOM     53  H33 non d ame     -35.461   7.316  26.110  0.00  0.00     0.048 H 
ATOM     54  H34 non d ame     -35.889   6.051  24.775  0.00  0.00     0.048 H 
BRANCH  52  55
ATOM     55  C23 non d ame     -34.090   5.706  25.863  0.00  0.00     0.259 C 
ATOM     56  O7  non d ame     -32.973   5.723  25.456  0.00  0.00    -0.265 OA
BRANCH  55  57
ATOM     57  O8  non d ame     -34.468   4.783  26.877  0.00  0.00    -0.317 OA
BRANCH  57  58
ATOM     58  C29 non d ame     -35.857   4.828  27.218  0.00  0.00     0.052 C 
ATOM     59  H47 non d ame     -36.284   5.627  26.612  0.00  0.00     0.082 H 
ATOM     60  H48 non d ame     -36.221   3.807  27.109  0.00  0.00     0.082 H 
BRANCH  58  61
ATOM     61  C35 non d ame     -35.970   5.232  28.713  0.00  0.00    -0.034 A 
ATOM     62  C30 non d ame     -34.819   5.417  29.473  0.00  0.00    -0.075 A 
ATOM     63  C31 non d ame     -34.921   5.778  30.815  0.00  0.00    -0.082 A 
ATOM     64  H49 non d ame     -33.839   5.277  29.018  0.00  0.00     0.084 H 
ATOM     65  C32 non d ame     -36.179   5.954  31.398  0.00  0.00    -0.083 A 
ATOM     66  H50 non d ame     -34.017   5.925  31.408  0.00  0.00     0.083 H 
ATOM     67  C33 non d ame     -37.324   5.765  30.636  0.00  0.00    -0.082 A 
ATOM     68  H51 non d ame     -36.266   6.238  32.447  0.00  0.00     0.083 H 
ATOM     69  C34 non d ame     -37.227   5.405  29.294  0.00  0.00    -0.075 A 
ATOM     70  H52 non d ame     -38.304   5.900  31.095  0.00  0.00     0.083 H 
ATOM     71  H53 non d ame     -38.131   5.260  28.702  0.00  0.00     0.084 H 
ENDBRANCH  58  61
ENDBRANCH  57  58
ENDBRANCH  55  57
ENDBRANCH  52  55
ENDBRANCH  49  52
ENDBRANCH  47  49
BRANCH  47  72
ATOM     72  C24 non d ame     -33.031   9.270  25.206  0.00  0.00    -0.039 C 
ATOM     73  H35 non d ame     -33.144   9.750  26.179  0.00  0.00     0.036 H 
ATOM     74  H36 non d ame     -32.545   8.296  25.133  0.00  0.00     0.036 H 
BRANCH  72  75
ATOM     75  C25 non d ame     -32.210  10.279  24.272  0.00  0.00    -0.001 C 
ATOM     76  C26 non d ame     -31.706   9.501  22.915  0.00  0.00    -0.035 C 
ATOM     77  C27 non d ame     -30.376   9.709  22.761  0.00  0.00     0.085 C 
ATOM     78  H38 non d ame     -31.780   8.423  23.052  0.00  0.00     0.036 H 
ATOM     79  H39 non d ame     -32.141   9.969  22.031  0.00  0.00     0.036 H 
ATOM     80  N5  non d ame     -29.866  10.283  24.061  0.00  0.00    -0.049 N 
ATOM     81  H40 non d ame     -29.942   8.720  22.613  0.00  0.00     0.075 H 
ATOM     82  H41 non d ame     -30.288  10.464  21.981  0.00  0.00     0.075 H 
ATOM     83  C28 non d ame     -31.174  10.745  24.886  0.00  0.00     0.193 C 
ATOM     84  H42 non d ame     -29.426   9.521  24.557  0.00  0.00     0.280 HD
ATOM     85  H43 non d ame     -29.330  11.104  23.819  0.00  0.00     0.280 HD
ATOM     86  H44 non d ame     -31.442  11.800  24.952  0.00  0.00     0.129 H 
ATOM     87  H37 non d ame     -32.727  11.229  24.137  0.00  0.00     0.046 H 
BRANCH  83  88
ATOM     88  O6  non d ame     -31.094  10.285  26.236  0.00  0.00    -0.369 OA
ATOM     89  H45 non d ame     -30.300   9.757  26.348  0.00  0.00     0.212 HD
ENDBRANCH  83  88
ENDBRANCH  72  75
ENDBRANCH  47  72
ENDBRANCH  45  47
ENDBRANCH   1  43
BRANCH   1  90
ATOM     90  C16 non d ame     -37.704  12.261  26.876  0.00  0.00    -0.035 C 
ATOM     91  H21 non d ame     -37.641  12.808  27.816  0.00  0.00     0.037 H 
ATOM     92  H22 non d ame     -37.243  12.668  25.976  0.00  0.00     0.037 H 
BRANCH  90  93
ATOM     93  C17 non d ame     -39.225  12.103  26.560  0.00  0.00    -0.059 C 
ATOM     94  H23 non d ame     -39.717  13.038  26.829  0.00  0.00     0.038 H 
BRANCH  93  95
ATOM     95  C18 non d ame     -39.489  11.847  25.042  0.00  0.00    -0.073 C 
ATOM     96  H24 non d ame     -38.987  10.930  24.735  0.00  0.00     0.028 H 
ATOM     97  H25 non d ame     -40.561  11.747  24.871  0.00  0.00     0.028 H 
ATOM     98  H26 non d ame     -39.104  12.684  24.460  0.00  0.00     0.028 H 
ENDBRANCH  93  95
BRANCH  93  99
ATOM     99  C19 non d ame     -39.850  10.997  27.415  0.00  0.00    -0.073 C 
ATOM    100  H27 non d ame     -39.660  10.029  26.951  0.00  0.00     0.028 H 
ATOM    101  H28 non d ame     -39.408  11.014  28.412  0.00  0.00     0.028 H 
ATOM    102  H29 non d ame     -40.925  11.160  27.492  0.00  0.00     0.028 H 
ENDBRANCH  93  99
ENDBRANCH  90  93
ENDBRANCH   1  90
TORSDOF 26
ENDMDL
MODEL 14
REMARK VINA RESULT:      -6.7      2.404      5.794
REMARK  26 active torsions:
REMARK  status: ('A' for Active; 'I' for Inactive)
REMARK    1  A    between atoms: C2_2  and  C3_3 
REMARK    2  A    between atoms: C4_6  and  C5_7 
REMARK       I    between atoms: C5_7  and  N2_9 
REMARK    3  A    between atoms: N2_9  and  C6_10 
REMARK    4  A    between atoms: C6_10  and  C7_11 
REMARK    5  A    between atoms: C6_10  and  C8_13 
REMARK       I    between atoms: C7_11  and  N3_14 
REMARK    6  A    between atoms: N3_14  and  C9_15 
REMARK    7  A    between atoms: C9_15  and  C10_16 
REMARK    8  A    between atoms: C9_15  and  C11_18 
REMARK       I    between atoms: C10_16  and  N4_21 
REMARK    9  A    between atoms: C11_18  and  C12_19 
REMARK   10  A    between atoms: C11_18  and  C13_20 
REMARK   11  A    between atoms: N4_21  and  C14_22 
REMARK   12  A    between atoms: C14_22  and  C15_23 
REMARK   13  A    between atoms: C14_22  and  C16_25 
REMARK       I    between atoms: C15_23  and  N6_40 
REMARK   14  A    between atoms: C16_25  and  C17_26 
REMARK   15  A    between atoms: C17_26  and  C18_27 
REMARK   16  A    between atoms: C17_26  and  C19_28 
REMARK   17  A    between atoms: C20_29  and  C21_30 
REMARK   18  A    between atoms: C20_29  and  C24_33 
REMARK   19  A    between atoms: C20_29  and  N6_40 
REMARK   20  A    between atoms: C21_30  and  C22_31 
REMARK   21  A    between atoms: C22_31  and  C23_32 
REMARK   22  A    between atoms: C23_32  and  O8_43 
REMARK   23  A    between atoms: C24_33  and  C25_34 
REMARK   24  A    between atoms: C28_38  and  O6_39 
REMARK   25  A    between atoms: C29_42  and  O8_43 
REMARK   26  A    between atoms: C29_42  and  C35_49 
ROOT
ATOM      1  C14 non d ame     -32.594   8.081  25.849  0.00  0.00     0.089 C 
ATOM      2  H20 non d ame     -31.579   7.876  26.190  0.00  0.00     0.087 H 
ENDROOT
BRANCH   1   3
ATOM      3  N4  non d ame     -33.503   7.322  26.695  0.00  0.00    -0.346 N 
ATOM      4  C10 non d ame     -32.976   6.231  27.591  0.00  0.00     0.241 C 
ATOM      5  O4  non d ame     -31.816   5.980  27.615  0.00  0.00    -0.271 OA
ATOM      6  H19 non d ame     -34.486   7.549  26.658  0.00  0.00     0.163 HD
BRANCH   4   7
ATOM      7  C9  non d ame     -33.931   5.458  28.464  0.00  0.00     0.092 C 
ATOM      8  H11 non d ame     -33.404   5.112  29.352  0.00  0.00     0.088 H 
BRANCH   7   9
ATOM      9  N3  non d ame     -35.008   6.345  28.916  0.00  0.00    -0.346 N 
ATOM     10  C7  non d ame     -35.417   6.334  30.298  0.00  0.00     0.240 C 
ATOM     11  O3  non d ame     -34.890   5.619  31.061  0.00  0.00    -0.271 OA
ATOM     12  H10 non d ame     -35.471   6.966  28.269  0.00  0.00     0.163 HD
BRANCH  10  13
ATOM     13  C6  non d ame     -36.565   7.277  30.773  0.00  0.00     0.086 C 
ATOM     14  H6  non d ame     -36.303   7.846  31.665  0.00  0.00     0.086 H 
BRANCH  13  15
ATOM     15  N2  non d ame     -36.841   8.248  29.727  0.00  0.00    -0.343 N 
ATOM     16  C5  non d ame     -37.268   9.600  30.093  0.00  0.00     0.273 C 
ATOM     17  O2  non d ame     -37.390   9.897  31.231  0.00  0.00    -0.266 OA
ATOM     18  H5  non d ame     -36.737   7.986  28.758  0.00  0.00     0.163 HD
BRANCH  16  19
ATOM     19  C4  non d ame     -37.562  10.638  28.997  0.00  0.00     0.154 A 
ATOM     20  C1  non d ame     -36.734  10.973  27.880  0.00  0.00    -0.017 A 
ATOM     21  C2  non d ame     -37.451  11.971  27.184  0.00  0.00     0.077 A 
ATOM     22  H1  non d ame     -35.763  10.555  27.614  0.00  0.00     0.091 H 
ATOM     23  O1  non d ame     -38.559  12.177  27.832  0.00  0.00    -0.218 OA
ATOM     24  N1  non d ame     -38.646  11.410  28.895  0.00  0.00    -0.123 NA
BRANCH  21  25
ATOM     25  C3  non d ame     -37.008  12.675  25.908  0.00  0.00    -0.029 C 
ATOM     26  H2  non d ame     -37.327  12.095  25.043  0.00  0.00     0.036 H 
ATOM     27  H3  non d ame     -37.459  13.667  25.864  0.00  0.00     0.036 H 
ATOM     28  H4  non d ame     -35.923  12.770  25.902  0.00  0.00     0.036 H 
ENDBRANCH  21  25
ENDBRANCH  16  19
ENDBRANCH  13  15
BRANCH  13  29
ATOM     29  C8  non d ame     -37.801   6.463  31.061  0.00  0.00    -0.049 C 
ATOM     30  H7  non d ame     -37.830   6.208  32.120  0.00  0.00     0.030 H 
ATOM     31  H8  non d ame     -38.687   7.043  30.803  0.00  0.00     0.030 H 
ATOM     32  H9  non d ame     -37.779   5.548  30.468  0.00  0.00     0.030 H 
ENDBRANCH  13  29
ENDBRANCH  10  13
ENDBRANCH   7   9
BRANCH   7  33
ATOM     33  C11 non d ame     -34.540   4.280  27.648  0.00  0.00    -0.033 C 
ATOM     34  H12 non d ame     -34.770   3.479  28.349  0.00  0.00     0.042 H 
BRANCH  33  35
ATOM     35  C12 non d ame     -35.877   4.699  26.960  0.00  0.00    -0.071 C 
ATOM     36  H13 non d ame     -36.612   4.959  27.722  0.00  0.00     0.028 H 
ATOM     37  H14 non d ame     -35.701   5.560  26.316  0.00  0.00     0.028 H 
ATOM     38  H15 non d ame     -36.254   3.869  26.363  0.00  0.00     0.028 H 
ENDBRANCH  33  35
BRANCH  33  39
ATOM     39  C13 non d ame     -33.514   3.732  26.605  0.00  0.00    -0.071 C 
ATOM     40  H16 non d ame     -33.681   2.665  26.458  0.00  0.00     0.028 H 
ATOM     41  H17 non d ame     -33.644   4.255  25.657  0.00  0.00     0.028 H 
ATOM     42  H18 non d ame     -32.501   3.894  26.973  0.00  0.00     0.028 H 
ENDBRANCH  33  39
ENDBRANCH   7  33
ENDBRANCH   4   7
ENDBRANCH   1   3
BRANCH   1  43
ATOM     43  C15 non d ame     -32.957   9.591  25.962  0.00  0.00     0.240 C 
ATOM     44  O5  non d ame     -33.930  10.006  25.422  0.00  0.00    -0.271 OA
ATOM     45  N6  non d ame     -32.095  10.516  26.752  0.00  0.00    -0.355 N 
ATOM     46  H46 non d ame     -31.267  10.173  27.219  0.00  0.00     0.162 HD
BRANCH  45  47
ATOM     47  C20 non d ame     -32.454  11.947  26.850  0.00  0.00     0.013 C 
ATOM     48  H30 non d ame     -33.106  12.187  26.010  0.00  0.00     0.072 H 
BRANCH  47  49
ATOM     49  C21 non d ame     -31.197  12.784  26.785  0.00  0.00    -0.038 C 
ATOM     50  H31 non d ame     -30.419  12.184  27.260  0.00  0.00     0.036 H 
ATOM     51  H32 non d ame     -31.095  13.081  25.741  0.00  0.00     0.036 H 
BRANCH  49  52
ATOM     52  C22 non d ame     -31.303  14.090  27.603  0.00  0.00     0.018 C 
ATOM     53  H33 non d ame     -31.897  13.841  28.480  0.00  0.00     0.048 H 
ATOM     54  H34 non d ame     -30.280  14.448  27.720  0.00  0.00     0.048 H 
BRANCH  52  55
ATOM     55  C23 non d ame     -32.073  15.225  26.872  0.00  0.00     0.259 C 
ATOM     56  O7  non d ame     -33.087  15.651  27.321  0.00  0.00    -0.265 OA
BRANCH  55  57
ATOM     57  O8  non d ame     -31.558  15.741  25.650  0.00  0.00    -0.317 OA
BRANCH  57  58
ATOM     58  C29 non d ame     -32.100  15.119  24.481  0.00  0.00     0.052 C 
ATOM     59  H47 non d ame     -32.189  14.061  24.724  0.00  0.00     0.082 H 
ATOM     60  H48 non d ame     -32.987  15.696  24.224  0.00  0.00     0.082 H 
BRANCH  58  61
ATOM     61  C35 non d ame     -31.066  15.274  23.334  0.00  0.00    -0.034 A 
ATOM     62  C30 non d ame     -31.433  15.900  22.146  0.00  0.00    -0.075 A 
ATOM     63  C31 non d ame     -30.504  16.039  21.115  0.00  0.00    -0.082 A 
ATOM     64  H49 non d ame     -32.447  16.280  22.022  0.00  0.00     0.084 H 
ATOM     65  C32 non d ame     -29.205  15.549  21.275  0.00  0.00    -0.083 A 
ATOM     66  H50 non d ame     -30.794  16.531  20.186  0.00  0.00     0.083 H 
ATOM     67  C33 non d ame     -28.845  14.923  22.460  0.00  0.00    -0.082 A 
ATOM     68  H51 non d ame     -28.472  15.655  20.474  0.00  0.00     0.083 H 
ATOM     69  C34 non d ame     -29.769  14.783  23.494  0.00  0.00    -0.075 A 
ATOM     70  H52 non d ame     -27.831  14.539  22.581  0.00  0.00     0.083 H 
ATOM     71  H53 non d ame     -29.479  14.291  24.422  0.00  0.00     0.084 H 
ENDBRANCH  58  61
ENDBRANCH  57  58
ENDBRANCH  55  57
ENDBRANCH  52  55
ENDBRANCH  49  52
ENDBRANCH  47  49
BRANCH  47  72
ATOM     72  C24 non d ame     -33.174  12.209  28.171  0.00  0.00    -0.039 C 
ATOM     73  H35 non d ame     -32.974  13.254  28.408  0.00  0.00     0.036 H 
ATOM     74  H36 non d ame     -34.199  11.872  28.015  0.00  0.00     0.036 H 
BRANCH  72  75
ATOM     75  C25 non d ame     -32.565  11.329  29.363  0.00  0.00    -0.001 C 
ATOM     76  C26 non d ame     -33.501  10.002  29.614  0.00  0.00    -0.035 C 
ATOM     77  C27 non d ame     -33.811   9.928  30.931  0.00  0.00     0.085 C 
ATOM     78  H38 non d ame     -34.470  10.130  29.132  0.00  0.00     0.036 H 
ATOM     79  H39 non d ame     -32.921   9.095  29.438  0.00  0.00     0.036 H 
ATOM     80  N5  non d ame     -33.446  11.259  31.545  0.00  0.00    -0.049 N 
ATOM     81  H40 non d ame     -34.893   9.803  30.969  0.00  0.00     0.075 H 
ATOM     82  H41 non d ame     -33.159   9.157  31.341  0.00  0.00     0.075 H 
ATOM     83  C28 non d ame     -32.510  12.005  30.462  0.00  0.00     0.193 C 
ATOM     84  H42 non d ame     -34.308  11.777  31.637  0.00  0.00     0.280 HD
ATOM     85  H43 non d ame     -32.891  11.052  32.363  0.00  0.00     0.280 HD
ATOM     86  H44 non d ame     -31.431  12.059  30.608  0.00  0.00     0.129 H 
ATOM     87  H37 non d ame     -31.494  11.166  29.250  0.00  0.00     0.046 H 
BRANCH  83  88
ATOM     88  O6  non d ame     -32.941  13.356  30.286  0.00  0.00    -0.369 OA
ATOM     89  H45 non d ame     -32.237  13.866  29.877  0.00  0.00     0.212 HD
ENDBRANCH  83  88
ENDBRANCH  72  75
ENDBRANCH  47  72
ENDBRANCH  45  47
ENDBRANCH   1  43
BRANCH   1  90
ATOM     90  C16 non d ame     -32.756   7.624  24.408  0.00  0.00    -0.035 C 
ATOM     91  H21 non d ame     -33.779   7.259  24.335  0.00  0.00     0.037 H 
ATOM     92  H22 non d ame     -32.432   8.468  23.799  0.00  0.00     0.037 H 
BRANCH  90  93
ATOM     93  C17 non d ame     -31.832   6.423  24.026  0.00  0.00    -0.059 C 
ATOM     94  H23 non d ame     -31.399   6.033  24.947  0.00  0.00     0.038 H 
BRANCH  93  95
ATOM     95  C18 non d ame     -32.625   5.264  23.343  0.00  0.00    -0.073 C 
ATOM     96  H24 non d ame     -32.155   4.310  23.584  0.00  0.00     0.028 H 
ATOM     97  H25 non d ame     -33.652   5.262  23.708  0.00  0.00     0.028 H 
ATOM     98  H26 non d ame     -32.623   5.408  22.263  0.00  0.00     0.028 H 
ENDBRANCH  93  95
BRANCH  93  99
ATOM     99  C19 non d ame     -30.673   6.886  23.138  0.00  0.00    -0.073 C 
ATOM    100  H27 non d ame     -29.729   6.718  23.658  0.00  0.00     0.028 H 
ATOM    101  H28 non d ame     -30.680   6.321  22.206  0.00  0.00     0.028 H 
ATOM    102  H29 non d ame     -30.784   7.948  22.920  0.00  0.00     0.028 H 
ENDBRANCH  93  99
ENDBRANCH  90  93
ENDBRANCH   1  90
TORSDOF 26
ENDMDL
MODEL 15
REMARK VINA RESULT:      -6.7      2.630      5.005
REMARK  26 active torsions:
REMARK  status: ('A' for Active; 'I' for Inactive)
REMARK    1  A    between atoms: C2_2  and  C3_3 
REMARK    2  A    between atoms: C4_6  and  C5_7 
REMARK       I    between atoms: C5_7  and  N2_9 
REMARK    3  A    between atoms: N2_9  and  C6_10 
REMARK    4  A    between atoms: C6_10  and  C7_11 
REMARK    5  A    between atoms: C6_10  and  C8_13 
REMARK       I    between atoms: C7_11  and  N3_14 
REMARK    6  A    between atoms: N3_14  and  C9_15 
REMARK    7  A    between atoms: C9_15  and  C10_16 
REMARK    8  A    between atoms: C9_15  and  C11_18 
REMARK       I    between atoms: C10_16  and  N4_21 
REMARK    9  A    between atoms: C11_18  and  C12_19 
REMARK   10  A    between atoms: C11_18  and  C13_20 
REMARK   11  A    between atoms: N4_21  and  C14_22 
REMARK   12  A    between atoms: C14_22  and  C15_23 
REMARK   13  A    between atoms: C14_22  and  C16_25 
REMARK       I    between atoms: C15_23  and  N6_40 
REMARK   14  A    between atoms: C16_25  and  C17_26 
REMARK   15  A    between atoms: C17_26  and  C18_27 
REMARK   16  A    between atoms: C17_26  and  C19_28 
REMARK   17  A    between atoms: C20_29  and  C21_30 
REMARK   18  A    between atoms: C20_29  and  C24_33 
REMARK   19  A    between atoms: C20_29  and  N6_40 
REMARK   20  A    between atoms: C21_30  and  C22_31 
REMARK   21  A    between atoms: C22_31  and  C23_32 
REMARK   22  A    between atoms: C23_32  and  O8_43 
REMARK   23  A    between atoms: C24_33  and  C25_34 
REMARK   24  A    between atoms: C28_38  and  O6_39 
REMARK   25  A    between atoms: C29_42  and  O8_43 
REMARK   26  A    between atoms: C29_42  and  C35_49 
ROOT
ATOM      1  C14 non d ame     -35.204  11.477  26.578  0.00  0.00     0.089 C 
ATOM      2  H20 non d ame     -35.972  11.353  25.814  0.00  0.00     0.087 H 
ENDROOT
BRANCH   1   3
ATOM      3  N4  non d ame     -34.206  10.438  26.368  0.00  0.00    -0.346 N 
ATOM      4  C10 non d ame     -34.190   9.645  25.086  0.00  0.00     0.241 C 
ATOM      5  O4  non d ame     -34.992   9.858  24.238  0.00  0.00    -0.271 OA
ATOM      6  H19 non d ame     -33.534  10.270  27.103  0.00  0.00     0.163 HD
BRANCH   4   7
ATOM      7  C9  non d ame     -33.147   8.577  24.884  0.00  0.00     0.092 C 
ATOM      8  H11 non d ame     -32.181   8.951  25.220  0.00  0.00     0.088 H 
BRANCH   7   9
ATOM      9  N3  non d ame     -33.473   7.412  25.713  0.00  0.00    -0.346 N 
ATOM     10  C7  non d ame     -32.923   7.296  27.040  0.00  0.00     0.240 C 
ATOM     11  O3  non d ame     -32.215   8.130  27.458  0.00  0.00    -0.271 OA
ATOM     12  H10 non d ame     -34.081   6.684  25.365  0.00  0.00     0.163 HD
BRANCH  10  13
ATOM     13  C6  non d ame     -33.270   6.052  27.916  0.00  0.00     0.086 C 
ATOM     14  H6  non d ame     -32.961   6.168  28.955  0.00  0.00     0.086 H 
BRANCH  13  15
ATOM     15  N2  non d ame     -34.713   5.873  27.931  0.00  0.00    -0.343 N 
ATOM     16  C5  non d ame     -35.377   5.462  29.169  0.00  0.00     0.273 C 
ATOM     17  O2  non d ame     -34.742   5.275  30.148  0.00  0.00    -0.266 OA
ATOM     18  H5  non d ame     -35.247   6.033  27.088  0.00  0.00     0.163 HD
BRANCH  16  19
ATOM     19  C4  non d ame     -36.901   5.270  29.198  0.00  0.00     0.154 A 
ATOM     20  C1  non d ame     -37.735   4.807  28.132  0.00  0.00    -0.017 A 
ATOM     21  C2  non d ame     -39.043   4.811  28.665  0.00  0.00     0.077 A 
ATOM     22  H1  non d ame     -37.436   4.512  27.126  0.00  0.00     0.091 H 
ATOM     23  O1  non d ame     -38.959   5.227  29.894  0.00  0.00    -0.218 OA
ATOM     24  N1  non d ame     -37.719   5.502  30.228  0.00  0.00    -0.123 NA
BRANCH  21  25
ATOM     25  C3  non d ame     -40.315   4.400  27.936  0.00  0.00    -0.029 C 
ATOM     26  H2  non d ame     -40.308   3.323  27.771  0.00  0.00     0.036 H 
ATOM     27  H3  non d ame     -41.182   4.668  28.540  0.00  0.00     0.036 H 
ATOM     28  H4  non d ame     -40.367   4.915  26.977  0.00  0.00     0.036 H 
ENDBRANCH  21  25
ENDBRANCH  16  19
ENDBRANCH  13  15
BRANCH  13  29
ATOM     29  C8  non d ame     -32.603   4.828  27.344  0.00  0.00    -0.049 C 
ATOM     30  H7  non d ame     -33.324   4.013  27.289  0.00  0.00     0.030 H 
ATOM     31  H8  non d ame     -32.231   5.051  26.344  0.00  0.00     0.030 H 
ATOM     32  H9  non d ame     -31.771   4.535  27.985  0.00  0.00     0.030 H 
ENDBRANCH  13  29
ENDBRANCH  10  13
ENDBRANCH   7   9
BRANCH   7  33
ATOM     33  C11 non d ame     -33.123   8.153  23.386  0.00  0.00    -0.033 C 
ATOM     34  H12 non d ame     -34.094   8.403  22.958  0.00  0.00     0.042 H 
BRANCH  33  35
ATOM     35  C12 non d ame     -32.041   8.947  22.589  0.00  0.00    -0.071 C 
ATOM     36  H13 non d ame     -32.293   8.940  21.528  0.00  0.00     0.028 H 
ATOM     37  H14 non d ame     -32.006   9.975  22.948  0.00  0.00     0.028 H 
ATOM     38  H15 non d ame     -31.068   8.477  22.732  0.00  0.00     0.028 H 
ENDBRANCH  33  35
BRANCH  33  39
ATOM     39  C13 non d ame     -32.915   6.612  23.244  0.00  0.00    -0.071 C 
ATOM     40  H16 non d ame     -33.407   6.261  22.336  0.00  0.00     0.028 H 
ATOM     41  H17 non d ame     -31.849   6.392  23.189  0.00  0.00     0.028 H 
ATOM     42  H18 non d ame     -33.345   6.106  24.108  0.00  0.00     0.028 H 
ENDBRANCH  33  39
ENDBRANCH   7  33
ENDBRANCH   4   7
ENDBRANCH   1   3
BRANCH   1  43
ATOM     43  C15 non d ame     -34.503  12.863  26.484  0.00  0.00     0.240 C 
ATOM     44  O5  non d ame     -34.854  13.649  25.665  0.00  0.00    -0.271 OA
ATOM     45  N6  non d ame     -33.401  13.215  27.424  0.00  0.00    -0.355 N 
ATOM     46  H46 non d ame     -33.097  12.557  28.128  0.00  0.00     0.162 HD
BRANCH  45  47
ATOM     47  C20 non d ame     -32.746  14.537  27.323  0.00  0.00     0.013 C 
ATOM     48  H30 non d ame     -32.920  14.921  26.318  0.00  0.00     0.072 H 
BRANCH  47  49
ATOM     49  C21 non d ame     -31.262  14.380  27.567  0.00  0.00    -0.038 C 
ATOM     50  H31 non d ame     -30.975  13.461  27.055  0.00  0.00     0.036 H 
ATOM     51  H32 non d ame     -30.814  15.330  27.275  0.00  0.00     0.036 H 
BRANCH  49  52
ATOM     52  C22 non d ame     -30.918  14.175  29.059  0.00  0.00     0.018 C 
ATOM     53  H33 non d ame     -29.907  14.560  29.184  0.00  0.00     0.048 H 
ATOM     54  H34 non d ame     -31.744  14.619  29.615  0.00  0.00     0.048 H 
BRANCH  52  55
ATOM     55  C23 non d ame     -30.866  12.683  29.490  0.00  0.00     0.259 C 
ATOM     56  O7  non d ame     -29.823  12.153  29.703  0.00  0.00    -0.265 OA
BRANCH  55  57
ATOM     57  O8  non d ame     -32.079  11.950  29.613  0.00  0.00    -0.317 OA
BRANCH  57  58
ATOM     58  C29 non d ame     -32.770  12.172  30.846  0.00  0.00     0.052 C 
ATOM     59  H47 non d ame     -32.004  12.162  31.620  0.00  0.00     0.082 H 
ATOM     60  H48 non d ame     -33.376  13.064  30.688  0.00  0.00     0.082 H 
BRANCH  58  61
ATOM     61  C35 non d ame     -33.723  10.969  31.083  0.00  0.00    -0.034 A 
ATOM     62  C30 non d ame     -34.677  11.026  32.094  0.00  0.00    -0.075 A 
ATOM     63  C31 non d ame     -35.533   9.946  32.307  0.00  0.00    -0.082 A 
ATOM     64  H49 non d ame     -34.755  11.915  32.720  0.00  0.00     0.084 H 
ATOM     65  C32 non d ame     -35.431   8.806  31.506  0.00  0.00    -0.083 A 
ATOM     66  H50 non d ame     -36.281   9.994  33.100  0.00  0.00     0.083 H 
ATOM     67  C33 non d ame     -34.474   8.753  30.501  0.00  0.00    -0.082 A 
ATOM     68  H51 non d ame     -36.096   7.957  31.666  0.00  0.00     0.083 H 
ATOM     69  C34 non d ame     -33.618   9.830  30.283  0.00  0.00    -0.075 A 
ATOM     70  H52 non d ame     -34.395   7.860  29.879  0.00  0.00     0.083 H 
ATOM     71  H53 non d ame     -32.871   9.782  29.491  0.00  0.00     0.084 H 
ENDBRANCH  58  61
ENDBRANCH  57  58
ENDBRANCH  55  57
ENDBRANCH  52  55
ENDBRANCH  49  52
ENDBRANCH  47  49
BRANCH  47  72
ATOM     72  C24 non d ame     -33.337  15.487  28.363  0.00  0.00    -0.039 C 
ATOM     73  H35 non d ame     -34.228  14.984  28.741  0.00  0.00     0.036 H 
ATOM     74  H36 non d ame     -32.516  15.722  29.041  0.00  0.00     0.036 H 
BRANCH  72  75
ATOM     75  C25 non d ame     -33.815  16.866  27.703  0.00  0.00    -0.001 C 
ATOM     76  C26 non d ame     -33.611  16.806  26.073  0.00  0.00    -0.035 C 
ATOM     77  C27 non d ame     -32.923  17.904  25.678  0.00  0.00     0.085 C 
ATOM     78  H38 non d ame     -32.950  15.982  25.808  0.00  0.00     0.036 H 
ATOM     79  H39 non d ame     -34.574  16.915  25.571  0.00  0.00     0.036 H 
ATOM     80  N5  non d ame     -32.355  18.540  26.924  0.00  0.00    -0.049 N 
ATOM     81  H40 non d ame     -32.104  17.528  25.064  0.00  0.00     0.075 H 
ATOM     82  H41 non d ame     -33.666  18.573  25.245  0.00  0.00     0.075 H 
ATOM     83  C28 non d ame     -33.137  17.863  28.164  0.00  0.00     0.193 C 
ATOM     84  H42 non d ame     -31.384  18.265  26.968  0.00  0.00     0.280 HD
ATOM     85  H43 non d ame     -32.602  19.518  26.882  0.00  0.00     0.280 HD
ATOM     86  H44 non d ame     -33.921  18.411  28.687  0.00  0.00     0.129 H 
ATOM     87  H37 non d ame     -34.791  17.182  28.070  0.00  0.00     0.046 H 
BRANCH  83  88
ATOM     88  O6  non d ame     -32.208  17.465  29.174  0.00  0.00    -0.369 OA
ATOM     89  H45 non d ame     -32.567  17.676  30.040  0.00  0.00     0.212 HD
ENDBRANCH  83  88
ENDBRANCH  72  75
ENDBRANCH  47  72
ENDBRANCH  45  47
ENDBRANCH   1  43
BRANCH   1  90
ATOM     90  C16 non d ame     -35.817  11.306  27.958  0.00  0.00    -0.035 C 
ATOM     91  H21 non d ame     -35.072  10.766  28.540  0.00  0.00     0.037 H 
ATOM     92  H22 non d ame     -36.126  12.306  28.262  0.00  0.00     0.037 H 
BRANCH  90  93
ATOM     93  C17 non d ame     -37.106  10.424  27.965  0.00  0.00    -0.059 C 
ATOM     94  H23 non d ame     -37.737  10.754  27.140  0.00  0.00     0.038 H 
BRANCH  93  95
ATOM     95  C18 non d ame     -36.786   8.911  27.744  0.00  0.00    -0.073 C 
ATOM     96  H24 non d ame     -35.711   8.781  27.617  0.00  0.00     0.028 H 
ATOM     97  H25 non d ame     -37.120   8.338  28.609  0.00  0.00     0.028 H 
ATOM     98  H26 non d ame     -37.303   8.557  26.852  0.00  0.00     0.028 H 
ENDBRANCH  93  95
BRANCH  93  99
ATOM     99  C19 non d ame     -37.901  10.628  29.258  0.00  0.00    -0.073 C 
ATOM    100  H27 non d ame     -38.534  11.511  29.158  0.00  0.00     0.028 H 
ATOM    101  H28 non d ame     -38.525   9.754  29.443  0.00  0.00     0.028 H 
ATOM    102  H29 non d ame     -37.212  10.767  30.090  0.00  0.00     0.028 H 
ENDBRANCH  93  99
ENDBRANCH  90  93
ENDBRANCH   1  90
TORSDOF 26
ENDMDL
MODEL 16
REMARK VINA RESULT:      -6.7      2.387      5.004
REMARK  26 active torsions:
REMARK  status: ('A' for Active; 'I' for Inactive)
REMARK    1  A    between atoms: C2_2  and  C3_3 
REMARK    2  A    between atoms: C4_6  and  C5_7 
REMARK       I    between atoms: C5_7  and  N2_9 
REMARK    3  A    between atoms: N2_9  and  C6_10 
REMARK    4  A    between atoms: C6_10  and  C7_11 
REMARK    5  A    between atoms: C6_10  and  C8_13 
REMARK       I    between atoms: C7_11  and  N3_14 
REMARK    6  A    between atoms: N3_14  and  C9_15 
REMARK    7  A    between atoms: C9_15  and  C10_16 
REMARK    8  A    between atoms: C9_15  and  C11_18 
REMARK       I    between atoms: C10_16  and  N4_21 
REMARK    9  A    between atoms: C11_18  and  C12_19 
REMARK   10  A    between atoms: C11_18  and  C13_20 
REMARK   11  A    between atoms: N4_21  and  C14_22 
REMARK   12  A    between atoms: C14_22  and  C15_23 
REMARK   13  A    between atoms: C14_22  and  C16_25 
REMARK       I    between atoms: C15_23  and  N6_40 
REMARK   14  A    between atoms: C16_25  and  C17_26 
REMARK   15  A    between atoms: C17_26  and  C18_27 
REMARK   16  A    between atoms: C17_26  and  C19_28 
REMARK   17  A    between atoms: C20_29  and  C21_30 
REMARK   18  A    between atoms: C20_29  and  C24_33 
REMARK   19  A    between atoms: C20_29  and  N6_40 
REMARK   20  A    between atoms: C21_30  and  C22_31 
REMARK   21  A    between atoms: C22_31  and  C23_32 
REMARK   22  A    between atoms: C23_32  and  O8_43 
REMARK   23  A    between atoms: C24_33  and  C25_34 
REMARK   24  A    between atoms: C28_38  and  O6_39 
REMARK   25  A    between atoms: C29_42  and  O8_43 
REMARK   26  A    between atoms: C29_42  and  C35_49 
ROOT
ATOM      1  C14 non d ame     -31.906   8.948  24.145  0.00  0.00     0.089 C 
ATOM      2  H20 non d ame     -31.191   8.128  24.216  0.00  0.00     0.087 H 
ENDROOT
BRANCH   1   3
ATOM      3  N4  non d ame     -32.972   8.684  25.100  0.00  0.00    -0.346 N 
ATOM      4  C10 non d ame     -33.018   7.376  25.847  0.00  0.00     0.241 C 
ATOM      5  O4  non d ame     -32.187   6.549  25.663  0.00  0.00    -0.271 OA
ATOM      6  H19 non d ame     -33.671   9.399  25.240  0.00  0.00     0.163 HD
BRANCH   4   7
ATOM      7  C9  non d ame     -34.127   7.121  26.835  0.00  0.00     0.092 C 
ATOM      8  H11 non d ame     -33.712   6.647  27.724  0.00  0.00     0.088 H 
BRANCH   7   9
ATOM      9  N3  non d ame     -34.710   8.398  27.256  0.00  0.00    -0.346 N 
ATOM     10  C7  non d ame     -34.881   8.684  28.659  0.00  0.00     0.240 C 
ATOM     11  O3  non d ame     -34.555   7.898  29.463  0.00  0.00    -0.271 OA
ATOM     12  H10 non d ame     -34.997   9.085  26.574  0.00  0.00     0.163 HD
BRANCH  10  13
ATOM     13  C6  non d ame     -35.505  10.044  29.102  0.00  0.00     0.086 C 
ATOM     14  H6  non d ame     -36.126   9.953  29.993  0.00  0.00     0.086 H 
BRANCH  13  15
ATOM     15  N2  non d ame     -34.434  10.969  29.434  0.00  0.00    -0.343 N 
ATOM     16  C5  non d ame     -33.496  11.391  28.392  0.00  0.00     0.273 C 
ATOM     17  O2  non d ame     -33.609  10.978  27.290  0.00  0.00    -0.266 OA
ATOM     18  H5  non d ame     -34.344  11.314  30.379  0.00  0.00     0.163 HD
BRANCH  16  19
ATOM     19  C4  non d ame     -32.360  12.369  28.729  0.00  0.00     0.154 A 
ATOM     20  C1  non d ame     -32.487  13.696  29.249  0.00  0.00    -0.017 A 
ATOM     21  C2  non d ame     -31.161  14.163  29.381  0.00  0.00     0.077 A 
ATOM     22  H1  non d ame     -33.402  14.237  29.494  0.00  0.00     0.091 H 
ATOM     23  O1  non d ame     -30.372  13.209  28.982  0.00  0.00    -0.218 OA
ATOM     24  N1  non d ame     -31.049  12.152  28.597  0.00  0.00    -0.123 NA
BRANCH  21  25
ATOM     25  C3  non d ame     -30.733  15.531  29.896  0.00  0.00    -0.029 C 
ATOM     26  H2  non d ame     -30.534  16.191  29.053  0.00  0.00     0.036 H 
ATOM     27  H3  non d ame     -31.531  15.955  30.506  0.00  0.00     0.036 H 
ATOM     28  H4  non d ame     -29.831  15.428  30.498  0.00  0.00     0.036 H 
ENDBRANCH  21  25
ENDBRANCH  16  19
ENDBRANCH  13  15
BRANCH  13  29
ATOM     29  C8  non d ame     -36.343  10.604  27.981  0.00  0.00    -0.049 C 
ATOM     30  H7  non d ame     -37.385  10.649  28.293  0.00  0.00     0.030 H 
ATOM     31  H8  non d ame     -35.995  11.606  27.732  0.00  0.00     0.030 H 
ATOM     32  H9  non d ame     -36.254   9.960  27.104  0.00  0.00     0.030 H 
ENDBRANCH  13  29
ENDBRANCH  10  13
ENDBRANCH   7   9
BRANCH   7  33
ATOM     33  C11 non d ame     -35.228   6.247  26.164  0.00  0.00    -0.033 C 
ATOM     34  H12 non d ame     -34.729   5.423  25.654  0.00  0.00     0.042 H 
BRANCH  33  35
ATOM     35  C12 non d ame     -36.188   5.629  27.227  0.00  0.00    -0.071 C 
ATOM     36  H13 non d ame     -35.653   5.501  28.169  0.00  0.00     0.028 H 
ATOM     37  H14 non d ame     -37.038   6.292  27.379  0.00  0.00     0.028 H 
ATOM     38  H15 non d ame     -36.540   4.658  26.878  0.00  0.00     0.028 H 
ENDBRANCH  33  35
BRANCH  33  39
ATOM     39  C13 non d ame     -36.018   7.068  25.096  0.00  0.00    -0.071 C 
ATOM     40  H16 non d ame     -35.599   8.072  25.024  0.00  0.00     0.028 H 
ATOM     41  H17 non d ame     -35.944   6.572  24.127  0.00  0.00     0.028 H 
ATOM     42  H18 non d ame     -37.066   7.133  25.389  0.00  0.00     0.028 H 
ENDBRANCH  33  39
ENDBRANCH   7  33
ENDBRANCH   4   7
ENDBRANCH   1   3
BRANCH   1  43
ATOM     43  C15 non d ame     -31.260  10.321  24.492  0.00  0.00     0.240 C 
ATOM     44  O5  non d ame     -30.914  10.546  25.606  0.00  0.00    -0.271 OA
ATOM     45  N6  non d ame     -31.063  11.351  23.432  0.00  0.00    -0.355 N 
ATOM     46  H46 non d ame     -31.349  11.169  22.480  0.00  0.00     0.162 HD
BRANCH  45  47
ATOM     47  C20 non d ame     -30.446  12.650  23.778  0.00  0.00     0.013 C 
ATOM     48  H30 non d ame     -29.717  12.473  24.568  0.00  0.00     0.072 H 
BRANCH  47  49
ATOM     49  C21 non d ame     -31.518  13.598  24.266  0.00  0.00    -0.038 C 
ATOM     50  H31 non d ame     -31.544  14.412  23.540  0.00  0.00     0.036 H 
ATOM     51  H32 non d ame     -32.404  12.983  24.426  0.00  0.00     0.036 H 
BRANCH  49  52
ATOM     52  C22 non d ame     -31.178  14.238  25.629  0.00  0.00     0.018 C 
ATOM     53  H33 non d ame     -31.624  13.587  26.380  0.00  0.00     0.048 H 
ATOM     54  H34 non d ame     -30.100  14.399  25.618  0.00  0.00     0.048 H 
BRANCH  52  55
ATOM     55  C23 non d ame     -31.818  15.638  25.841  0.00  0.00     0.259 C 
ATOM     56  O7  non d ame     -31.316  16.607  25.371  0.00  0.00    -0.265 OA
BRANCH  55  57
ATOM     57  O8  non d ame     -33.006  15.751  26.616  0.00  0.00    -0.317 OA
BRANCH  57  58
ATOM     58  C29 non d ame     -34.109  16.328  25.910  0.00  0.00     0.052 C 
ATOM     59  H47 non d ame     -33.696  16.703  24.974  0.00  0.00     0.082 H 
ATOM     60  H48 non d ame     -34.884  15.562  25.898  0.00  0.00     0.082 H 
BRANCH  58  61
ATOM     61  C35 non d ame     -34.627  17.535  26.737  0.00  0.00    -0.034 A 
ATOM     62  C30 non d ame     -35.665  17.361  27.647  0.00  0.00    -0.075 A 
ATOM     63  C31 non d ame     -36.131  18.446  28.390  0.00  0.00    -0.082 A 
ATOM     64  H49 non d ame     -36.115  16.377  27.778  0.00  0.00     0.084 H 
ATOM     65  C32 non d ame     -35.555  19.708  28.219  0.00  0.00    -0.083 A 
ATOM     66  H50 non d ame     -36.944  18.306  29.104  0.00  0.00     0.083 H 
ATOM     67  C33 non d ame     -34.522  19.876  27.307  0.00  0.00    -0.082 A 
ATOM     68  H51 non d ame     -35.913  20.561  28.796  0.00  0.00     0.083 H 
ATOM     69  C34 non d ame     -34.053  18.795  26.564  0.00  0.00    -0.075 A 
ATOM     70  H52 non d ame     -34.077  20.863  27.174  0.00  0.00     0.083 H 
ATOM     71  H53 non d ame     -33.240  18.935  25.851  0.00  0.00     0.084 H 
ENDBRANCH  58  61
ENDBRANCH  57  58
ENDBRANCH  55  57
ENDBRANCH  52  55
ENDBRANCH  49  52
ENDBRANCH  47  49
BRANCH  47  72
ATOM     72  C24 non d ame     -29.763  13.241  22.547  0.00  0.00    -0.039 C 
ATOM     73  H35 non d ame     -28.699  13.257  22.787  0.00  0.00     0.036 H 
ATOM     74  H36 non d ame     -30.122  12.650  21.704  0.00  0.00     0.036 H 
BRANCH  72  75
ATOM     75  C25 non d ame     -30.213  14.756  22.289  0.00  0.00    -0.001 C 
ATOM     76  C26 non d ame     -30.910  14.888  20.806  0.00  0.00    -0.035 C 
ATOM     77  C27 non d ame     -30.318  15.903  20.133  0.00  0.00     0.085 C 
ATOM     78  H38 non d ame     -30.676  14.011  20.203  0.00  0.00     0.036 H 
ATOM     79  H39 non d ame     -31.944  15.219  20.907  0.00  0.00     0.036 H 
ATOM     80  N5  non d ame     -29.062  16.262  20.893  0.00  0.00    -0.049 N 
ATOM     81  H40 non d ame     -30.041  15.488  19.164  0.00  0.00     0.075 H 
ATOM     82  H41 non d ame     -31.017  16.737  20.189  0.00  0.00     0.075 H 
ATOM     83  C28 non d ame     -29.202  15.558  22.339  0.00  0.00     0.193 C 
ATOM     84  H42 non d ame     -28.296  15.831  20.398  0.00  0.00     0.280 HD
ATOM     85  H43 non d ame     -29.083  17.264  21.019  0.00  0.00     0.280 HD
ATOM     86  H44 non d ame     -29.461  16.148  23.218  0.00  0.00     0.129 H 
ATOM     87  H37 non d ame     -30.761  15.173  23.134  0.00  0.00     0.046 H 
BRANCH  83  88
ATOM     88  O6  non d ame     -27.991  14.880  22.676  0.00  0.00    -0.369 OA
ATOM     89  H45 non d ame     -28.197  14.092  23.185  0.00  0.00     0.212 HD
ENDBRANCH  83  88
ENDBRANCH  72  75
ENDBRANCH  47  72
ENDBRANCH  45  47
ENDBRANCH   1  43
BRANCH   1  90
ATOM     90  C16 non d ame     -32.494   9.000  22.744  0.00  0.00    -0.035 C 
ATOM     91  H21 non d ame     -33.516   8.640  22.847  0.00  0.00     0.037 H 
ATOM     92  H22 non d ame     -32.304  10.013  22.389  0.00  0.00     0.037 H 
BRANCH  90  93
ATOM     93  C17 non d ame     -31.789   8.039  21.734  0.00  0.00    -0.059 C 
ATOM     94  H23 non d ame     -31.230   8.654  21.028  0.00  0.00     0.038 H 
BRANCH  93  95
ATOM     95  C18 non d ame     -30.774   7.083  22.439  0.00  0.00    -0.073 C 
ATOM     96  H24 non d ame     -31.234   6.659  23.332  0.00  0.00     0.028 H 
ATOM     97  H25 non d ame     -30.499   6.279  21.757  0.00  0.00     0.028 H 
ATOM     98  H26 non d ame     -29.882   7.643  22.720  0.00  0.00     0.028 H 
ENDBRANCH  93  95
BRANCH  93  99
ATOM     99  C19 non d ame     -32.818   7.242  20.928  0.00  0.00    -0.073 C 
ATOM    100  H27 non d ame     -32.325   6.763  20.082  0.00  0.00     0.028 H 
ATOM    101  H28 non d ame     -33.267   6.479  21.565  0.00  0.00     0.028 H 
ATOM    102  H29 non d ame     -33.595   7.914  20.564  0.00  0.00     0.028 H 
ENDBRANCH  93  99
ENDBRANCH  90  93
ENDBRANCH   1  90
TORSDOF 26
ENDMDL
MODEL 17
REMARK VINA RESULT:      -6.6      3.884      7.510
REMARK  26 active torsions:
REMARK  status: ('A' for Active; 'I' for Inactive)
REMARK    1  A    between atoms: C2_2  and  C3_3 
REMARK    2  A    between atoms: C4_6  and  C5_7 
REMARK       I    between atoms: C5_7  and  N2_9 
REMARK    3  A    between atoms: N2_9  and  C6_10 
REMARK    4  A    between atoms: C6_10  and  C7_11 
REMARK    5  A    between atoms: C6_10  and  C8_13 
REMARK       I    between atoms: C7_11  and  N3_14 
REMARK    6  A    between atoms: N3_14  and  C9_15 
REMARK    7  A    between atoms: C9_15  and  C10_16 
REMARK    8  A    between atoms: C9_15  and  C11_18 
REMARK       I    between atoms: C10_16  and  N4_21 
REMARK    9  A    between atoms: C11_18  and  C12_19 
REMARK   10  A    between atoms: C11_18  and  C13_20 
REMARK   11  A    between atoms: N4_21  and  C14_22 
REMARK   12  A    between atoms: C14_22  and  C15_23 
REMARK   13  A    between atoms: C14_22  and  C16_25 
REMARK       I    between atoms: C15_23  and  N6_40 
REMARK   14  A    between atoms: C16_25  and  C17_26 
REMARK   15  A    between atoms: C17_26  and  C18_27 
REMARK   16  A    between atoms: C17_26  and  C19_28 
REMARK   17  A    between atoms: C20_29  and  C21_30 
REMARK   18  A    between atoms: C20_29  and  C24_33 
REMARK   19  A    between atoms: C20_29  and  N6_40 
REMARK   20  A    between atoms: C21_30  and  C22_31 
REMARK   21  A    between atoms: C22_31  and  C23_32 
REMARK   22  A    between atoms: C23_32  and  O8_43 
REMARK   23  A    between atoms: C24_33  and  C25_34 
REMARK   24  A    between atoms: C28_38  and  O6_39 
REMARK   25  A    between atoms: C29_42  and  O8_43 
REMARK   26  A    between atoms: C29_42  and  C35_49 
ROOT
ATOM      1  C14 non d ame     -31.171  14.117  24.561  0.00  0.00     0.089 C 
ATOM      2  H20 non d ame     -30.181  13.787  24.876  0.00  0.00     0.087 H 
ENDROOT
BRANCH   1   3
ATOM      3  N4  non d ame     -32.060  12.967  24.630  0.00  0.00    -0.346 N 
ATOM      4  C10 non d ame     -31.891  11.938  25.718  0.00  0.00     0.241 C 
ATOM      5  O4  non d ame     -31.030  12.055  26.528  0.00  0.00    -0.271 OA
ATOM      6  H19 non d ame     -32.783  12.884  23.930  0.00  0.00     0.163 HD
BRANCH   4   7
ATOM      7  C9  non d ame     -32.822  10.756  25.777  0.00  0.00     0.092 C 
ATOM      8  H11 non d ame     -33.066  10.543  26.817  0.00  0.00     0.088 H 
BRANCH   7   9
ATOM      9  N3  non d ame     -34.077  11.087  25.096  0.00  0.00    -0.346 N 
ATOM     10  C7  non d ame     -35.224  11.505  25.864  0.00  0.00     0.240 C 
ATOM     11  O3  non d ame     -35.155  11.580  27.030  0.00  0.00    -0.271 OA
ATOM     12  H10 non d ame     -34.152  11.026  24.091  0.00  0.00     0.163 HD
BRANCH  10  13
ATOM     13  C6  non d ame     -36.559  11.854  25.134  0.00  0.00     0.086 C 
ATOM     14  H6  non d ame     -37.436  11.698  25.762  0.00  0.00     0.086 H 
BRANCH  13  15
ATOM     15  N2  non d ame     -36.547  13.263  24.778  0.00  0.00    -0.343 N 
ATOM     16  C5  non d ame     -37.814  13.957  24.538  0.00  0.00     0.273 C 
ATOM     17  O2  non d ame     -38.837  13.372  24.630  0.00  0.00    -0.266 OA
ATOM     18  H5  non d ame     -35.668  13.754  24.698  0.00  0.00     0.163 HD
BRANCH  16  19
ATOM     19  C4  non d ame     -37.817  15.447  24.161  0.00  0.00     0.154 A 
ATOM     20  C1  non d ame     -37.093  16.502  24.802  0.00  0.00    -0.017 A 
ATOM     21  C2  non d ame     -37.436  17.667  24.081  0.00  0.00     0.077 A 
ATOM     22  H1  non d ame     -36.422  16.432  25.658  0.00  0.00     0.091 H 
ATOM     23  O1  non d ame     -38.259  17.312  23.138  0.00  0.00    -0.218 OA
ATOM     24  N1  non d ame     -38.496  16.021  23.165  0.00  0.00    -0.123 NA
BRANCH  21  25
ATOM     25  C3  non d ame     -36.933  19.078  24.356  0.00  0.00    -0.029 C 
ATOM     26  H2  non d ame     -36.903  19.250  25.431  0.00  0.00     0.036 H 
ATOM     27  H3  non d ame     -35.931  19.194  23.943  0.00  0.00     0.036 H 
ATOM     28  H4  non d ame     -37.603  19.801  23.891  0.00  0.00     0.036 H 
ENDBRANCH  21  25
ENDBRANCH  16  19
ENDBRANCH  13  15
BRANCH  13  29
ATOM     29  C8  non d ame     -36.692  11.008  23.893  0.00  0.00    -0.049 C 
ATOM     30  H7  non d ame     -35.762  11.042  23.328  0.00  0.00     0.030 H 
ATOM     31  H8  non d ame     -36.907   9.978  24.177  0.00  0.00     0.030 H 
ATOM     32  H9  non d ame     -37.506  11.393  23.277  0.00  0.00     0.030 H 
ENDBRANCH  13  29
ENDBRANCH  10  13
ENDBRANCH   7   9
BRANCH   7  33
ATOM     33  C11 non d ame     -32.158   9.537  25.070  0.00  0.00    -0.033 C 
ATOM     34  H12 non d ame     -31.079   9.642  25.178  0.00  0.00     0.042 H 
BRANCH  33  35
ATOM     35  C12 non d ame     -32.569   8.194  25.749  0.00  0.00    -0.071 C 
ATOM     36  H13 non d ame     -33.536   7.871  25.360  0.00  0.00     0.028 H 
ATOM     37  H14 non d ame     -31.819   7.433  25.534  0.00  0.00     0.028 H 
ATOM     38  H15 non d ame     -32.643   8.339  26.826  0.00  0.00     0.028 H 
ENDBRANCH  33  35
BRANCH  33  39
ATOM     39  C13 non d ame     -32.492   9.527  23.544  0.00  0.00    -0.071 C 
ATOM     40  H16 non d ame     -32.621  10.551  23.193  0.00  0.00     0.028 H 
ATOM     41  H17 non d ame     -31.676   9.054  22.996  0.00  0.00     0.028 H 
ATOM     42  H18 non d ame     -33.412   8.967  23.377  0.00  0.00     0.028 H 
ENDBRANCH  33  39
ENDBRANCH   7  33
ENDBRANCH   4   7
ENDBRANCH   1   3
BRANCH   1  43
ATOM     43  C15 non d ame     -31.737  15.236  25.483  0.00  0.00     0.240 C 
ATOM     44  O5  non d ame     -31.227  16.310  25.491  0.00  0.00    -0.271 OA
ATOM     45  N6  non d ame     -32.922  14.972  26.348  0.00  0.00    -0.355 N 
ATOM     46  H46 non d ame     -33.367  14.065  26.346  0.00  0.00     0.162 HD
BRANCH  45  47
ATOM     47  C20 non d ame     -33.448  16.047  27.218  0.00  0.00     0.013 C 
ATOM     48  H30 non d ame     -34.530  16.083  27.087  0.00  0.00     0.072 H 
BRANCH  47  49
ATOM     49  C21 non d ame     -32.832  17.366  26.811  0.00  0.00    -0.038 C 
ATOM     50  H31 non d ame     -32.540  17.854  27.741  0.00  0.00     0.036 H 
ATOM     51  H32 non d ame     -32.077  17.120  26.064  0.00  0.00     0.036 H 
BRANCH  49  52
ATOM     52  C22 non d ame     -33.840  18.310  26.119  0.00  0.00     0.018 C 
ATOM     53  H33 non d ame     -33.543  18.343  25.072  0.00  0.00     0.048 H 
ATOM     54  H34 non d ame     -34.827  17.939  26.395  0.00  0.00     0.048 H 
BRANCH  52  55
ATOM     55  C23 non d ame     -33.776  19.776  26.629  0.00  0.00     0.259 C 
ATOM     56  O7  non d ame     -32.770  20.403  26.536  0.00  0.00    -0.265 OA
BRANCH  55  57
ATOM     57  O8  non d ame     -34.930  20.359  27.223  0.00  0.00    -0.317 OA
BRANCH  57  58
ATOM     58  C29 non d ame     -35.389  19.679  28.395  0.00  0.00     0.052 C 
ATOM     59  H47 non d ame     -34.745  18.806  28.500  0.00  0.00     0.082 H 
ATOM     60  H48 non d ame     -35.419  20.433  29.181  0.00  0.00     0.082 H 
BRANCH  58  61
ATOM     61  C35 non d ame     -36.838  19.191  28.127  0.00  0.00    -0.034 A 
ATOM     62  C30 non d ame     -37.153  17.842  28.258  0.00  0.00    -0.075 A 
ATOM     63  C31 non d ame     -38.455  17.403  28.017  0.00  0.00    -0.082 A 
ATOM     64  H49 non d ame     -36.381  17.128  28.546  0.00  0.00     0.084 H 
ATOM     65  C32 non d ame     -39.442  18.319  27.644  0.00  0.00    -0.083 A 
ATOM     66  H50 non d ame     -38.699  16.345  28.122  0.00  0.00     0.083 H 
ATOM     67  C33 non d ame     -39.121  19.663  27.512  0.00  0.00    -0.082 A 
ATOM     68  H51 non d ame     -40.463  17.984  27.455  0.00  0.00     0.083 H 
ATOM     69  C34 non d ame     -37.823  20.106  27.753  0.00  0.00    -0.075 A 
ATOM     70  H52 non d ame     -39.894  20.375  27.218  0.00  0.00     0.083 H 
ATOM     71  H53 non d ame     -37.579  21.164  27.649  0.00  0.00     0.084 H 
ENDBRANCH  58  61
ENDBRANCH  57  58
ENDBRANCH  55  57
ENDBRANCH  52  55
ENDBRANCH  49  52
ENDBRANCH  47  49
BRANCH  47  72
ATOM     72  C24 non d ame     -33.100  15.748  28.674  0.00  0.00    -0.039 C 
ATOM     73  H35 non d ame     -32.714  16.685  29.077  0.00  0.00     0.036 H 
ATOM     74  H36 non d ame     -33.998  15.301  29.101  0.00  0.00     0.036 H 
BRANCH  72  75
ATOM     75  C25 non d ame     -31.929  14.663  28.794  0.00  0.00    -0.001 C 
ATOM     76  C26 non d ame     -32.559  13.202  29.208  0.00  0.00    -0.035 C 
ATOM     77  C27 non d ame     -31.881  12.720  30.277  0.00  0.00     0.085 C 
ATOM     78  H38 non d ame     -33.574  13.325  29.585  0.00  0.00     0.036 H 
ATOM     79  H39 non d ame     -32.354  12.470  28.425  0.00  0.00     0.036 H 
ATOM     80  N5  non d ame     -31.064  13.863  30.832  0.00  0.00    -0.049 N 
ATOM     81  H40 non d ame     -32.644  12.441  31.004  0.00  0.00     0.075 H 
ATOM     82  H41 non d ame     -31.207  11.963  29.877  0.00  0.00     0.075 H 
ATOM     83  C28 non d ame     -31.065  15.004  29.691  0.00  0.00     0.193 C 
ATOM     84  H42 non d ame     -31.568  14.210  31.635  0.00  0.00     0.280 HD
ATOM     85  H43 non d ame     -30.122  13.514  30.938  0.00  0.00     0.280 HD
ATOM     86  H44 non d ame     -30.185  15.164  29.068  0.00  0.00     0.129 H 
ATOM     87  H37 non d ame     -31.254  14.687  27.939  0.00  0.00     0.046 H 
BRANCH  83  88
ATOM     88  O6  non d ame     -31.362  16.277  30.268  0.00  0.00    -0.369 OA
ATOM     89  H45 non d ame     -32.157  16.634  29.865  0.00  0.00     0.212 HD
ENDBRANCH  83  88
ENDBRANCH  72  75
ENDBRANCH  47  72
ENDBRANCH  45  47
ENDBRANCH   1  43
BRANCH   1  90
ATOM     90  C16 non d ame     -31.115  14.617  23.126  0.00  0.00    -0.035 C 
ATOM     91  H21 non d ame     -31.656  13.876  22.541  0.00  0.00     0.037 H 
ATOM     92  H22 non d ame     -31.470  15.647  23.166  0.00  0.00     0.037 H 
BRANCH  90  93
ATOM     93  C17 non d ame     -29.668  14.672  22.539  0.00  0.00    -0.059 C 
ATOM     94  H23 non d ame     -28.997  14.973  23.343  0.00  0.00     0.038 H 
BRANCH  93  95
ATOM     95  C18 non d ame     -29.191  13.279  22.018  0.00  0.00    -0.073 C 
ATOM     96  H24 non d ame     -28.489  12.844  22.730  0.00  0.00     0.028 H 
ATOM     97  H25 non d ame     -30.051  12.618  21.909  0.00  0.00     0.028 H 
ATOM     98  H26 non d ame     -28.701  13.400  21.052  0.00  0.00     0.028 H 
ENDBRANCH  93  95
BRANCH  93  99
ATOM     99  C19 non d ame     -29.564  15.730  21.437  0.00  0.00    -0.073 C 
ATOM    100  H27 non d ame     -28.675  16.339  21.602  0.00  0.00     0.028 H 
ATOM    101  H28 non d ame     -29.493  15.239  20.466  0.00  0.00     0.028 H 
ATOM    102  H29 non d ame     -30.449  16.365  21.459  0.00  0.00     0.028 H 
ENDBRANCH  93  99
ENDBRANCH  90  93
ENDBRANCH   1  90
TORSDOF 26
ENDMDL
MODEL 18
REMARK VINA RESULT:      -6.6      3.111      9.856
REMARK  26 active torsions:
REMARK  status: ('A' for Active; 'I' for Inactive)
REMARK    1  A    between atoms: C2_2  and  C3_3 
REMARK    2  A    between atoms: C4_6  and  C5_7 
REMARK       I    between atoms: C5_7  and  N2_9 
REMARK    3  A    between atoms: N2_9  and  C6_10 
REMARK    4  A    between atoms: C6_10  and  C7_11 
REMARK    5  A    between atoms: C6_10  and  C8_13 
REMARK       I    between atoms: C7_11  and  N3_14 
REMARK    6  A    between atoms: N3_14  and  C9_15 
REMARK    7  A    between atoms: C9_15  and  C10_16 
REMARK    8  A    between atoms: C9_15  and  C11_18 
REMARK       I    between atoms: C10_16  and  N4_21 
REMARK    9  A    between atoms: C11_18  and  C12_19 
REMARK   10  A    between atoms: C11_18  and  C13_20 
REMARK   11  A    between atoms: N4_21  and  C14_22 
REMARK   12  A    between atoms: C14_22  and  C15_23 
REMARK   13  A    between atoms: C14_22  and  C16_25 
REMARK       I    between atoms: C15_23  and  N6_40 
REMARK   14  A    between atoms: C16_25  and  C17_26 
REMARK   15  A    between atoms: C17_26  and  C18_27 
REMARK   16  A    between atoms: C17_26  and  C19_28 
REMARK   17  A    between atoms: C20_29  and  C21_30 
REMARK   18  A    between atoms: C20_29  and  C24_33 
REMARK   19  A    between atoms: C20_29  and  N6_40 
REMARK   20  A    between atoms: C21_30  and  C22_31 
REMARK   21  A    between atoms: C22_31  and  C23_32 
REMARK   22  A    between atoms: C23_32  and  O8_43 
REMARK   23  A    between atoms: C24_33  and  C25_34 
REMARK   24  A    between atoms: C28_38  and  O6_39 
REMARK   25  A    between atoms: C29_42  and  O8_43 
REMARK   26  A    between atoms: C29_42  and  C35_49 
ROOT
ATOM      1  C14 non d ame     -36.372  13.362  26.211  0.00  0.00     0.089 C 
ATOM      2  H20 non d ame     -37.340  13.251  26.701  0.00  0.00     0.087 H 
ENDROOT
BRANCH   1   3
ATOM      3  N4  non d ame     -36.028  14.775  26.235  0.00  0.00    -0.346 N 
ATOM      4  C10 non d ame     -37.061  15.805  26.614  0.00  0.00     0.241 C 
ATOM      5  O4  non d ame     -38.166  15.473  26.894  0.00  0.00    -0.271 OA
ATOM      6  H19 non d ame     -35.083  15.038  25.991  0.00  0.00     0.163 HD
BRANCH   4   7
ATOM      7  C9  non d ame     -36.686  17.264  26.638  0.00  0.00     0.092 C 
ATOM      8  H11 non d ame     -36.869  17.664  27.635  0.00  0.00     0.088 H 
BRANCH   7   9
ATOM      9  N3  non d ame     -35.251  17.404  26.371  0.00  0.00    -0.346 N 
ATOM     10  C7  non d ame     -34.386  17.984  27.368  0.00  0.00     0.240 C 
ATOM     11  O3  non d ame     -34.828  18.344  28.391  0.00  0.00    -0.271 OA
ATOM     12  H10 non d ame     -34.857  17.100  25.492  0.00  0.00     0.163 HD
BRANCH  10  13
ATOM     13  C6  non d ame     -32.861  18.135  27.077  0.00  0.00     0.086 C 
ATOM     14  H6  non d ame     -32.239  17.624  27.812  0.00  0.00     0.086 H 
BRANCH  13  15
ATOM     15  N2  non d ame     -32.564  17.529  25.789  0.00  0.00    -0.343 N 
ATOM     16  C5  non d ame     -31.817  16.271  25.738  0.00  0.00     0.273 C 
ATOM     17  O2  non d ame     -31.456  15.755  26.738  0.00  0.00    -0.266 OA
ATOM     18  H5  non d ame     -32.874  17.979  24.939  0.00  0.00     0.163 HD
BRANCH  16  19
ATOM     19  C4  non d ame     -31.498  15.620  24.383  0.00  0.00     0.154 A 
ATOM     20  C1  non d ame     -31.353  16.277  23.121  0.00  0.00    -0.017 A 
ATOM     21  C2  non d ame     -31.065  15.242  22.203  0.00  0.00     0.077 A 
ATOM     22  H1  non d ame     -31.443  17.342  22.904  0.00  0.00     0.091 H 
ATOM     23  O1  non d ame     -31.047  14.126  22.871  0.00  0.00    -0.218 OA
ATOM     24  N1  non d ame     -31.297  14.321  24.145  0.00  0.00    -0.123 NA
BRANCH  21  25
ATOM     25  C3  non d ame     -30.819  15.404  20.709  0.00  0.00    -0.029 C 
ATOM     26  H2  non d ame     -31.052  14.470  20.199  0.00  0.00     0.036 H 
ATOM     27  H3  non d ame     -31.458  16.197  20.320  0.00  0.00     0.036 H 
ATOM     28  H4  non d ame     -29.775  15.662  20.538  0.00  0.00     0.036 H 
ENDBRANCH  21  25
ENDBRANCH  16  19
ENDBRANCH  13  15
BRANCH  13  29
ATOM     29  C8  non d ame     -32.491  19.596  27.058  0.00  0.00    -0.049 C 
ATOM     30  H7  non d ame     -33.163  20.149  27.713  0.00  0.00     0.030 H 
ATOM     31  H8  non d ame     -31.466  19.716  27.406  0.00  0.00     0.030 H 
ATOM     32  H9  non d ame     -32.578  19.980  26.041  0.00  0.00     0.030 H 
ENDBRANCH  13  29
ENDBRANCH  10  13
ENDBRANCH   7   9
BRANCH   7  33
ATOM     33  C11 non d ame     -37.492  18.024  25.544  0.00  0.00    -0.033 C 
ATOM     34  H12 non d ame     -38.544  17.985  25.824  0.00  0.00     0.042 H 
BRANCH  33  35
ATOM     35  C12 non d ame     -37.079  19.527  25.477  0.00  0.00    -0.071 C 
ATOM     36  H13 non d ame     -37.364  19.940  24.509  0.00  0.00     0.028 H 
ATOM     37  H14 non d ame     -37.583  20.079  26.270  0.00  0.00     0.028 H 
ATOM     38  H15 non d ame     -36.000  19.614  25.603  0.00  0.00     0.028 H 
ENDBRANCH  33  35
BRANCH  33  39
ATOM     39  C13 non d ame     -37.336  17.331  24.153  0.00  0.00    -0.071 C 
ATOM     40  H16 non d ame     -36.442  16.706  24.155  0.00  0.00     0.028 H 
ATOM     41  H17 non d ame     -38.212  16.713  23.953  0.00  0.00     0.028 H 
ATOM     42  H18 non d ame     -37.245  18.091  23.376  0.00  0.00     0.028 H 
ENDBRANCH  33  39
ENDBRANCH   7  33
ENDBRANCH   4   7
ENDBRANCH   1   3
BRANCH   1  43
ATOM     43  C15 non d ame     -35.251  12.566  26.940  0.00  0.00     0.240 C 
ATOM     44  O5  non d ame     -35.537  11.652  27.644  0.00  0.00    -0.271 OA
ATOM     45  N6  non d ame     -33.820  12.938  26.754  0.00  0.00    -0.355 N 
ATOM     46  H46 non d ame     -33.564  13.709  26.154  0.00  0.00     0.162 HD
BRANCH  45  47
ATOM     47  C20 non d ame     -32.766  12.171  27.453  0.00  0.00     0.013 C 
ATOM     48  H30 non d ame     -33.249  11.358  27.996  0.00  0.00     0.072 H 
BRANCH  47  49
ATOM     49  C21 non d ame     -32.043  13.081  28.419  0.00  0.00    -0.038 C 
ATOM     50  H31 non d ame     -31.009  12.736  28.432  0.00  0.00     0.036 H 
ATOM     51  H32 non d ame     -32.275  14.097  28.096  0.00  0.00     0.036 H 
BRANCH  49  52
ATOM     52  C22 non d ame     -32.564  12.954  29.868  0.00  0.00     0.018 C 
ATOM     53  H33 non d ame     -32.249  13.865  30.375  0.00  0.00     0.048 H 
ATOM     54  H34 non d ame     -33.625  12.718  29.779  0.00  0.00     0.048 H 
BRANCH  52  55
ATOM     55  C23 non d ame     -31.929  11.779  30.661  0.00  0.00     0.259 C 
ATOM     56  O7  non d ame     -30.763  11.769  30.892  0.00  0.00    -0.265 OA
BRANCH  55  57
ATOM     57  O8  non d ame     -32.754  10.706  31.097  0.00  0.00    -0.317 OA
BRANCH  57  58
ATOM     58  C29 non d ame     -33.314   9.931  30.033  0.00  0.00     0.052 C 
ATOM     59  H47 non d ame     -33.498  10.635  29.221  0.00  0.00     0.082 H 
ATOM     60  H48 non d ame     -32.633   9.094  29.886  0.00  0.00     0.082 H 
BRANCH  58  61
ATOM     61  C35 non d ame     -34.680   9.372  30.515  0.00  0.00    -0.034 A 
ATOM     62  C30 non d ame     -34.917   8.001  30.493  0.00  0.00    -0.075 A 
ATOM     63  C31 non d ame     -36.143   7.498  30.926  0.00  0.00    -0.082 A 
ATOM     64  H49 non d ame     -34.144   7.321  30.136  0.00  0.00     0.084 H 
ATOM     65  C32 non d ame     -37.135   8.372  31.381  0.00  0.00    -0.083 A 
ATOM     66  H50 non d ame     -36.326   6.423  30.910  0.00  0.00     0.083 H 
ATOM     67  C33 non d ame     -36.894   9.739  31.398  0.00  0.00    -0.082 A 
ATOM     68  H51 non d ame     -38.096   7.987  31.723  0.00  0.00     0.083 H 
ATOM     69  C34 non d ame     -35.670  10.246  30.967  0.00  0.00    -0.075 A 
ATOM     70  H52 non d ame     -37.671  10.419  31.751  0.00  0.00     0.083 H 
ATOM     71  H53 non d ame     -35.488  11.320  30.985  0.00  0.00     0.084 H 
ENDBRANCH  58  61
ENDBRANCH  57  58
ENDBRANCH  55  57
ENDBRANCH  52  55
ENDBRANCH  49  52
ENDBRANCH  47  49
BRANCH  47  72
ATOM     72  C24 non d ame     -31.773  11.612  26.437  0.00  0.00    -0.039 C 
ATOM     73  H35 non d ame     -31.363  12.483  25.924  0.00  0.00     0.036 H 
ATOM     74  H36 non d ame     -31.115  10.955  27.005  0.00  0.00     0.036 H 
BRANCH  72  75
ATOM     75  C25 non d ame     -32.501  10.711  25.330  0.00  0.00    -0.001 C 
ATOM     76  C26 non d ame     -33.311   9.479  26.056  0.00  0.00    -0.035 C 
ATOM     77  C27 non d ame     -32.955   8.313  25.464  0.00  0.00     0.085 C 
ATOM     78  H38 non d ame     -32.968   9.359  27.083  0.00  0.00     0.036 H 
ATOM     79  H39 non d ame     -34.378   9.556  25.844  0.00  0.00     0.036 H 
ATOM     80  N5  non d ame     -31.734   8.601  24.624  0.00  0.00    -0.049 N 
ATOM     81  H40 non d ame     -32.677   7.646  26.280  0.00  0.00     0.075 H 
ATOM     82  H41 non d ame     -33.785   8.055  24.808  0.00  0.00     0.075 H 
ATOM     83  C28 non d ame     -31.647  10.208  24.502  0.00  0.00     0.193 C 
ATOM     84  H42 non d ame     -30.939   8.275  25.154  0.00  0.00     0.280 HD
ATOM     85  H43 non d ame     -31.922   8.218  23.708  0.00  0.00     0.280 HD
ATOM     86  H44 non d ame     -31.944  10.710  23.581  0.00  0.00     0.129 H 
ATOM     87  H37 non d ame     -33.054  11.311  24.608  0.00  0.00     0.046 H 
BRANCH  83  88
ATOM     88  O6  non d ame     -30.314  10.651  24.766  0.00  0.00    -0.369 OA
ATOM     89  H45 non d ame     -30.084  11.356  24.156  0.00  0.00     0.212 HD
ENDBRANCH  83  88
ENDBRANCH  72  75
ENDBRANCH  47  72
ENDBRANCH  45  47
ENDBRANCH   1  43
BRANCH   1  90
ATOM     90  C16 non d ame     -36.470  12.898  24.767  0.00  0.00    -0.035 C 
ATOM     91  H21 non d ame     -36.201  13.766  24.166  0.00  0.00     0.037 H 
ATOM     92  H22 non d ame     -35.869  11.990  24.714  0.00  0.00     0.037 H 
BRANCH  90  93
ATOM     93  C17 non d ame     -37.917  12.496  24.335  0.00  0.00    -0.059 C 
ATOM     94  H23 non d ame     -38.399  12.030  25.194  0.00  0.00     0.038 H 
BRANCH  93  95
ATOM     95  C18 non d ame     -38.774  13.733  23.921  0.00  0.00    -0.073 C 
ATOM     96  H24 non d ame     -39.626  13.404  23.325  0.00  0.00     0.028 H 
ATOM     97  H25 non d ame     -39.134  14.242  24.815  0.00  0.00     0.028 H 
ATOM     98  H26 non d ame     -38.164  14.419  23.333  0.00  0.00     0.028 H 
ENDBRANCH  93  95
BRANCH  93  99
ATOM     99  C19 non d ame     -37.883  11.456  23.212  0.00  0.00    -0.073 C 
ATOM    100  H27 non d ame     -38.597  10.661  23.432  0.00  0.00     0.028 H 
ATOM    101  H28 non d ame     -38.150  11.931  22.267  0.00  0.00     0.028 H 
ATOM    102  H29 non d ame     -36.881  11.035  23.136  0.00  0.00     0.028 H 
ENDBRANCH  93  99
ENDBRANCH  90  93
ENDBRANCH   1  90
TORSDOF 26
ENDMDL
MODEL 19
REMARK VINA RESULT:      -6.6      2.836      5.446
REMARK  26 active torsions:
REMARK  status: ('A' for Active; 'I' for Inactive)
REMARK    1  A    between atoms: C2_2  and  C3_3 
REMARK    2  A    between atoms: C4_6  and  C5_7 
REMARK       I    between atoms: C5_7  and  N2_9 
REMARK    3  A    between atoms: N2_9  and  C6_10 
REMARK    4  A    between atoms: C6_10  and  C7_11 
REMARK    5  A    between atoms: C6_10  and  C8_13 
REMARK       I    between atoms: C7_11  and  N3_14 
REMARK    6  A    between atoms: N3_14  and  C9_15 
REMARK    7  A    between atoms: C9_15  and  C10_16 
REMARK    8  A    between atoms: C9_15  and  C11_18 
REMARK       I    between atoms: C10_16  and  N4_21 
REMARK    9  A    between atoms: C11_18  and  C12_19 
REMARK   10  A    between atoms: C11_18  and  C13_20 
REMARK   11  A    between atoms: N4_21  and  C14_22 
REMARK   12  A    between atoms: C14_22  and  C15_23 
REMARK   13  A    between atoms: C14_22  and  C16_25 
REMARK       I    between atoms: C15_23  and  N6_40 
REMARK   14  A    between atoms: C16_25  and  C17_26 
REMARK   15  A    between atoms: C17_26  and  C18_27 
REMARK   16  A    between atoms: C17_26  and  C19_28 
REMARK   17  A    between atoms: C20_29  and  C21_30 
REMARK   18  A    between atoms: C20_29  and  C24_33 
REMARK   19  A    between atoms: C20_29  and  N6_40 
REMARK   20  A    between atoms: C21_30  and  C22_31 
REMARK   21  A    between atoms: C22_31  and  C23_32 
REMARK   22  A    between atoms: C23_32  and  O8_43 
REMARK   23  A    between atoms: C24_33  and  C25_34 
REMARK   24  A    between atoms: C28_38  and  O6_39 
REMARK   25  A    between atoms: C29_42  and  O8_43 
REMARK   26  A    between atoms: C29_42  and  C35_49 
ROOT
ATOM      1  C14 non d ame     -32.564   9.475  25.354  0.00  0.00     0.089 C 
ATOM      2  H20 non d ame     -31.743   8.758  25.375  0.00  0.00     0.087 H 
ENDROOT
BRANCH   1   3
ATOM      3  N4  non d ame     -33.563   9.026  26.312  0.00  0.00    -0.346 N 
ATOM      4  C10 non d ame     -33.230   7.947  27.311  0.00  0.00     0.241 C 
ATOM      5  O4  non d ame     -32.151   7.453  27.324  0.00  0.00    -0.271 OA
ATOM      6  H19 non d ame     -34.476   9.457  26.283  0.00  0.00     0.163 HD
BRANCH   4   7
ATOM      7  C9  non d ame     -34.275   7.497  28.298  0.00  0.00     0.092 C 
ATOM      8  H11 non d ame     -34.038   7.902  29.281  0.00  0.00     0.088 H 
BRANCH   7   9
ATOM      9  N3  non d ame     -35.581   8.038  27.909  0.00  0.00    -0.346 N 
ATOM     10  C7  non d ame     -36.300   8.903  28.811  0.00  0.00     0.240 C 
ATOM     11  O3  non d ame     -35.843   9.173  29.855  0.00  0.00    -0.271 OA
ATOM     12  H10 non d ame     -35.988   7.812  27.013  0.00  0.00     0.163 HD
BRANCH  10  13
ATOM     13  C6  non d ame     -37.690   9.474  28.394  0.00  0.00     0.086 C 
ATOM     14  H6  non d ame     -37.993  10.329  28.997  0.00  0.00     0.086 H 
BRANCH  13  15
ATOM     15  N2  non d ame     -37.615   9.940  27.019  0.00  0.00    -0.343 N 
ATOM     16  C5  non d ame     -37.458  11.371  26.750  0.00  0.00     0.273 C 
ATOM     17  O2  non d ame     -37.396  12.139  27.646  0.00  0.00    -0.266 OA
ATOM     18  H5  non d ame     -37.672   9.277  26.260  0.00  0.00     0.163 HD
BRANCH  16  19
ATOM     19  C4  non d ame     -37.376  11.877  25.301  0.00  0.00     0.154 A 
ATOM     20  C1  non d ame     -37.666  13.196  24.829  0.00  0.00    -0.017 A 
ATOM     21  C2  non d ame     -37.439  13.141  23.436  0.00  0.00     0.077 A 
ATOM     22  H1  non d ame     -37.990  14.061  25.408  0.00  0.00     0.091 H 
ATOM     23  O1  non d ame     -37.063  11.929  23.152  0.00  0.00    -0.218 OA
ATOM     24  N1  non d ame     -37.019  11.173  24.225  0.00  0.00    -0.123 NA
BRANCH  21  25
ATOM     25  C3  non d ame     -37.603  14.289  22.450  0.00  0.00    -0.029 C 
ATOM     26  H2  non d ame     -37.457  13.921  21.435  0.00  0.00     0.036 H 
ATOM     27  H3  non d ame     -38.606  14.707  22.541  0.00  0.00     0.036 H 
ATOM     28  H4  non d ame     -36.867  15.063  22.665  0.00  0.00     0.036 H 
ENDBRANCH  21  25
ENDBRANCH  16  19
ENDBRANCH  13  15
BRANCH  13  29
ATOM     29  C8  non d ame     -38.737   8.396  28.517  0.00  0.00    -0.049 C 
ATOM     30  H7  non d ame     -39.177   8.202  27.540  0.00  0.00     0.030 H 
ATOM     31  H8  non d ame     -38.276   7.483  28.894  0.00  0.00     0.030 H 
ATOM     32  H9  non d ame     -39.515   8.723  29.209  0.00  0.00     0.030 H 
ENDBRANCH  13  29
ENDBRANCH  10  13
ENDBRANCH   7   9
BRANCH   7  33
ATOM     33  C11 non d ame     -34.343   5.941  28.306  0.00  0.00    -0.033 C 
ATOM     34  H12 non d ame     -33.334   5.567  28.139  0.00  0.00     0.042 H 
BRANCH  33  35
ATOM     35  C12 non d ame     -34.821   5.402  29.691  0.00  0.00    -0.071 C 
ATOM     36  H13 non d ame     -34.052   5.593  30.440  0.00  0.00     0.028 H 
ATOM     37  H14 non d ame     -35.743   5.905  29.979  0.00  0.00     0.028 H 
ATOM     38  H15 non d ame     -34.999   4.328  29.621  0.00  0.00     0.028 H 
ENDBRANCH  33  35
BRANCH  33  39
ATOM     39  C13 non d ame     -35.251   5.415  27.149  0.00  0.00    -0.071 C 
ATOM     40  H16 non d ame     -35.989   6.175  26.892  0.00  0.00     0.028 H 
ATOM     41  H17 non d ame     -34.637   5.194  26.276  0.00  0.00     0.028 H 
ATOM     42  H18 non d ame     -35.762   4.508  27.471  0.00  0.00     0.028 H 
ENDBRANCH  33  39
ENDBRANCH   7  33
ENDBRANCH   4   7
ENDBRANCH   1   3
BRANCH   1  43
ATOM     43  C15 non d ame     -32.102  10.906  25.755  0.00  0.00     0.240 C 
ATOM     44  O5  non d ame     -31.082  11.054  26.347  0.00  0.00    -0.271 OA
ATOM     45  N6  non d ame     -32.927  12.094  25.393  0.00  0.00    -0.355 N 
ATOM     46  H46 non d ame     -33.793  11.982  24.886  0.00  0.00     0.162 HD
BRANCH  45  47
ATOM     47  C20 non d ame     -32.473  13.447  25.781  0.00  0.00     0.013 C 
ATOM     48  H30 non d ame     -32.479  13.503  26.870  0.00  0.00     0.072 H 
BRANCH  47  49
ATOM     49  C21 non d ame     -33.419  14.476  25.205  0.00  0.00    -0.038 C 
ATOM     50  H31 non d ame     -32.785  15.221  24.723  0.00  0.00     0.036 H 
ATOM     51  H32 non d ame     -34.143  13.913  24.616  0.00  0.00     0.036 H 
BRANCH  49  52
ATOM     52  C22 non d ame     -34.225  15.223  26.290  0.00  0.00     0.018 C 
ATOM     53  H33 non d ame     -35.049  15.705  25.766  0.00  0.00     0.048 H 
ATOM     54  H34 non d ame     -34.429  14.485  27.066  0.00  0.00     0.048 H 
BRANCH  52  55
ATOM     55  C23 non d ame     -33.431  16.365  26.984  0.00  0.00     0.259 C 
ATOM     56  O7  non d ame     -32.789  17.131  26.339  0.00  0.00    -0.265 OA
BRANCH  55  57
ATOM     57  O8  non d ame     -33.469  16.478  28.401  0.00  0.00    -0.317 OA
BRANCH  57  58
ATOM     58  C29 non d ame     -32.190  16.349  29.030  0.00  0.00     0.052 C 
ATOM     59  H47 non d ame     -31.472  16.773  28.328  0.00  0.00     0.082 H 
ATOM     60  H48 non d ame     -32.304  16.783  30.023  0.00  0.00     0.082 H 
BRANCH  58  61
ATOM     61  C35 non d ame     -31.886  14.835  29.189  0.00  0.00    -0.034 A 
ATOM     62  C30 non d ame     -30.590  14.362  29.001  0.00  0.00    -0.075 A 
ATOM     63  C31 non d ame     -30.317  13.002  29.143  0.00  0.00    -0.082 A 
ATOM     64  H49 non d ame     -29.790  15.055  28.742  0.00  0.00     0.084 H 
ATOM     65  C32 non d ame     -31.345  12.114  29.473  0.00  0.00    -0.083 A 
ATOM     66  H50 non d ame     -29.301  12.635  28.997  0.00  0.00     0.083 H 
ATOM     67  C33 non d ame     -32.636  12.591  29.655  0.00  0.00    -0.082 A 
ATOM     68  H51 non d ame     -31.139  11.050  29.587  0.00  0.00     0.083 H 
ATOM     69  C34 non d ame     -32.913  13.949  29.516  0.00  0.00    -0.075 A 
ATOM     70  H52 non d ame     -33.436  11.895  29.910  0.00  0.00     0.083 H 
ATOM     71  H53 non d ame     -33.929  14.316  29.663  0.00  0.00     0.084 H 
ENDBRANCH  58  61
ENDBRANCH  57  58
ENDBRANCH  55  57
ENDBRANCH  52  55
ENDBRANCH  49  52
ENDBRANCH  47  49
BRANCH  47  72
ATOM     72  C24 non d ame     -31.064  13.692  25.245  0.00  0.00    -0.039 C 
ATOM     73  H35 non d ame     -30.639  14.463  25.890  0.00  0.00     0.036 H 
ATOM     74  H36 non d ame     -30.598  12.708  25.194  0.00  0.00     0.036 H 
BRANCH  72  75
ATOM     75  C25 non d ame     -31.090  14.282  23.756  0.00  0.00    -0.001 C 
ATOM     76  C26 non d ame     -30.154  13.356  22.772  0.00  0.00    -0.035 C 
ATOM     77  C27 non d ame     -29.292  14.160  22.104  0.00  0.00     0.085 C 
ATOM     78  H38 non d ame     -29.500  12.719  23.366  0.00  0.00     0.036 H 
ATOM     79  H39 non d ame     -30.762  12.920  21.978  0.00  0.00     0.036 H 
ATOM     80  N5  non d ame     -29.331  15.508  22.784  0.00  0.00    -0.049 N 
ATOM     81  H40 non d ame     -28.308  13.716  22.250  0.00  0.00     0.075 H 
ATOM     82  H41 non d ame     -29.703  14.257  21.100  0.00  0.00     0.075 H 
ATOM     83  C28 non d ame     -30.642  15.493  23.726  0.00  0.00     0.193 C 
ATOM     84  H42 non d ame     -28.513  15.554  23.373  0.00  0.00     0.280 HD
ATOM     85  H43 non d ame     -29.467  16.192  22.053  0.00  0.00     0.280 HD
ATOM     86  H44 non d ame     -31.544  16.029  23.427  0.00  0.00     0.129 H 
ATOM     87  H37 non d ame     -32.102  14.501  23.417  0.00  0.00     0.046 H 
BRANCH  83  88
ATOM     88  O6  non d ame     -30.320  15.982  25.029  0.00  0.00    -0.369 OA
ATOM     89  H45 non d ame     -30.777  16.812  25.181  0.00  0.00     0.212 HD
ENDBRANCH  83  88
ENDBRANCH  72  75
ENDBRANCH  47  72
ENDBRANCH  45  47
ENDBRANCH   1  43
BRANCH   1  90
ATOM     90  C16 non d ame     -33.184   9.509  23.967  0.00  0.00    -0.035 C 
ATOM     91  H21 non d ame     -34.184   9.096  24.088  0.00  0.00     0.037 H 
ATOM     92  H22 non d ame     -33.056  10.534  23.619  0.00  0.00     0.037 H 
BRANCH  90  93
ATOM     93  C17 non d ame     -32.453   8.596  22.932  0.00  0.00    -0.059 C 
ATOM     94  H23 non d ame     -32.241   7.646  23.422  0.00  0.00     0.038 H 
BRANCH  93  95
ATOM     95  C18 non d ame     -33.338   8.298  21.680  0.00  0.00    -0.073 C 
ATOM     96  H24 non d ame     -33.077   8.987  20.877  0.00  0.00     0.028 H 
ATOM     97  H25 non d ame     -33.165   7.274  21.348  0.00  0.00     0.028 H 
ATOM     98  H26 non d ame     -34.389   8.423  21.939  0.00  0.00     0.028 H 
ENDBRANCH  93  95
BRANCH  93  99
ATOM     99  C19 non d ame     -31.111   9.204  22.518  0.00  0.00    -0.073 C 
ATOM    100  H27 non d ame     -30.328   8.852  23.191  0.00  0.00     0.028 H 
ATOM    101  H28 non d ame     -30.873   8.903  21.497  0.00  0.00     0.028 H 
ATOM    102  H29 non d ame     -31.173  10.291  22.570  0.00  0.00     0.028 H 
ENDBRANCH  93  99
ENDBRANCH  90  93
ENDBRANCH   1  90
TORSDOF 26
ENDMDL
MODEL 20
REMARK VINA RESULT:      -6.6      2.466      4.755
REMARK  26 active torsions:
REMARK  status: ('A' for Active; 'I' for Inactive)
REMARK    1  A    between atoms: C2_2  and  C3_3 
REMARK    2  A    between atoms: C4_6  and  C5_7 
REMARK       I    between atoms: C5_7  and  N2_9 
REMARK    3  A    between atoms: N2_9  and  C6_10 
REMARK    4  A    between atoms: C6_10  and  C7_11 
REMARK    5  A    between atoms: C6_10  and  C8_13 
REMARK       I    between atoms: C7_11  and  N3_14 
REMARK    6  A    between atoms: N3_14  and  C9_15 
REMARK    7  A    between atoms: C9_15  and  C10_16 
REMARK    8  A    between atoms: C9_15  and  C11_18 
REMARK       I    between atoms: C10_16  and  N4_21 
REMARK    9  A    between atoms: C11_18  and  C12_19 
REMARK   10  A    between atoms: C11_18  and  C13_20 
REMARK   11  A    between atoms: N4_21  and  C14_22 
REMARK   12  A    between atoms: C14_22  and  C15_23 
REMARK   13  A    between atoms: C14_22  and  C16_25 
REMARK       I    between atoms: C15_23  and  N6_40 
REMARK   14  A    between atoms: C16_25  and  C17_26 
REMARK   15  A    between atoms: C17_26  and  C18_27 
REMARK   16  A    between atoms: C17_26  and  C19_28 
REMARK   17  A    between atoms: C20_29  and  C21_30 
REMARK   18  A    between atoms: C20_29  and  C24_33 
REMARK   19  A    between atoms: C20_29  and  N6_40 
REMARK   20  A    between atoms: C21_30  and  C22_31 
REMARK   21  A    between atoms: C22_31  and  C23_32 
REMARK   22  A    between atoms: C23_32  and  O8_43 
REMARK   23  A    between atoms: C24_33  and  C25_34 
REMARK   24  A    between atoms: C28_38  and  O6_39 
REMARK   25  A    between atoms: C29_42  and  O8_43 
REMARK   26  A    between atoms: C29_42  and  C35_49 
ROOT
ATOM      1  C14 non d ame     -32.349   8.767  24.989  0.00  0.00     0.089 C 
ATOM      2  H20 non d ame     -31.305   8.454  24.983  0.00  0.00     0.087 H 
ENDROOT
BRANCH   1   3
ATOM      3  N4  non d ame     -33.167   7.565  25.055  0.00  0.00    -0.346 N 
ATOM      4  C10 non d ame     -32.543   6.208  24.859  0.00  0.00     0.241 C 
ATOM      5  O4  non d ame     -31.379   6.106  24.647  0.00  0.00    -0.271 OA
ATOM      6  H19 non d ame     -34.155   7.673  25.234  0.00  0.00     0.163 HD
BRANCH   4   7
ATOM      7  C9  non d ame     -33.403   4.974  24.936  0.00  0.00     0.092 C 
ATOM      8  H11 non d ame     -32.792   4.130  25.257  0.00  0.00     0.088 H 
BRANCH   7   9
ATOM      9  N3  non d ame     -34.444   5.166  25.951  0.00  0.00    -0.346 N 
ATOM     10  C7  non d ame     -34.276   4.608  27.270  0.00  0.00     0.240 C 
ATOM     11  O3  non d ame     -33.310   4.002  27.533  0.00  0.00    -0.271 OA
ATOM     12  H10 non d ame     -35.284   5.685  25.738  0.00  0.00     0.163 HD
BRANCH  10  13
ATOM     13  C6  non d ame     -35.388   4.813  28.345  0.00  0.00     0.086 C 
ATOM     14  H6  non d ame     -35.207   4.240  29.253  0.00  0.00     0.086 H 
BRANCH  13  15
ATOM     15  N2  non d ame     -35.416   6.213  28.735  0.00  0.00    -0.343 N 
ATOM     16  C5  non d ame     -35.268   6.572  30.146  0.00  0.00     0.273 C 
ATOM     17  O2  non d ame     -35.131   5.727  30.962  0.00  0.00    -0.266 OA
ATOM     18  H5  non d ame     -35.537   6.928  28.032  0.00  0.00     0.163 HD
BRANCH  16  19
ATOM     19  C4  non d ame     -35.294   8.048  30.573  0.00  0.00     0.154 A 
ATOM     20  C1  non d ame     -35.179   8.567  31.901  0.00  0.00    -0.017 A 
ATOM     21  C2  non d ame     -35.263   9.969  31.751  0.00  0.00     0.077 A 
ATOM     22  H1  non d ame     -35.054   8.011  32.830  0.00  0.00     0.091 H 
ATOM     23  O1  non d ame     -35.407  10.216  30.483  0.00  0.00    -0.218 OA
ATOM     24  N1  non d ame     -35.428   9.111  29.774  0.00  0.00    -0.123 NA
BRANCH  21  25
ATOM     25  C3  non d ame     -35.194  11.001  32.870  0.00  0.00    -0.029 C 
ATOM     26  H2  non d ame     -36.105  10.950  33.467  0.00  0.00     0.036 H 
ATOM     27  H3  non d ame     -34.333  10.792  33.505  0.00  0.00     0.036 H 
ATOM     28  H4  non d ame     -35.096  11.997  32.440  0.00  0.00     0.036 H 
ENDBRANCH  21  25
ENDBRANCH  16  19
ENDBRANCH  13  15
BRANCH  13  29
ATOM     29  C8  non d ame     -36.723   4.410  27.773  0.00  0.00    -0.049 C 
ATOM     30  H7  non d ame     -37.378   4.076  28.577  0.00  0.00     0.030 H 
ATOM     31  H8  non d ame     -37.176   5.263  27.268  0.00  0.00     0.030 H 
ATOM     32  H9  non d ame     -36.582   3.597  27.059  0.00  0.00     0.030 H 
ENDBRANCH  13  29
ENDBRANCH  10  13
ENDBRANCH   7   9
BRANCH   7  33
ATOM     33  C11 non d ame     -34.072   4.721  23.553  0.00  0.00    -0.033 C 
ATOM     34  H12 non d ame     -33.996   3.655  23.341  0.00  0.00     0.042 H 
BRANCH  33  35
ATOM     35  C12 non d ame     -35.588   5.088  23.580  0.00  0.00    -0.071 C 
ATOM     36  H13 non d ame     -35.945   5.084  24.611  0.00  0.00     0.028 H 
ATOM     37  H14 non d ame     -35.731   6.078  23.150  0.00  0.00     0.028 H 
ATOM     38  H15 non d ame     -36.150   4.355  23.001  0.00  0.00     0.028 H 
ENDBRANCH  33  35
BRANCH  33  39
ATOM     39  C13 non d ame     -33.322   5.493  22.420  0.00  0.00    -0.071 C 
ATOM     40  H16 non d ame     -32.266   5.578  22.676  0.00  0.00     0.028 H 
ATOM     41  H17 non d ame     -33.427   4.952  21.480  0.00  0.00     0.028 H 
ATOM     42  H18 non d ame     -33.751   6.490  22.314  0.00  0.00     0.028 H 
ENDBRANCH  33  39
ENDBRANCH   7  33
ENDBRANCH   4   7
ENDBRANCH   1   3
BRANCH   1  43
ATOM     43  C15 non d ame     -32.686   9.664  26.215  0.00  0.00     0.240 C 
ATOM     44  O5  non d ame     -32.759   9.181  27.298  0.00  0.00    -0.271 OA
ATOM     45  N6  non d ame     -32.907  11.128  26.040  0.00  0.00    -0.355 N 
ATOM     46  H46 non d ame     -32.843  11.551  25.125  0.00  0.00     0.162 HD
BRANCH  45  47
ATOM     47  C20 non d ame     -33.225  11.966  27.216  0.00  0.00     0.013 C 
ATOM     48  H30 non d ame     -33.500  11.303  28.036  0.00  0.00     0.072 H 
BRANCH  47  49
ATOM     49  C21 non d ame     -34.382  12.880  26.881  0.00  0.00    -0.038 C 
ATOM     50  H31 non d ame     -35.160  12.233  26.474  0.00  0.00     0.036 H 
ATOM     51  H32 non d ame     -34.572  13.459  27.785  0.00  0.00     0.036 H 
BRANCH  49  52
ATOM     52  C22 non d ame     -34.039  13.900  25.773  0.00  0.00     0.018 C 
ATOM     53  H33 non d ame     -33.305  13.409  25.137  0.00  0.00     0.048 H 
ATOM     54  H34 non d ame     -34.995  14.218  25.359  0.00  0.00     0.048 H 
BRANCH  52  55
ATOM     55  C23 non d ame     -33.351  15.190  26.302  0.00  0.00     0.259 C 
ATOM     56  O7  non d ame     -33.769  15.743  27.268  0.00  0.00    -0.265 OA
BRANCH  55  57
ATOM     57  O8  non d ame     -32.224  15.713  25.610  0.00  0.00    -0.317 OA
BRANCH  57  58
ATOM     58  C29 non d ame     -32.507  16.140  24.274  0.00  0.00     0.052 C 
ATOM     59  H47 non d ame     -33.493  15.741  24.040  0.00  0.00     0.082 H 
ATOM     60  H48 non d ame     -32.338  17.216  24.266  0.00  0.00     0.082 H 
BRANCH  58  61
ATOM     61  C35 non d ame     -31.470  15.475  23.329  0.00  0.00    -0.034 A 
ATOM     62  C30 non d ame     -30.981  14.205  23.618  0.00  0.00    -0.075 A 
ATOM     63  C31 non d ame     -30.049  13.607  22.769  0.00  0.00    -0.082 A 
ATOM     64  H49 non d ame     -31.325  13.678  24.507  0.00  0.00     0.084 H 
ATOM     65  C32 non d ame     -29.606  14.285  21.630  0.00  0.00    -0.083 A 
ATOM     66  H50 non d ame     -29.669  12.610  22.997  0.00  0.00     0.083 H 
ATOM     67  C33 non d ame     -30.095  15.554  21.350  0.00  0.00    -0.082 A 
ATOM     68  H51 non d ame     -28.879  13.824  20.962  0.00  0.00     0.083 H 
ATOM     69  C34 non d ame     -31.027  16.154  22.193  0.00  0.00    -0.075 A 
ATOM     70  H52 non d ame     -29.746  16.081  20.461  0.00  0.00     0.083 H 
ATOM     71  H53 non d ame     -31.408  17.150  21.965  0.00  0.00     0.084 H 
ENDBRANCH  58  61
ENDBRANCH  57  58
ENDBRANCH  55  57
ENDBRANCH  52  55
ENDBRANCH  49  52
ENDBRANCH  47  49
BRANCH  47  72
ATOM     72  C24 non d ame     -32.007  12.804  27.598  0.00  0.00    -0.039 C 
ATOM     73  H35 non d ame     -31.365  12.800  26.716  0.00  0.00     0.036 H 
ATOM     74  H36 non d ame     -32.408  13.745  27.974  0.00  0.00     0.036 H 
BRANCH  72  75
ATOM     75  C25 non d ame     -31.176  12.133  28.791  0.00  0.00    -0.001 C 
ATOM     76  C26 non d ame     -32.199  11.366  29.823  0.00  0.00    -0.035 C 
ATOM     77  C27 non d ame     -31.938  11.780  31.086  0.00  0.00     0.085 C 
ATOM     78  H38 non d ame     -33.223  11.698  29.652  0.00  0.00     0.036 H 
ATOM     79  H39 non d ame     -31.971  10.299  29.853  0.00  0.00     0.036 H 
ATOM     80  N5  non d ame     -31.055  13.000  30.976  0.00  0.00    -0.049 N 
ATOM     81  H40 non d ame     -32.903  12.075  31.501  0.00  0.00     0.075 H 
ATOM     82  H41 non d ame     -31.371  10.972  31.547  0.00  0.00     0.075 H 
ATOM     83  C28 non d ame     -30.513  13.020  29.455  0.00  0.00     0.193 C 
ATOM     84  H42 non d ame     -31.655  13.801  31.114  0.00  0.00     0.280 HD
ATOM     85  H43 non d ame     -30.273  12.842  31.595  0.00  0.00     0.280 HD
ATOM     86  H44 non d ame     -29.491  12.715  29.229  0.00  0.00     0.129 H 
ATOM     87  H37 non d ame     -30.319  11.565  28.429  0.00  0.00     0.046 H 
BRANCH  83  88
ATOM     88  O6  non d ame     -30.655  14.328  28.898  0.00  0.00    -0.369 OA
ATOM     89  H45 non d ame     -29.821  14.799  28.972  0.00  0.00     0.212 HD
ENDBRANCH  83  88
ENDBRANCH  72  75
ENDBRANCH  47  72
ENDBRANCH  45  47
ENDBRANCH   1  43
BRANCH   1  90
ATOM     90  C16 non d ame     -32.670   9.516  23.705  0.00  0.00    -0.035 C 
ATOM     91  H21 non d ame     -33.375   8.882  23.170  0.00  0.00     0.037 H 
ATOM     92  H22 non d ame     -32.965  10.517  24.021  0.00  0.00     0.037 H 
BRANCH  90  93
ATOM     93  C17 non d ame     -31.437   9.697  22.762  0.00  0.00    -0.059 C 
ATOM     94  H23 non d ame     -31.704  10.438  22.008  0.00  0.00     0.038 H 
BRANCH  93  95
ATOM     95  C18 non d ame     -30.182  10.226  23.526  0.00  0.00    -0.073 C 
ATOM     96  H24 non d ame     -29.950  11.237  23.189  0.00  0.00     0.028 H 
ATOM     97  H25 non d ame     -30.388  10.240  24.596  0.00  0.00     0.028 H 
ATOM     98  H26 non d ame     -29.333   9.573  23.327  0.00  0.00     0.028 H 
ENDBRANCH  93  95
BRANCH  93  99
ATOM     99  C19 non d ame     -31.116   8.393  22.026  0.00  0.00    -0.073 C 
ATOM    100  H27 non d ame     -30.519   7.749  22.672  0.00  0.00     0.028 H 
ATOM    101  H28 non d ame     -32.044   7.885  21.764  0.00  0.00     0.028 H 
ATOM    102  H29 non d ame     -30.556   8.617  21.118  0.00  0.00     0.028 H 
ENDBRANCH  93  99
ENDBRANCH  90  93
ENDBRANCH   1  90
TORSDOF 26
ENDMDL
