MODEL 1
REMARK VINA RESULT:      -6.8      0.000      0.000
REMARK  26 active torsions:
REMARK  status: ('A' for Active; 'I' for Inactive)
REMARK    1  A    between atoms: C2_2  and  C3_3 
REMARK    2  A    between atoms: C4_6  and  C5_7 
REMARK       I    between atoms: C5_7  and  N2_9 
REMARK    3  A    between atoms: N2_9  and  C6_10 
REMARK    4  A    between atoms: C6_10  and  C7_11 
REMARK    5  A    between atoms: C6_10  and  C8_13 
REMARK       I    between atoms: C7_11  and  N3_14 
REMARK    6  A    between atoms: N3_14  and  C9_15 
REMARK    7  A    between atoms: C9_15  and  C10_16 
REMARK    8  A    between atoms: C9_15  and  C11_18 
REMARK       I    between atoms: C10_16  and  N4_21 
REMARK    9  A    between atoms: C11_18  and  C12_19 
REMARK   10  A    between atoms: C11_18  and  C13_20 
REMARK   11  A    between atoms: N4_21  and  C14_22 
REMARK   12  A    between atoms: C14_22  and  C15_23 
REMARK   13  A    between atoms: C14_22  and  C16_25 
REMARK       I    between atoms: C15_23  and  N6_40 
REMARK   14  A    between atoms: C16_25  and  C17_26 
REMARK   15  A    between atoms: C17_26  and  C18_27 
REMARK   16  A    between atoms: C17_26  and  C19_28 
REMARK   17  A    between atoms: C20_29  and  C21_30 
REMARK   18  A    between atoms: C20_29  and  C24_33 
REMARK   19  A    between atoms: C20_29  and  N6_40 
REMARK   20  A    between atoms: C21_30  and  C22_31 
REMARK   21  A    between atoms: C22_31  and  C23_32 
REMARK   22  A    between atoms: C23_32  and  O8_43 
REMARK   23  A    between atoms: C24_33  and  C25_34 
REMARK   24  A    between atoms: C28_38  and  O6_39 
REMARK   25  A    between atoms: C29_42  and  O8_43 
REMARK   26  A    between atoms: C29_42  and  C35_49 
ROOT
ATOM      1  C14 non d ame     -35.419   9.208  27.111  0.00  0.00     0.089 C 
ATOM      2  H20 non d ame     -35.350   8.432  27.874  0.00  0.00     0.087 H 
ENDROOT
BRANCH   1   3
ATOM      3  N4  non d ame     -34.651  10.352  27.579  0.00  0.00    -0.346 N 
ATOM      4  C10 non d ame     -33.265  10.161  28.140  0.00  0.00     0.241 C 
ATOM      5  O4  non d ame     -32.788   9.076  28.207  0.00  0.00    -0.271 OA
ATOM      6  H19 non d ame     -35.075  11.267  27.516  0.00  0.00     0.163 HD
BRANCH   4   7
ATOM      7  C9  non d ame     -32.482  11.357  28.616  0.00  0.00     0.092 C 
ATOM      8  H11 non d ame     -31.429  11.217  28.371  0.00  0.00     0.088 H 
BRANCH   7   9
ATOM      9  N3  non d ame     -32.937  12.555  27.903  0.00  0.00    -0.346 N 
ATOM     10  C7  non d ame     -32.197  13.041  26.766  0.00  0.00     0.240 C 
ATOM     11  O3  non d ame     -31.232  12.482  26.410  0.00  0.00    -0.271 OA
ATOM     12  H10 non d ame     -33.767  13.048  28.200  0.00  0.00     0.163 HD
BRANCH  10  13
ATOM     13  C6  non d ame     -32.685  14.318  26.013  0.00  0.00     0.086 C 
ATOM     14  H6  non d ame     -32.308  15.239  26.458  0.00  0.00     0.086 H 
BRANCH  13  15
ATOM     15  N2  non d ame     -32.187  14.281  24.649  0.00  0.00    -0.343 N 
ATOM     16  C5  non d ame     -31.202  15.273  24.213  0.00  0.00     0.273 C 
ATOM     17  O2  non d ame     -30.818  16.099  24.966  0.00  0.00    -0.266 OA
ATOM     18  H5  non d ame     -32.522  13.574  24.010  0.00  0.00     0.163 HD
BRANCH  16  19
ATOM     19  C4  non d ame     -30.666  15.244  22.772  0.00  0.00     0.154 A 
ATOM     20  C1  non d ame     -31.225  15.899  21.629  0.00  0.00    -0.017 A 
ATOM     21  C2  non d ame     -30.366  15.559  20.560  0.00  0.00     0.077 A 
ATOM     22  H1  non d ame     -32.116  16.525  21.582  0.00  0.00     0.091 H 
ATOM     23  O1  non d ame     -29.427  14.800  21.044  0.00  0.00    -0.218 OA
ATOM     24  N1  non d ame     -29.581  14.601  22.333  0.00  0.00    -0.123 NA
BRANCH  21  25
ATOM     25  C3  non d ame     -30.511  16.002  19.111  0.00  0.00    -0.029 C 
ATOM     26  H2  non d ame     -31.010  15.220  18.540  0.00  0.00     0.036 H 
ATOM     27  H3  non d ame     -31.104  16.916  19.068  0.00  0.00     0.036 H 
ATOM     28  H4  non d ame     -29.525  16.189  18.686  0.00  0.00     0.036 H 
ENDBRANCH  21  25
ENDBRANCH  16  19
ENDBRANCH  13  15
BRANCH  13  29
ATOM     29  C8  non d ame     -34.191  14.360  26.013  0.00  0.00    -0.049 C 
ATOM     30  H7  non d ame     -34.562  14.151  27.016  0.00  0.00     0.030 H 
ATOM     31  H8  non d ame     -34.528  15.349  25.702  0.00  0.00     0.030 H 
ATOM     32  H9  non d ame     -34.576  13.610  25.320  0.00  0.00     0.030 H 
ENDBRANCH  13  29
ENDBRANCH  10  13
ENDBRANCH   7   9
BRANCH   7  33
ATOM     33  C11 non d ame     -32.707  11.549  30.145  0.00  0.00    -0.033 C 
ATOM     34  H12 non d ame     -33.323  12.438  30.277  0.00  0.00     0.042 H 
BRANCH  33  35
ATOM     35  C12 non d ame     -33.485  10.344  30.759  0.00  0.00    -0.071 C 
ATOM     36  H13 non d ame     -34.226  10.713  31.469  0.00  0.00     0.028 H 
ATOM     37  H14 non d ame     -33.986   9.791  29.965  0.00  0.00     0.028 H 
ATOM     38  H15 non d ame     -32.786   9.686  31.276  0.00  0.00     0.028 H 
ENDBRANCH  33  35
BRANCH  33  39
ATOM     39  C13 non d ame     -31.352  11.786  30.884  0.00  0.00    -0.071 C 
ATOM     40  H16 non d ame     -31.444  12.649  31.544  0.00  0.00     0.028 H 
ATOM     41  H17 non d ame     -31.099  10.903  31.472  0.00  0.00     0.028 H 
ATOM     42  H18 non d ame     -30.566  11.971  30.152  0.00  0.00     0.028 H 
ENDBRANCH  33  39
ENDBRANCH   7  33
ENDBRANCH   4   7
ENDBRANCH   1   3
BRANCH   1  43
ATOM     43  C15 non d ame     -34.833   8.743  25.747  0.00  0.00     0.240 C 
ATOM     44  O5  non d ame     -35.093   9.345  24.756  0.00  0.00    -0.271 OA
ATOM     45  N6  non d ame     -33.939   7.552  25.677  0.00  0.00    -0.355 N 
ATOM     46  H46 non d ame     -33.707   7.035  26.513  0.00  0.00     0.162 HD
BRANCH  45  47
ATOM     47  C20 non d ame     -33.390   7.124  24.372  0.00  0.00     0.013 C 
ATOM     48  H30 non d ame     -34.018   7.549  23.589  0.00  0.00     0.072 H 
BRANCH  47  49
ATOM     49  C21 non d ame     -33.413   5.614  24.292  0.00  0.00    -0.038 C 
ATOM     50  H31 non d ame     -33.872   5.378  23.332  0.00  0.00     0.036 H 
ATOM     51  H32 non d ame     -32.392   5.293  24.502  0.00  0.00     0.036 H 
BRANCH  49  52
ATOM     52  C22 non d ame     -34.305   4.970  25.375  0.00  0.00     0.018 C 
ATOM     53  H33 non d ame     -34.279   5.652  26.223  0.00  0.00     0.048 H 
ATOM     54  H34 non d ame     -35.252   4.747  24.882  0.00  0.00     0.048 H 
BRANCH  52  55
ATOM     55  C23 non d ame     -33.767   3.610  25.901  0.00  0.00     0.259 C 
ATOM     56  O7  non d ame     -33.723   2.662  25.187  0.00  0.00    -0.265 OA
BRANCH  55  57
ATOM     57  O8  non d ame     -33.339   3.507  27.254  0.00  0.00    -0.317 OA
BRANCH  57  58
ATOM     58  C29 non d ame     -33.138   4.768  27.900  0.00  0.00     0.052 C 
ATOM     59  H47 non d ame     -32.097   5.031  27.716  0.00  0.00     0.082 H 
ATOM     60  H48 non d ame     -33.936   5.416  27.538  0.00  0.00     0.082 H 
BRANCH  58  61
ATOM     61  C35 non d ame     -33.331   4.560  29.426  0.00  0.00    -0.034 A 
ATOM     62  C30 non d ame     -32.461   3.733  30.131  0.00  0.00    -0.075 A 
ATOM     63  C31 non d ame     -32.635   3.546  31.502  0.00  0.00    -0.082 A 
ATOM     64  H49 non d ame     -31.646   3.231  29.610  0.00  0.00     0.084 H 
ATOM     65  C32 non d ame     -33.682   4.188  32.167  0.00  0.00    -0.083 A 
ATOM     66  H50 non d ame     -31.950   2.899  32.052  0.00  0.00     0.083 H 
ATOM     67  C33 non d ame     -34.549   5.009  31.459  0.00  0.00    -0.082 A 
ATOM     68  H51 non d ame     -33.824   4.048  33.239  0.00  0.00     0.083 H 
ATOM     69  C34 non d ame     -34.379   5.200  30.089  0.00  0.00    -0.075 A 
ATOM     70  H52 non d ame     -35.367   5.507  31.981  0.00  0.00     0.083 H 
ATOM     71  H53 non d ame     -35.063   5.848  29.540  0.00  0.00     0.084 H 
ENDBRANCH  58  61
ENDBRANCH  57  58
ENDBRANCH  55  57
ENDBRANCH  52  55
ENDBRANCH  49  52
ENDBRANCH  47  49
BRANCH  47  72
ATOM     72  C24 non d ame     -31.953   7.621  24.229  0.00  0.00    -0.039 C 
ATOM     73  H35 non d ame     -31.660   7.950  25.227  0.00  0.00     0.036 H 
ATOM     74  H36 non d ame     -31.412   6.810  23.742  0.00  0.00     0.036 H 
BRANCH  72  75
ATOM     75  C25 non d ame     -31.861   8.897  23.264  0.00  0.00    -0.001 C 
ATOM     76  C26 non d ame     -30.660   8.679  22.163  0.00  0.00    -0.035 C 
ATOM     77  C27 non d ame     -29.851   9.766  22.178  0.00  0.00     0.085 C 
ATOM     78  H38 non d ame     -30.004   7.869  22.479  0.00  0.00     0.036 H 
ATOM     79  H39 non d ame     -31.072   8.684  21.153  0.00  0.00     0.036 H 
ATOM     80  N5  non d ame     -30.200  10.558  23.416  0.00  0.00    -0.049 N 
ATOM     81  H40 non d ame     -28.839   9.374  22.280  0.00  0.00     0.075 H 
ATOM     82  H41 non d ame     -30.125  10.345  21.298  0.00  0.00     0.075 H 
ATOM     83  C28 non d ame     -31.612   9.972  23.934  0.00  0.00     0.193 C 
ATOM     84  H42 non d ame     -29.491  10.342  24.102  0.00  0.00     0.280 HD
ATOM     85  H43 non d ame     -30.338  11.512  23.115  0.00  0.00     0.280 HD
ATOM     86  H44 non d ame     -32.536  10.527  23.767  0.00  0.00     0.129 H 
ATOM     87  H37 non d ame     -32.836   9.196  22.882  0.00  0.00     0.046 H 
BRANCH  83  88
ATOM     88  O6  non d ame     -31.559   9.731  25.342  0.00  0.00    -0.369 OA
ATOM     89  H45 non d ame     -31.616  10.566  25.812  0.00  0.00     0.212 HD
ENDBRANCH  83  88
ENDBRANCH  72  75
ENDBRANCH  47  72
ENDBRANCH  45  47
ENDBRANCH   1  43
BRANCH   1  90
ATOM     90  C16 non d ame     -36.870   9.624  26.929  0.00  0.00    -0.035 C 
ATOM     91  H21 non d ame     -36.853  10.711  26.868  0.00  0.00     0.037 H 
ATOM     92  H22 non d ame     -37.235   9.036  26.087  0.00  0.00     0.037 H 
BRANCH  90  93
ATOM     93  C17 non d ame     -37.781   9.266  28.146  0.00  0.00    -0.059 C 
ATOM     94  H23 non d ame     -38.730   8.902  27.752  0.00  0.00     0.038 H 
BRANCH  93  95
ATOM     95  C18 non d ame     -37.167   8.133  29.029  0.00  0.00    -0.073 C 
ATOM     96  H24 non d ame     -37.966   7.598  29.543  0.00  0.00     0.028 H 
ATOM     97  H25 non d ame     -36.616   7.438  28.396  0.00  0.00     0.028 H 
ATOM     98  H26 non d ame     -36.491   8.570  29.764  0.00  0.00     0.028 H 
ENDBRANCH  93  95
BRANCH  93  99
ATOM     99  C19 non d ame     -38.083  10.509  28.988  0.00  0.00    -0.073 C 
ATOM    100  H27 non d ame     -39.160  10.588  29.145  0.00  0.00     0.028 H 
ATOM    101  H28 non d ame     -37.582  10.426  29.953  0.00  0.00     0.028 H 
ATOM    102  H29 non d ame     -37.724  11.396  28.468  0.00  0.00     0.028 H 
ENDBRANCH  93  99
ENDBRANCH  90  93
ENDBRANCH   1  90
TORSDOF 26
ENDMDL
MODEL 2
REMARK VINA RESULT:      -6.7      3.170      5.543
REMARK  26 active torsions:
REMARK  status: ('A' for Active; 'I' for Inactive)
REMARK    1  A    between atoms: C2_2  and  C3_3 
REMARK    2  A    between atoms: C4_6  and  C5_7 
REMARK       I    between atoms: C5_7  and  N2_9 
REMARK    3  A    between atoms: N2_9  and  C6_10 
REMARK    4  A    between atoms: C6_10  and  C7_11 
REMARK    5  A    between atoms: C6_10  and  C8_13 
REMARK       I    between atoms: C7_11  and  N3_14 
REMARK    6  A    between atoms: N3_14  and  C9_15 
REMARK    7  A    between atoms: C9_15  and  C10_16 
REMARK    8  A    between atoms: C9_15  and  C11_18 
REMARK       I    between atoms: C10_16  and  N4_21 
REMARK    9  A    between atoms: C11_18  and  C12_19 
REMARK   10  A    between atoms: C11_18  and  C13_20 
REMARK   11  A    between atoms: N4_21  and  C14_22 
REMARK   12  A    between atoms: C14_22  and  C15_23 
REMARK   13  A    between atoms: C14_22  and  C16_25 
REMARK       I    between atoms: C15_23  and  N6_40 
REMARK   14  A    between atoms: C16_25  and  C17_26 
REMARK   15  A    between atoms: C17_26  and  C18_27 
REMARK   16  A    between atoms: C17_26  and  C19_28 
REMARK   17  A    between atoms: C20_29  and  C21_30 
REMARK   18  A    between atoms: C20_29  and  C24_33 
REMARK   19  A    between atoms: C20_29  and  N6_40 
REMARK   20  A    between atoms: C21_30  and  C22_31 
REMARK   21  A    between atoms: C22_31  and  C23_32 
REMARK   22  A    between atoms: C23_32  and  O8_43 
REMARK   23  A    between atoms: C24_33  and  C25_34 
REMARK   24  A    between atoms: C28_38  and  O6_39 
REMARK   25  A    between atoms: C29_42  and  O8_43 
REMARK   26  A    between atoms: C29_42  and  C35_49 
ROOT
ATOM      1  C14 non d ame     -36.053  11.824  25.528  0.00  0.00     0.089 C 
ATOM      2  H20 non d ame     -36.771  11.730  26.343  0.00  0.00     0.087 H 
ENDROOT
BRANCH   1   3
ATOM      3  N4  non d ame     -35.906  13.242  25.236  0.00  0.00    -0.346 N 
ATOM      4  C10 non d ame     -36.655  14.269  26.045  0.00  0.00     0.241 C 
ATOM      5  O4  non d ame     -37.374  13.931  26.927  0.00  0.00    -0.271 OA
ATOM      6  H19 non d ame     -35.292  13.509  24.479  0.00  0.00     0.163 HD
BRANCH   4   7
ATOM      7  C9  non d ame     -36.487  15.733  25.732  0.00  0.00     0.092 C 
ATOM      8  H11 non d ame     -36.899  16.324  26.549  0.00  0.00     0.088 H 
BRANCH   7   9
ATOM      9  N3  non d ame     -35.059  16.053  25.641  0.00  0.00    -0.346 N 
ATOM     10  C7  non d ame     -34.495  17.076  26.485  0.00  0.00     0.240 C 
ATOM     11  O3  non d ame     -35.175  17.652  27.244  0.00  0.00    -0.271 OA
ATOM     12  H10 non d ame     -34.461  15.565  24.990  0.00  0.00     0.163 HD
BRANCH  10  13
ATOM     13  C6  non d ame     -32.976  17.415  26.382  0.00  0.00     0.086 C 
ATOM     14  H6  non d ame     -32.373  16.878  27.114  0.00  0.00     0.086 H 
BRANCH  13  15
ATOM     15  N2  non d ame     -32.491  17.013  25.072  0.00  0.00    -0.343 N 
ATOM     16  C5  non d ame     -31.505  15.936  24.966  0.00  0.00     0.273 C 
ATOM     17  O2  non d ame     -31.104  15.401  25.941  0.00  0.00    -0.266 OA
ATOM     18  H5  non d ame     -32.836  17.478  24.244  0.00  0.00     0.163 HD
BRANCH  16  19
ATOM     19  C4  non d ame     -30.985  15.501  23.586  0.00  0.00     0.154 A 
ATOM     20  C1  non d ame     -31.252  16.124  22.326  0.00  0.00    -0.017 A 
ATOM     21  C2  non d ame     -30.546  15.346  21.381  0.00  0.00     0.077 A 
ATOM     22  H1  non d ame     -31.863  17.004  22.128  0.00  0.00     0.091 H 
ATOM     23  O1  non d ame     -29.947  14.394  22.032  0.00  0.00    -0.218 OA
ATOM     24  N1  non d ame     -30.188  14.463  23.321  0.00  0.00    -0.123 NA
BRANCH  21  25
ATOM     25  C3  non d ame     -30.496  15.582  19.877  0.00  0.00    -0.029 C 
ATOM     26  H2  non d ame     -31.444  15.286  19.431  0.00  0.00     0.036 H 
ATOM     27  H3  non d ame     -30.319  16.640  19.681  0.00  0.00     0.036 H 
ATOM     28  H4  non d ame     -29.689  14.992  19.443  0.00  0.00     0.036 H 
ENDBRANCH  21  25
ENDBRANCH  16  19
ENDBRANCH  13  15
BRANCH  13  29
ATOM     29  C8  non d ame     -32.774  18.896  26.576  0.00  0.00    -0.049 C 
ATOM     30  H7  non d ame     -32.541  19.097  27.621  0.00  0.00     0.030 H 
ATOM     31  H8  non d ame     -31.949  19.236  25.950  0.00  0.00     0.030 H 
ATOM     32  H9  non d ame     -33.685  19.426  26.298  0.00  0.00     0.030 H 
ENDBRANCH  13  29
ENDBRANCH  10  13
ENDBRANCH   7   9
BRANCH   7  33
ATOM     33  C11 non d ame     -37.176  16.054  24.372  0.00  0.00    -0.033 C 
ATOM     34  H12 non d ame     -36.536  15.665  23.580  0.00  0.00     0.042 H 
BRANCH  33  35
ATOM     35  C12 non d ame     -38.558  15.339  24.253  0.00  0.00    -0.071 C 
ATOM     36  H13 non d ame     -38.650  14.889  23.264  0.00  0.00     0.028 H 
ATOM     37  H14 non d ame     -38.632  14.562  25.013  0.00  0.00     0.028 H 
ATOM     38  H15 non d ame     -39.357  16.066  24.396  0.00  0.00     0.028 H 
ENDBRANCH  33  35
BRANCH  33  39
ATOM     39  C13 non d ame     -37.316  17.596  24.167  0.00  0.00    -0.071 C 
ATOM     40  H16 non d ame     -36.969  17.863  23.168  0.00  0.00     0.028 H 
ATOM     41  H17 non d ame     -38.362  17.884  24.278  0.00  0.00     0.028 H 
ATOM     42  H18 non d ame     -36.715  18.118  24.911  0.00  0.00     0.028 H 
ENDBRANCH  33  39
ENDBRANCH   7  33
ENDBRANCH   4   7
ENDBRANCH   1   3
BRANCH   1  43
ATOM     43  C15 non d ame     -34.658  11.249  25.906  0.00  0.00     0.240 C 
ATOM     44  O5  non d ame     -34.578  10.358  26.688  0.00  0.00    -0.271 OA
ATOM     45  N6  non d ame     -33.421  11.802  25.284  0.00  0.00    -0.355 N 
ATOM     46  H46 non d ame     -33.476  12.556  24.614  0.00  0.00     0.162 HD
BRANCH  45  47
ATOM     47  C20 non d ame     -32.102  11.243  25.654  0.00  0.00     0.013 C 
ATOM     48  H30 non d ame     -32.274  10.348  26.251  0.00  0.00     0.072 H 
BRANCH  47  49
ATOM     49  C21 non d ame     -31.334  12.265  26.461  0.00  0.00    -0.038 C 
ATOM     50  H31 non d ame     -30.281  12.065  26.263  0.00  0.00     0.036 H 
ATOM     51  H32 non d ame     -31.765  13.231  26.198  0.00  0.00     0.036 H 
BRANCH  49  52
ATOM     52  C22 non d ame     -31.533  12.098  27.984  0.00  0.00     0.018 C 
ATOM     53  H33 non d ame     -31.901  11.082  28.123  0.00  0.00     0.048 H 
ATOM     54  H34 non d ame     -30.591  12.405  28.439  0.00  0.00     0.048 H 
BRANCH  52  55
ATOM     55  C23 non d ame     -32.621  13.034  28.579  0.00  0.00     0.259 C 
ATOM     56  O7  non d ame     -33.233  13.772  27.876  0.00  0.00    -0.265 OA
BRANCH  55  57
ATOM     57  O8  non d ame     -32.871  13.010  29.980  0.00  0.00    -0.317 OA
BRANCH  57  58
ATOM     58  C29 non d ame     -32.324  11.870  30.650  0.00  0.00     0.052 C 
ATOM     59  H47 non d ame     -31.643  11.407  29.936  0.00  0.00     0.082 H 
ATOM     60  H48 non d ame     -31.947  12.240  31.602  0.00  0.00     0.082 H 
BRANCH  58  61
ATOM     61  C35 non d ame     -33.485  10.880  30.935  0.00  0.00    -0.034 A 
ATOM     62  C30 non d ame     -34.335  11.097  32.015  0.00  0.00    -0.075 A 
ATOM     63  C31 non d ame     -35.378  10.207  32.271  0.00  0.00    -0.082 A 
ATOM     64  H49 non d ame     -34.185  11.962  32.661  0.00  0.00     0.084 H 
ATOM     65  C32 non d ame     -35.568   9.097  31.444  0.00  0.00    -0.083 A 
ATOM     66  H50 non d ame     -36.044  10.381  33.118  0.00  0.00     0.083 H 
ATOM     67  C33 non d ame     -34.715   8.884  30.370  0.00  0.00    -0.082 A 
ATOM     68  H51 non d ame     -36.382   8.397  31.637  0.00  0.00     0.083 H 
ATOM     69  C34 non d ame     -33.672   9.770  30.109  0.00  0.00    -0.075 A 
ATOM     70  H52 non d ame     -34.864   8.015  29.728  0.00  0.00     0.083 H 
ATOM     71  H53 non d ame     -33.008   9.597  29.263  0.00  0.00     0.084 H 
ENDBRANCH  58  61
ENDBRANCH  57  58
ENDBRANCH  55  57
ENDBRANCH  52  55
ENDBRANCH  49  52
ENDBRANCH  47  49
BRANCH  47  72
ATOM     72  C24 non d ame     -31.317  10.895  24.391  0.00  0.00    -0.039 C 
ATOM     73  H35 non d ame     -31.337  11.799  23.780  0.00  0.00     0.036 H 
ATOM     74  H36 non d ame     -30.365  10.496  24.742  0.00  0.00     0.036 H 
BRANCH  72  75
ATOM     75  C25 non d ame     -32.034   9.738  23.547  0.00  0.00    -0.001 C 
ATOM     76  C26 non d ame     -32.299   8.429  24.505  0.00  0.00    -0.035 C 
ATOM     77  C27 non d ame     -31.809   7.328  23.886  0.00  0.00     0.085 C 
ATOM     78  H38 non d ame     -31.698   8.500  25.411  0.00  0.00     0.036 H 
ATOM     79  H39 non d ame     -33.368   8.226  24.575  0.00  0.00     0.036 H 
ATOM     80  N5  non d ame     -30.944   7.811  22.746  0.00  0.00    -0.049 N 
ATOM     81  H40 non d ame     -31.179   6.834  24.626  0.00  0.00     0.075 H 
ATOM     82  H41 non d ame     -32.677   6.812  23.479  0.00  0.00     0.075 H 
ATOM     83  C28 non d ame     -31.306   9.371  22.545  0.00  0.00     0.193 C 
ATOM     84  H42 non d ame     -29.988   7.741  23.063  0.00  0.00     0.280 HD
ATOM     85  H43 non d ame     -31.243   7.302  21.927  0.00  0.00     0.280 HD
ATOM     86  H44 non d ame     -31.937   9.690  21.715  0.00  0.00     0.129 H 
ATOM     87  H37 non d ame     -32.880  10.111  22.971  0.00  0.00     0.046 H 
BRANCH  83  88
ATOM     88  O6  non d ame     -30.109  10.145  22.436  0.00  0.00    -0.369 OA
ATOM     89  H45 non d ame     -29.395   9.696  22.895  0.00  0.00     0.212 HD
ENDBRANCH  83  88
ENDBRANCH  72  75
ENDBRANCH  47  72
ENDBRANCH  45  47
ENDBRANCH   1  43
BRANCH   1  90
ATOM     90  C16 non d ame     -36.581  11.114  24.292  0.00  0.00    -0.035 C 
ATOM     91  H21 non d ame     -36.039  11.551  23.455  0.00  0.00     0.037 H 
ATOM     92  H22 non d ame     -36.485  10.049  24.509  0.00  0.00     0.037 H 
BRANCH  90  93
ATOM     93  C17 non d ame     -38.097  11.375  24.020  0.00  0.00    -0.059 C 
ATOM     94  H23 non d ame     -38.446  12.096  24.759  0.00  0.00     0.038 H 
BRANCH  93  95
ATOM     95  C18 non d ame     -38.345  11.985  22.604  0.00  0.00    -0.073 C 
ATOM     96  H24 non d ame     -37.806  11.403  21.857  0.00  0.00     0.028 H 
ATOM     97  H25 non d ame     -39.412  11.962  22.380  0.00  0.00     0.028 H 
ATOM     98  H26 non d ame     -37.993  13.016  22.586  0.00  0.00     0.028 H 
ENDBRANCH  93  95
BRANCH  93  99
ATOM     99  C19 non d ame     -38.915  10.095  24.212  0.00  0.00    -0.073 C 
ATOM    100  H27 non d ame     -39.036   9.897  25.278  0.00  0.00     0.028 H 
ATOM    101  H28 non d ame     -39.897  10.217  23.753  0.00  0.00     0.028 H 
ATOM    102  H29 non d ame     -38.397   9.258  23.744  0.00  0.00     0.028 H 
ENDBRANCH  93  99
ENDBRANCH  90  93
ENDBRANCH   1  90
TORSDOF 26
ENDMDL
MODEL 3
REMARK VINA RESULT:      -6.7      2.911      6.998
REMARK  26 active torsions:
REMARK  status: ('A' for Active; 'I' for Inactive)
REMARK    1  A    between atoms: C2_2  and  C3_3 
REMARK    2  A    between atoms: C4_6  and  C5_7 
REMARK       I    between atoms: C5_7  and  N2_9 
REMARK    3  A    between atoms: N2_9  and  C6_10 
REMARK    4  A    between atoms: C6_10  and  C7_11 
REMARK    5  A    between atoms: C6_10  and  C8_13 
REMARK       I    between atoms: C7_11  and  N3_14 
REMARK    6  A    between atoms: N3_14  and  C9_15 
REMARK    7  A    between atoms: C9_15  and  C10_16 
REMARK    8  A    between atoms: C9_15  and  C11_18 
REMARK       I    between atoms: C10_16  and  N4_21 
REMARK    9  A    between atoms: C11_18  and  C12_19 
REMARK   10  A    between atoms: C11_18  and  C13_20 
REMARK   11  A    between atoms: N4_21  and  C14_22 
REMARK   12  A    between atoms: C14_22  and  C15_23 
REMARK   13  A    between atoms: C14_22  and  C16_25 
REMARK       I    between atoms: C15_23  and  N6_40 
REMARK   14  A    between atoms: C16_25  and  C17_26 
REMARK   15  A    between atoms: C17_26  and  C18_27 
REMARK   16  A    between atoms: C17_26  and  C19_28 
REMARK   17  A    between atoms: C20_29  and  C21_30 
REMARK   18  A    between atoms: C20_29  and  C24_33 
REMARK   19  A    between atoms: C20_29  and  N6_40 
REMARK   20  A    between atoms: C21_30  and  C22_31 
REMARK   21  A    between atoms: C22_31  and  C23_32 
REMARK   22  A    between atoms: C23_32  and  O8_43 
REMARK   23  A    between atoms: C24_33  and  C25_34 
REMARK   24  A    between atoms: C28_38  and  O6_39 
REMARK   25  A    between atoms: C29_42  and  O8_43 
REMARK   26  A    between atoms: C29_42  and  C35_49 
ROOT
ATOM      1  C14 non d ame     -34.171   6.720  28.397  0.00  0.00     0.089 C 
ATOM      2  H20 non d ame     -33.901   6.049  29.213  0.00  0.00     0.087 H 
ENDROOT
BRANCH   1   3
ATOM      3  N4  non d ame     -34.223   8.070  28.938  0.00  0.00    -0.346 N 
ATOM      4  C10 non d ame     -34.472   8.293  30.408  0.00  0.00     0.241 C 
ATOM      5  O4  non d ame     -34.631   7.370  31.137  0.00  0.00    -0.271 OA
ATOM      6  H19 non d ame     -34.089   8.842  28.301  0.00  0.00     0.163 HD
BRANCH   4   7
ATOM      7  C9  non d ame     -34.519   9.697  30.952  0.00  0.00     0.092 C 
ATOM      8  H11 non d ame     -33.561   9.934  31.415  0.00  0.00     0.088 H 
BRANCH   7   9
ATOM      9  N3  non d ame     -34.712  10.643  29.848  0.00  0.00    -0.346 N 
ATOM     10  C7  non d ame     -33.568  11.216  29.183  0.00  0.00     0.240 C 
ATOM     11  O3  non d ame     -32.486  10.928  29.522  0.00  0.00    -0.271 OA
ATOM     12  H10 non d ame     -35.640  10.902  29.546  0.00  0.00     0.163 HD
BRANCH  10  13
ATOM     13  C6  non d ame     -33.780  12.225  28.011  0.00  0.00     0.086 C 
ATOM     14  H6  non d ame     -34.832  12.411  27.800  0.00  0.00     0.086 H 
BRANCH  13  15
ATOM     15  N2  non d ame     -33.196  13.504  28.378  0.00  0.00    -0.343 N 
ATOM     16  C5  non d ame     -33.823  14.743  27.914  0.00  0.00     0.273 C 
ATOM     17  O2  non d ame     -34.795  14.701  27.242  0.00  0.00    -0.266 OA
ATOM     18  H5  non d ame     -32.363  13.531  28.950  0.00  0.00     0.163 HD
BRANCH  16  19
ATOM     19  C4  non d ame     -33.216  16.103  28.296  0.00  0.00     0.154 A 
ATOM     20  C1  non d ame     -33.436  17.360  27.649  0.00  0.00    -0.017 A 
ATOM     21  C2  non d ame     -32.656  18.284  28.378  0.00  0.00     0.077 A 
ATOM     22  H1  non d ame     -34.065  17.569  26.784  0.00  0.00     0.091 H 
ATOM     23  O1  non d ame     -32.063  17.626  29.330  0.00  0.00    -0.218 OA
ATOM     24  N1  non d ame     -32.375  16.351  29.303  0.00  0.00    -0.123 NA
BRANCH  21  25
ATOM     25  C3  non d ame     -32.534  19.777  28.102  0.00  0.00    -0.029 C 
ATOM     26  H2  non d ame     -32.029  20.261  28.937  0.00  0.00     0.036 H 
ATOM     27  H3  non d ame     -31.956  19.932  27.190  0.00  0.00     0.036 H 
ATOM     28  H4  non d ame     -33.527  20.207  27.979  0.00  0.00     0.036 H 
ENDBRANCH  21  25
ENDBRANCH  16  19
ENDBRANCH  13  15
BRANCH  13  29
ATOM     29  C8  non d ame     -33.121  11.695  26.763  0.00  0.00    -0.049 C 
ATOM     30  H7  non d ame     -33.835  11.095  26.201  0.00  0.00     0.030 H 
ATOM     31  H8  non d ame     -32.784  12.528  26.147  0.00  0.00     0.030 H 
ATOM     32  H9  non d ame     -32.265  11.077  27.039  0.00  0.00     0.030 H 
ENDBRANCH  13  29
ENDBRANCH  10  13
ENDBRANCH   7   9
BRANCH   7  33
ATOM     33  C11 non d ame     -35.703   9.825  31.954  0.00  0.00    -0.033 C 
ATOM     34  H12 non d ame     -35.881   8.839  32.381  0.00  0.00     0.042 H 
BRANCH  33  35
ATOM     35  C12 non d ame     -35.350  10.789  33.130  0.00  0.00    -0.071 C 
ATOM     36  H13 non d ame     -36.269  11.179  33.568  0.00  0.00     0.028 H 
ATOM     37  H14 non d ame     -34.787  10.247  33.888  0.00  0.00     0.028 H 
ATOM     38  H15 non d ame     -34.750  11.617  32.753  0.00  0.00     0.028 H 
ENDBRANCH  33  35
BRANCH  33  39
ATOM     39  C13 non d ame     -37.008  10.277  31.223  0.00  0.00    -0.071 C 
ATOM     40  H16 non d ame     -37.837  10.286  31.931  0.00  0.00     0.028 H 
ATOM     41  H17 non d ame     -36.868  11.278  30.814  0.00  0.00     0.028 H 
ATOM     42  H18 non d ame     -37.230   9.583  30.413  0.00  0.00     0.028 H 
ENDBRANCH  33  39
ENDBRANCH   7  33
ENDBRANCH   4   7
ENDBRANCH   1   3
BRANCH   1  43
ATOM     43  C15 non d ame     -33.128   6.689  27.243  0.00  0.00     0.240 C 
ATOM     44  O5  non d ame     -31.994   6.420  27.478  0.00  0.00    -0.271 OA
ATOM     45  N6  non d ame     -33.544   6.985  25.842  0.00  0.00    -0.355 N 
ATOM     46  H46 non d ame     -34.506   7.211  25.630  0.00  0.00     0.162 HD
BRANCH  45  47
ATOM     47  C20 non d ame     -32.541   6.951  24.757  0.00  0.00     0.013 C 
ATOM     48  H30 non d ame     -31.632   7.426  25.126  0.00  0.00     0.072 H 
BRANCH  47  49
ATOM     49  C21 non d ame     -33.072   7.708  23.561  0.00  0.00    -0.038 C 
ATOM     50  H31 non d ame     -32.553   7.293  22.696  0.00  0.00     0.036 H 
ATOM     51  H32 non d ame     -34.158   7.642  23.629  0.00  0.00     0.036 H 
BRANCH  49  52
ATOM     52  C22 non d ame     -32.722   9.212  23.600  0.00  0.00     0.018 C 
ATOM     53  H33 non d ame     -33.456   9.702  22.962  0.00  0.00     0.048 H 
ATOM     54  H34 non d ame     -32.657   9.471  24.657  0.00  0.00     0.048 H 
BRANCH  52  55
ATOM     55  C23 non d ame     -31.333   9.547  22.990  0.00  0.00     0.259 C 
ATOM     56  O7  non d ame     -30.848   8.839  22.169  0.00  0.00    -0.265 OA
BRANCH  55  57
ATOM     57  O8  non d ame     -30.638  10.706  23.436  0.00  0.00    -0.317 OA
BRANCH  57  58
ATOM     58  C29 non d ame     -29.871  11.353  22.416  0.00  0.00     0.052 C 
ATOM     59  H47 non d ame     -28.839  11.046  22.584  0.00  0.00     0.082 H 
ATOM     60  H48 non d ame     -30.366  11.112  21.476  0.00  0.00     0.082 H 
BRANCH  58  61
ATOM     61  C35 non d ame     -29.970  12.886  22.643  0.00  0.00    -0.034 A 
ATOM     62  C30 non d ame     -29.216  13.755  21.860  0.00  0.00    -0.075 A 
ATOM     63  C31 non d ame     -29.305  15.132  22.064  0.00  0.00    -0.082 A 
ATOM     64  H49 non d ame     -28.556  13.360  21.089  0.00  0.00     0.084 H 
ATOM     65  C32 non d ame     -30.150  15.638  23.055  0.00  0.00    -0.083 A 
ATOM     66  H50 non d ame     -28.714  15.811  21.448  0.00  0.00     0.083 H 
ATOM     67  C33 non d ame     -30.897  14.766  23.835  0.00  0.00    -0.082 A 
ATOM     68  H51 non d ame     -30.226  16.713  23.220  0.00  0.00     0.083 H 
ATOM     69  C34 non d ame     -30.813  13.390  23.634  0.00  0.00    -0.075 A 
ATOM     70  H52 non d ame     -31.554  15.164  24.610  0.00  0.00     0.083 H 
ATOM     71  H53 non d ame     -31.404  12.712  24.250  0.00  0.00     0.084 H 
ENDBRANCH  58  61
ENDBRANCH  57  58
ENDBRANCH  55  57
ENDBRANCH  52  55
ENDBRANCH  49  52
ENDBRANCH  47  49
BRANCH  47  72
ATOM     72  C24 non d ame     -32.259   5.503  24.361  0.00  0.00    -0.039 C 
ATOM     73  H35 non d ame     -31.847   5.554  23.352  0.00  0.00     0.036 H 
ATOM     74  H36 non d ame     -31.660   5.091  25.173  0.00  0.00     0.036 H 
BRANCH  72  75
ATOM     75  C25 non d ame     -33.604   4.638  24.279  0.00  0.00    -0.001 C 
ATOM     76  C26 non d ame     -33.598   3.481  25.447  0.00  0.00    -0.035 C 
ATOM     77  C27 non d ame     -33.867   2.282  24.877  0.00  0.00     0.085 C 
ATOM     78  H38 non d ame     -32.591   3.355  25.843  0.00  0.00     0.036 H 
ATOM     79  H39 non d ame     -34.436   3.632  26.129  0.00  0.00     0.036 H 
ATOM     80  N5  non d ame     -33.732   2.464  23.384  0.00  0.00    -0.049 N 
ATOM     81  H40 non d ame     -33.082   1.611  25.226  0.00  0.00     0.075 H 
ATOM     82  H41 non d ame     -34.908   2.073  25.117  0.00  0.00     0.075 H 
ATOM     83  C28 non d ame     -33.718   4.058  23.130  0.00  0.00     0.193 C 
ATOM     84  H42 non d ame     -32.829   2.091  23.131  0.00  0.00     0.280 HD
ATOM     85  H43 non d ame     -34.571   2.080  22.973  0.00  0.00     0.280 HD
ATOM     86  H44 non d ame     -34.602   4.564  22.741  0.00  0.00     0.129 H 
ATOM     87  H37 non d ame     -34.493   5.263  24.205  0.00  0.00     0.046 H 
BRANCH  83  88
ATOM     88  O6  non d ame     -32.655   4.407  22.243  0.00  0.00    -0.369 OA
ATOM     89  H45 non d ame     -32.190   3.612  21.971  0.00  0.00     0.212 HD
ENDBRANCH  83  88
ENDBRANCH  72  75
ENDBRANCH  47  72
ENDBRANCH  45  47
ENDBRANCH   1  43
BRANCH   1  90
ATOM     90  C16 non d ame     -35.542   6.348  27.857  0.00  0.00    -0.035 C 
ATOM     91  H21 non d ame     -36.180   7.203  28.074  0.00  0.00     0.037 H 
ATOM     92  H22 non d ame     -35.372   6.042  26.824  0.00  0.00     0.037 H 
BRANCH  90  93
ATOM     93  C17 non d ame     -36.187   5.122  28.579  0.00  0.00    -0.059 C 
ATOM     94  H23 non d ame     -35.385   4.563  29.061  0.00  0.00     0.038 H 
BRANCH  93  95
ATOM     95  C18 non d ame     -37.197   5.556  29.689  0.00  0.00    -0.073 C 
ATOM     96  H24 non d ame     -37.842   6.347  29.305  0.00  0.00     0.028 H 
ATOM     97  H25 non d ame     -37.807   4.701  29.979  0.00  0.00     0.028 H 
ATOM     98  H26 non d ame     -36.648   5.923  30.556  0.00  0.00     0.028 H 
ENDBRANCH  93  95
BRANCH  93  99
ATOM     99  C19 non d ame     -36.857   4.183  27.572  0.00  0.00    -0.073 C 
ATOM    100  H27 non d ame     -37.039   3.216  28.042  0.00  0.00     0.028 H 
ATOM    101  H28 non d ame     -37.805   4.613  27.247  0.00  0.00     0.028 H 
ATOM    102  H29 non d ame     -36.204   4.051  26.709  0.00  0.00     0.028 H 
ENDBRANCH  93  99
ENDBRANCH  90  93
ENDBRANCH   1  90
TORSDOF 26
ENDMDL
MODEL 4
REMARK VINA RESULT:      -6.7      3.183      6.521
REMARK  26 active torsions:
REMARK  status: ('A' for Active; 'I' for Inactive)
REMARK    1  A    between atoms: C2_2  and  C3_3 
REMARK    2  A    between atoms: C4_6  and  C5_7 
REMARK       I    between atoms: C5_7  and  N2_9 
REMARK    3  A    between atoms: N2_9  and  C6_10 
REMARK    4  A    between atoms: C6_10  and  C7_11 
REMARK    5  A    between atoms: C6_10  and  C8_13 
REMARK       I    between atoms: C7_11  and  N3_14 
REMARK    6  A    between atoms: N3_14  and  C9_15 
REMARK    7  A    between atoms: C9_15  and  C10_16 
REMARK    8  A    between atoms: C9_15  and  C11_18 
REMARK       I    between atoms: C10_16  and  N4_21 
REMARK    9  A    between atoms: C11_18  and  C12_19 
REMARK   10  A    between atoms: C11_18  and  C13_20 
REMARK   11  A    between atoms: N4_21  and  C14_22 
REMARK   12  A    between atoms: C14_22  and  C15_23 
REMARK   13  A    between atoms: C14_22  and  C16_25 
REMARK       I    between atoms: C15_23  and  N6_40 
REMARK   14  A    between atoms: C16_25  and  C17_26 
REMARK   15  A    between atoms: C17_26  and  C18_27 
REMARK   16  A    between atoms: C17_26  and  C19_28 
REMARK   17  A    between atoms: C20_29  and  C21_30 
REMARK   18  A    between atoms: C20_29  and  C24_33 
REMARK   19  A    between atoms: C20_29  and  N6_40 
REMARK   20  A    between atoms: C21_30  and  C22_31 
REMARK   21  A    between atoms: C22_31  and  C23_32 
REMARK   22  A    between atoms: C23_32  and  O8_43 
REMARK   23  A    between atoms: C24_33  and  C25_34 
REMARK   24  A    between atoms: C28_38  and  O6_39 
REMARK   25  A    between atoms: C29_42  and  O8_43 
REMARK   26  A    between atoms: C29_42  and  C35_49 
ROOT
ATOM      1  C14 non d ame     -36.586  13.499  26.426  0.00  0.00     0.089 C 
ATOM      2  H20 non d ame     -37.305  13.479  27.246  0.00  0.00     0.087 H 
ENDROOT
BRANCH   1   3
ATOM      3  N4  non d ame     -36.193  14.885  26.222  0.00  0.00    -0.346 N 
ATOM      4  C10 non d ame     -37.099  16.007  26.663  0.00  0.00     0.241 C 
ATOM      5  O4  non d ame     -38.141  15.770  27.179  0.00  0.00    -0.271 OA
ATOM      6  H19 non d ame     -35.304  15.066  25.779  0.00  0.00     0.163 HD
BRANCH   4   7
ATOM      7  C9  non d ame     -36.674  17.436  26.448  0.00  0.00     0.092 C 
ATOM      8  H11 non d ame     -36.951  18.027  27.320  0.00  0.00     0.088 H 
BRANCH   7   9
ATOM      9  N3  non d ame     -35.214  17.499  26.327  0.00  0.00    -0.346 N 
ATOM     10  C7  non d ame     -34.413  17.881  27.464  0.00  0.00     0.240 C 
ATOM     11  O3  non d ame     -34.926  18.141  28.483  0.00  0.00    -0.271 OA
ATOM     12  H10 non d ame     -34.758  17.279  25.453  0.00  0.00     0.163 HD
BRANCH  10  13
ATOM     13  C6  non d ame     -32.860  17.950  27.328  0.00  0.00     0.086 C 
ATOM     14  H6  non d ame     -32.345  17.334  28.065  0.00  0.00     0.086 H 
BRANCH  13  15
ATOM     15  N2  non d ame     -32.477  17.443  26.021  0.00  0.00    -0.343 N 
ATOM     16  C5  non d ame     -31.951  16.082  25.901  0.00  0.00     0.273 C 
ATOM     17  O2  non d ame     -31.835  15.404  26.862  0.00  0.00    -0.266 OA
ATOM     18  H5  non d ame     -32.576  18.031  25.205  0.00  0.00     0.163 HD
BRANCH  16  19
ATOM     19  C4  non d ame     -31.543  15.534  24.524  0.00  0.00     0.154 A 
ATOM     20  C1  non d ame     -31.489  16.252  23.288  0.00  0.00    -0.017 A 
ATOM     21  C2  non d ame     -31.060  15.303  22.334  0.00  0.00     0.077 A 
ATOM     22  H1  non d ame     -31.726  17.302  23.111  0.00  0.00     0.091 H 
ATOM     23  O1  non d ame     -30.888  14.175  22.959  0.00  0.00    -0.218 OA
ATOM     24  N1  non d ame     -31.164  14.285  24.239  0.00  0.00    -0.123 NA
BRANCH  21  25
ATOM     25  C3  non d ame     -30.838  15.554  20.849  0.00  0.00    -0.029 C 
ATOM     26  H2  non d ame     -31.457  16.390  20.525  0.00  0.00     0.036 H 
ATOM     27  H3  non d ame     -29.788  15.792  20.674  0.00  0.00     0.036 H 
ATOM     28  H4  non d ame     -31.107  14.662  20.284  0.00  0.00     0.036 H 
ENDBRANCH  21  25
ENDBRANCH  16  19
ENDBRANCH  13  15
BRANCH  13  29
ATOM     29  C8  non d ame     -32.402  19.378  27.483  0.00  0.00    -0.049 C 
ATOM     30  H7  non d ame     -31.333  19.441  27.284  0.00  0.00     0.030 H 
ATOM     31  H8  non d ame     -32.941  20.011  26.779  0.00  0.00     0.030 H 
ATOM     32  H9  non d ame     -32.602  19.715  28.502  0.00  0.00     0.030 H 
ENDBRANCH  13  29
ENDBRANCH  10  13
ENDBRANCH   7   9
BRANCH   7  33
ATOM     33  C11 non d ame     -37.323  17.978  25.141  0.00  0.00    -0.033 C 
ATOM     34  H12 non d ame     -37.165  17.234  24.361  0.00  0.00     0.042 H 
BRANCH  33  35
ATOM     35  C12 non d ame     -38.864  18.162  25.307  0.00  0.00    -0.071 C 
ATOM     36  H13 non d ame     -39.157  19.139  24.921  0.00  0.00     0.028 H 
ATOM     37  H14 non d ame     -39.386  17.381  24.754  0.00  0.00     0.028 H 
ATOM     38  H15 non d ame     -39.126  18.098  26.363  0.00  0.00     0.028 H 
ENDBRANCH  33  35
BRANCH  33  39
ATOM     39  C13 non d ame     -36.640  19.307  24.686  0.00  0.00    -0.071 C 
ATOM     40  H16 non d ame     -35.819  19.544  25.363  0.00  0.00     0.028 H 
ATOM     41  H17 non d ame     -36.253  19.190  23.673  0.00  0.00     0.028 H 
ATOM     42  H18 non d ame     -37.370  20.116  24.703  0.00  0.00     0.028 H 
ENDBRANCH  33  39
ENDBRANCH   7  33
ENDBRANCH   4   7
ENDBRANCH   1   3
BRANCH   1  43
ATOM     43  C15 non d ame     -35.312  12.664  26.743  0.00  0.00     0.240 C 
ATOM     44  O5  non d ame     -34.287  12.922  26.201  0.00  0.00    -0.271 OA
ATOM     45  N6  non d ame     -35.368  11.550  27.731  0.00  0.00    -0.355 N 
ATOM     46  H46 non d ame     -36.232  11.324  28.203  0.00  0.00     0.162 HD
BRANCH  45  47
ATOM     47  C20 non d ame     -34.147  10.767  28.022  0.00  0.00     0.013 C 
ATOM     48  H30 non d ame     -33.336  11.175  27.420  0.00  0.00     0.072 H 
BRANCH  47  49
ATOM     49  C21 non d ame     -34.383   9.318  27.659  0.00  0.00    -0.038 C 
ATOM     50  H31 non d ame     -34.336   8.768  28.599  0.00  0.00     0.036 H 
ATOM     51  H32 non d ame     -35.299   9.309  27.067  0.00  0.00     0.036 H 
BRANCH  49  52
ATOM     52  C22 non d ame     -33.273   8.738  26.755  0.00  0.00     0.018 C 
ATOM     53  H33 non d ame     -32.862   9.588  26.212  0.00  0.00     0.048 H 
ATOM     54  H34 non d ame     -32.634   8.151  27.415  0.00  0.00     0.048 H 
BRANCH  52  55
ATOM     55  C23 non d ame     -33.797   7.752  25.675  0.00  0.00     0.259 C 
ATOM     56  O7  non d ame     -34.183   6.670  25.983  0.00  0.00    -0.265 OA
BRANCH  55  57
ATOM     57  O8  non d ame     -33.797   8.149  24.309  0.00  0.00    -0.317 OA
BRANCH  57  58
ATOM     58  C29 non d ame     -33.443   9.519  24.101  0.00  0.00     0.052 C 
ATOM     59  H47 non d ame     -34.190   9.916  23.414  0.00  0.00     0.082 H 
ATOM     60  H48 non d ame     -33.333   9.950  25.095  0.00  0.00     0.082 H 
BRANCH  58  61
ATOM     61  C35 non d ame     -32.060   9.554  23.397  0.00  0.00    -0.034 A 
ATOM     62  C30 non d ame     -31.269  10.697  23.471  0.00  0.00    -0.075 A 
ATOM     63  C31 non d ame     -30.027  10.728  22.838  0.00  0.00    -0.082 A 
ATOM     64  H49 non d ame     -31.622  11.567  24.024  0.00  0.00     0.084 H 
ATOM     65  C32 non d ame     -29.577   9.611  22.128  0.00  0.00    -0.083 A 
ATOM     66  H50 non d ame     -29.408  11.624  22.900  0.00  0.00     0.083 H 
ATOM     67  C33 non d ame     -30.371   8.475  22.054  0.00  0.00    -0.082 A 
ATOM     68  H51 non d ame     -28.606   9.627  21.631  0.00  0.00     0.083 H 
ATOM     69  C34 non d ame     -31.612   8.439  22.686  0.00  0.00    -0.075 A 
ATOM     70  H52 non d ame     -30.018   7.606  21.497  0.00  0.00     0.083 H 
ATOM     71  H53 non d ame     -32.230   7.542  22.625  0.00  0.00     0.084 H 
ENDBRANCH  58  61
ENDBRANCH  57  58
ENDBRANCH  55  57
ENDBRANCH  52  55
ENDBRANCH  49  52
ENDBRANCH  47  49
BRANCH  47  72
ATOM     72  C24 non d ame     -33.809  10.872  29.508  0.00  0.00    -0.039 C 
ATOM     73  H35 non d ame     -34.766  11.003  30.014  0.00  0.00     0.036 H 
ATOM     74  H36 non d ame     -33.192  10.000  29.727  0.00  0.00     0.036 H 
BRANCH  72  75
ATOM     75  C25 non d ame     -32.924  12.169  29.824  0.00  0.00    -0.001 C 
ATOM     76  C26 non d ame     -31.732  12.320  28.703  0.00  0.00    -0.035 C 
ATOM     77  C27 non d ame     -30.547  12.471  29.342  0.00  0.00     0.085 C 
ATOM     78  H38 non d ame     -31.610  11.385  28.157  0.00  0.00     0.036 H 
ATOM     79  H39 non d ame     -31.847  13.258  28.157  0.00  0.00     0.036 H 
ATOM     80  N5  non d ame     -30.778  12.108  30.790  0.00  0.00    -0.049 N 
ATOM     81  H40 non d ame     -29.879  11.735  28.893  0.00  0.00     0.075 H 
ATOM     82  H41 non d ame     -30.312  13.532  29.275  0.00  0.00     0.075 H 
ATOM     83  C28 non d ame     -32.379  12.089  30.992  0.00  0.00     0.193 C 
ATOM     84  H42 non d ame     -30.428  11.168  30.908  0.00  0.00     0.280 HD
ATOM     85  H43 non d ame     -30.392  12.864  31.338  0.00  0.00     0.280 HD
ATOM     86  H44 non d ame     -32.882  12.912  31.502  0.00  0.00     0.129 H 
ATOM     87  H37 non d ame     -33.536  13.049  30.019  0.00  0.00     0.046 H 
BRANCH  83  88
ATOM     88  O6  non d ame     -32.774  10.908  31.692  0.00  0.00    -0.369 OA
ATOM     89  H45 non d ame     -33.264  11.152  32.481  0.00  0.00     0.212 HD
ENDBRANCH  83  88
ENDBRANCH  72  75
ENDBRANCH  47  72
ENDBRANCH  45  47
ENDBRANCH   1  43
BRANCH   1  90
ATOM     90  C16 non d ame     -37.238  12.974  25.157  0.00  0.00    -0.035 C 
ATOM     91  H21 non d ame     -37.100  13.761  24.416  0.00  0.00     0.037 H 
ATOM     92  H22 non d ame     -36.801  11.989  24.995  0.00  0.00     0.037 H 
BRANCH  90  93
ATOM     93  C17 non d ame     -38.779  12.758  25.287  0.00  0.00    -0.059 C 
ATOM     94  H23 non d ame     -39.041  11.883  24.694  0.00  0.00     0.038 H 
BRANCH  93  95
ATOM     95  C18 non d ame     -39.213  12.480  26.762  0.00  0.00    -0.073 C 
ATOM     96  H24 non d ame     -40.197  12.011  26.770  0.00  0.00     0.028 H 
ATOM     97  H25 non d ame     -38.490  11.814  27.234  0.00  0.00     0.028 H 
ATOM     98  H26 non d ame     -39.254  13.420  27.312  0.00  0.00     0.028 H 
ENDBRANCH  93  95
BRANCH  93  99
ATOM     99  C19 non d ame     -39.550  13.948  24.709  0.00  0.00    -0.073 C 
ATOM    100  H27 non d ame     -39.896  14.587  25.523  0.00  0.00     0.028 H 
ATOM    101  H28 non d ame     -38.895  14.522  24.053  0.00  0.00     0.028 H 
ATOM    102  H29 non d ame     -40.406  13.586  24.141  0.00  0.00     0.028 H 
ENDBRANCH  93  99
ENDBRANCH  90  93
ENDBRANCH   1  90
TORSDOF 26
ENDMDL
MODEL 5
REMARK VINA RESULT:      -6.6      2.940      3.893
REMARK  26 active torsions:
REMARK  status: ('A' for Active; 'I' for Inactive)
REMARK    1  A    between atoms: C2_2  and  C3_3 
REMARK    2  A    between atoms: C4_6  and  C5_7 
REMARK       I    between atoms: C5_7  and  N2_9 
REMARK    3  A    between atoms: N2_9  and  C6_10 
REMARK    4  A    between atoms: C6_10  and  C7_11 
REMARK    5  A    between atoms: C6_10  and  C8_13 
REMARK       I    between atoms: C7_11  and  N3_14 
REMARK    6  A    between atoms: N3_14  and  C9_15 
REMARK    7  A    between atoms: C9_15  and  C10_16 
REMARK    8  A    between atoms: C9_15  and  C11_18 
REMARK       I    between atoms: C10_16  and  N4_21 
REMARK    9  A    between atoms: C11_18  and  C12_19 
REMARK   10  A    between atoms: C11_18  and  C13_20 
REMARK   11  A    between atoms: N4_21  and  C14_22 
REMARK   12  A    between atoms: C14_22  and  C15_23 
REMARK   13  A    between atoms: C14_22  and  C16_25 
REMARK       I    between atoms: C15_23  and  N6_40 
REMARK   14  A    between atoms: C16_25  and  C17_26 
REMARK   15  A    between atoms: C17_26  and  C18_27 
REMARK   16  A    between atoms: C17_26  and  C19_28 
REMARK   17  A    between atoms: C20_29  and  C21_30 
REMARK   18  A    between atoms: C20_29  and  C24_33 
REMARK   19  A    between atoms: C20_29  and  N6_40 
REMARK   20  A    between atoms: C21_30  and  C22_31 
REMARK   21  A    between atoms: C22_31  and  C23_32 
REMARK   22  A    between atoms: C23_32  and  O8_43 
REMARK   23  A    between atoms: C24_33  and  C25_34 
REMARK   24  A    between atoms: C28_38  and  O6_39 
REMARK   25  A    between atoms: C29_42  and  O8_43 
REMARK   26  A    between atoms: C29_42  and  C35_49 
ROOT
ATOM      1  C14 non d ame     -33.071   9.209  27.512  0.00  0.00     0.089 C 
ATOM      2  H20 non d ame     -32.020   8.918  27.509  0.00  0.00     0.087 H 
ENDROOT
BRANCH   1   3
ATOM      3  N4  non d ame     -33.128  10.642  27.761  0.00  0.00    -0.346 N 
ATOM      4  C10 non d ame     -32.113  11.565  27.138  0.00  0.00     0.241 C 
ATOM      5  O4  non d ame     -31.256  11.132  26.440  0.00  0.00    -0.271 OA
ATOM      6  H19 non d ame     -33.863  10.990  28.360  0.00  0.00     0.163 HD
BRANCH   4   7
ATOM      7  C9  non d ame     -32.190  13.046  27.403  0.00  0.00     0.092 C 
ATOM      8  H11 non d ame     -31.492  13.565  26.747  0.00  0.00     0.088 H 
BRANCH   7   9
ATOM      9  N3  non d ame     -33.534  13.532  27.077  0.00  0.00    -0.346 N 
ATOM     10  C7  non d ame     -33.732  14.395  25.939  0.00  0.00     0.240 C 
ATOM     11  O3  non d ame     -32.820  14.709  25.275  0.00  0.00    -0.271 OA
ATOM     12  H10 non d ame     -34.330  13.270  27.641  0.00  0.00     0.163 HD
BRANCH  10  13
ATOM     13  C6  non d ame     -35.164  14.912  25.598  0.00  0.00     0.086 C 
ATOM     14  H6  non d ame     -35.163  15.927  25.203  0.00  0.00     0.086 H 
BRANCH  13  15
ATOM     15  N2  non d ame     -35.738  14.065  24.565  0.00  0.00    -0.343 N 
ATOM     16  C5  non d ame     -36.850  14.567  23.756  0.00  0.00     0.273 C 
ATOM     17  O2  non d ame     -37.279  15.652  23.945  0.00  0.00    -0.266 OA
ATOM     18  H5  non d ame     -35.367  13.138  24.412  0.00  0.00     0.163 HD
BRANCH  16  19
ATOM     19  C4  non d ame     -37.465  13.682  22.660  0.00  0.00     0.154 A 
ATOM     20  C1  non d ame     -38.089  14.116  21.448  0.00  0.00    -0.017 A 
ATOM     21  C2  non d ame     -38.482  12.926  20.796  0.00  0.00     0.077 A 
ATOM     22  H1  non d ame     -38.234  15.137  21.095  0.00  0.00     0.091 H 
ATOM     23  O1  non d ame     -38.121  11.931  21.553  0.00  0.00    -0.218 OA
ATOM     24  N1  non d ame     -37.525  12.348  22.647  0.00  0.00    -0.123 NA
BRANCH  21  25
ATOM     25  C3  non d ame     -39.196  12.826  19.455  0.00  0.00    -0.029 C 
ATOM     26  H2  non d ame     -39.706  11.865  19.385  0.00  0.00     0.036 H 
ATOM     27  H3  non d ame     -39.927  13.630  19.371  0.00  0.00     0.036 H 
ATOM     28  H4  non d ame     -38.468  12.910  18.648  0.00  0.00     0.036 H 
ENDBRANCH  21  25
ENDBRANCH  16  19
ENDBRANCH  13  15
BRANCH  13  29
ATOM     29  C8  non d ame     -36.023  14.872  26.836  0.00  0.00    -0.049 C 
ATOM     30  H7  non d ame     -35.568  15.483  27.614  0.00  0.00     0.030 H 
ATOM     31  H8  non d ame     -37.014  15.260  26.603  0.00  0.00     0.030 H 
ATOM     32  H9  non d ame     -36.109  13.842  27.185  0.00  0.00     0.030 H 
ENDBRANCH  13  29
ENDBRANCH  10  13
ENDBRANCH   7   9
BRANCH   7  33
ATOM     33  C11 non d ame     -31.894  13.319  28.908  0.00  0.00    -0.033 C 
ATOM     34  H12 non d ame     -32.662  12.811  29.491  0.00  0.00     0.042 H 
BRANCH  33  35
ATOM     35  C12 non d ame     -30.514  12.727  29.331  0.00  0.00    -0.071 C 
ATOM     36  H13 non d ame     -29.879  12.619  28.451  0.00  0.00     0.028 H 
ATOM     37  H14 non d ame     -30.035  13.395  30.045  0.00  0.00     0.028 H 
ATOM     38  H15 non d ame     -30.664  11.750  29.791  0.00  0.00     0.028 H 
ENDBRANCH  33  35
BRANCH  33  39
ATOM     39  C13 non d ame     -31.977  14.846  29.225  0.00  0.00    -0.071 C 
ATOM     40  H16 non d ame     -33.007  15.186  29.110  0.00  0.00     0.028 H 
ATOM     41  H17 non d ame     -31.648  15.023  30.250  0.00  0.00     0.028 H 
ATOM     42  H18 non d ame     -31.334  15.396  28.538  0.00  0.00     0.028 H 
ENDBRANCH  33  39
ENDBRANCH   7  33
ENDBRANCH   4   7
ENDBRANCH   1   3
BRANCH   1  43
ATOM     43  C15 non d ame     -33.764   8.915  26.150  0.00  0.00     0.240 C 
ATOM     44  O5  non d ame     -34.846   9.355  25.931  0.00  0.00    -0.271 OA
ATOM     45  N6  non d ame     -33.074   8.094  25.115  0.00  0.00    -0.355 N 
ATOM     46  H46 non d ame     -32.152   7.720  25.288  0.00  0.00     0.162 HD
BRANCH  45  47
ATOM     47  C20 non d ame     -33.747   7.825  23.826  0.00  0.00     0.013 C 
ATOM     48  H30 non d ame     -34.714   8.327  23.842  0.00  0.00     0.072 H 
BRANCH  47  49
ATOM     49  C21 non d ame     -33.939   6.334  23.664  0.00  0.00    -0.038 C 
ATOM     50  H31 non d ame     -34.915   6.114  24.099  0.00  0.00     0.036 H 
ATOM     51  H32 non d ame     -33.753   6.126  22.610  0.00  0.00     0.036 H 
BRANCH  49  52
ATOM     52  C22 non d ame     -32.908   5.506  24.461  0.00  0.00     0.018 C 
ATOM     53  H33 non d ame     -32.518   4.768  23.762  0.00  0.00     0.048 H 
ATOM     54  H34 non d ame     -32.236   6.234  24.917  0.00  0.00     0.048 H 
BRANCH  52  55
ATOM     55  C23 non d ame     -33.526   4.700  25.636  0.00  0.00     0.259 C 
ATOM     56  O7  non d ame     -33.661   3.522  25.554  0.00  0.00    -0.265 OA
BRANCH  55  57
ATOM     57  O8  non d ame     -33.943   5.387  26.810  0.00  0.00    -0.317 OA
BRANCH  57  58
ATOM     58  C29 non d ame     -33.698   4.670  28.023  0.00  0.00     0.052 C 
ATOM     59  H47 non d ame     -33.859   3.620  27.783  0.00  0.00     0.082 H 
ATOM     60  H48 non d ame     -32.724   5.007  28.374  0.00  0.00     0.082 H 
BRANCH  58  61
ATOM     61  C35 non d ame     -34.768   5.106  29.060  0.00  0.00    -0.034 A 
ATOM     62  C30 non d ame     -34.417   5.265  30.398  0.00  0.00    -0.075 A 
ATOM     63  C31 non d ame     -35.379   5.655  31.329  0.00  0.00    -0.082 A 
ATOM     64  H49 non d ame     -33.391   5.082  30.716  0.00  0.00     0.084 H 
ATOM     65  C32 non d ame     -36.695   5.886  30.920  0.00  0.00    -0.083 A 
ATOM     66  H50 non d ame     -35.100   5.781  32.377  0.00  0.00     0.083 H 
ATOM     67  C33 non d ame     -37.040   5.722  29.586  0.00  0.00    -0.082 A 
ATOM     68  H51 non d ame     -37.452   6.192  31.642  0.00  0.00     0.083 H 
ATOM     69  C34 non d ame     -36.083   5.333  28.651  0.00  0.00    -0.075 A 
ATOM     70  H52 non d ame     -38.069   5.900  29.270  0.00  0.00     0.083 H 
ATOM     71  H53 non d ame     -36.362   5.209  27.604  0.00  0.00     0.084 H 
ENDBRANCH  58  61
ENDBRANCH  57  58
ENDBRANCH  55  57
ENDBRANCH  52  55
ENDBRANCH  49  52
ENDBRANCH  47  49
BRANCH  47  72
ATOM     72  C24 non d ame     -32.893   8.357  22.677  0.00  0.00    -0.039 C 
ATOM     73  H35 non d ame     -32.929   7.586  21.907  0.00  0.00     0.036 H 
ATOM     74  H36 non d ame     -33.279   9.355  22.467  0.00  0.00     0.036 H 
BRANCH  72  75
ATOM     75  C25 non d ame     -31.359   8.525  23.107  0.00  0.00    -0.001 C 
ATOM     76  C26 non d ame     -30.946  10.116  23.100  0.00  0.00    -0.035 C 
ATOM     77  C27 non d ame     -29.816  10.271  22.369  0.00  0.00     0.085 C 
ATOM     78  H38 non d ame     -31.688  10.693  22.548  0.00  0.00     0.036 H 
ATOM     79  H39 non d ame     -30.647  10.430  24.101  0.00  0.00     0.036 H 
ATOM     80  N5  non d ame     -29.604   8.985  21.607  0.00  0.00    -0.049 N 
ATOM     81  H40 non d ame     -30.034  11.072  21.663  0.00  0.00     0.075 H 
ATOM     82  H41 non d ame     -29.014  10.390  23.096  0.00  0.00     0.075 H 
ATOM     83  C28 non d ame     -30.576   7.895  22.296  0.00  0.00     0.193 C 
ATOM     84  H42 non d ame     -29.927   9.154  20.666  0.00  0.00     0.280 HD
ATOM     85  H43 non d ame     -28.645   8.712  21.772  0.00  0.00     0.280 HD
ATOM     86  H44 non d ame     -30.169   7.135  22.964  0.00  0.00     0.129 H 
ATOM     87  H37 non d ame     -31.117   7.953  24.002  0.00  0.00     0.046 H 
BRANCH  83  88
ATOM     88  O6  non d ame     -31.299   7.178  21.295  0.00  0.00    -0.369 OA
ATOM     89  H45 non d ame     -30.780   6.424  21.003  0.00  0.00     0.212 HD
ENDBRANCH  83  88
ENDBRANCH  72  75
ENDBRANCH  47  72
ENDBRANCH  45  47
ENDBRANCH   1  43
BRANCH   1  90
ATOM     90  C16 non d ame     -33.804   8.480  28.627  0.00  0.00    -0.035 C 
ATOM     91  H21 non d ame     -34.494   7.805  28.124  0.00  0.00     0.037 H 
ATOM     92  H22 non d ame     -33.022   8.081  29.273  0.00  0.00     0.037 H 
BRANCH  90  93
ATOM     93  C17 non d ame     -34.678   9.419  29.519  0.00  0.00    -0.059 C 
ATOM     94  H23 non d ame     -34.389  10.447  29.299  0.00  0.00     0.038 H 
BRANCH  93  95
ATOM     95  C18 non d ame     -36.202   9.276  29.208  0.00  0.00    -0.073 C 
ATOM     96  H24 non d ame     -36.778   9.465  30.114  0.00  0.00     0.028 H 
ATOM     97  H25 non d ame     -36.485   9.999  28.442  0.00  0.00     0.028 H 
ATOM     98  H26 non d ame     -36.407   8.268  28.850  0.00  0.00     0.028 H 
ENDBRANCH  93  95
BRANCH  93  99
ATOM     99  C19 non d ame     -34.400   9.175  31.005  0.00  0.00    -0.073 C 
ATOM    100  H27 non d ame     -35.291   9.419  31.585  0.00  0.00     0.028 H 
ATOM    101  H28 non d ame     -34.142   8.127  31.160  0.00  0.00     0.028 H 
ATOM    102  H29 non d ame     -33.572   9.805  31.328  0.00  0.00     0.028 H 
ENDBRANCH  93  99
ENDBRANCH  90  93
ENDBRANCH   1  90
TORSDOF 26
ENDMDL
MODEL 6
REMARK VINA RESULT:      -6.5      3.025      5.641
REMARK  26 active torsions:
REMARK  status: ('A' for Active; 'I' for Inactive)
REMARK    1  A    between atoms: C2_2  and  C3_3 
REMARK    2  A    between atoms: C4_6  and  C5_7 
REMARK       I    between atoms: C5_7  and  N2_9 
REMARK    3  A    between atoms: N2_9  and  C6_10 
REMARK    4  A    between atoms: C6_10  and  C7_11 
REMARK    5  A    between atoms: C6_10  and  C8_13 
REMARK       I    between atoms: C7_11  and  N3_14 
REMARK    6  A    between atoms: N3_14  and  C9_15 
REMARK    7  A    between atoms: C9_15  and  C10_16 
REMARK    8  A    between atoms: C9_15  and  C11_18 
REMARK       I    between atoms: C10_16  and  N4_21 
REMARK    9  A    between atoms: C11_18  and  C12_19 
REMARK   10  A    between atoms: C11_18  and  C13_20 
REMARK   11  A    between atoms: N4_21  and  C14_22 
REMARK   12  A    between atoms: C14_22  and  C15_23 
REMARK   13  A    between atoms: C14_22  and  C16_25 
REMARK       I    between atoms: C15_23  and  N6_40 
REMARK   14  A    between atoms: C16_25  and  C17_26 
REMARK   15  A    between atoms: C17_26  and  C18_27 
REMARK   16  A    between atoms: C17_26  and  C19_28 
REMARK   17  A    between atoms: C20_29  and  C21_30 
REMARK   18  A    between atoms: C20_29  and  C24_33 
REMARK   19  A    between atoms: C20_29  and  N6_40 
REMARK   20  A    between atoms: C21_30  and  C22_31 
REMARK   21  A    between atoms: C22_31  and  C23_32 
REMARK   22  A    between atoms: C23_32  and  O8_43 
REMARK   23  A    between atoms: C24_33  and  C25_34 
REMARK   24  A    between atoms: C28_38  and  O6_39 
REMARK   25  A    between atoms: C29_42  and  O8_43 
REMARK   26  A    between atoms: C29_42  and  C35_49 
ROOT
ATOM      1  C14 non d ame     -36.289  13.316  25.997  0.00  0.00     0.089 C 
ATOM      2  H20 non d ame     -37.046  13.265  26.779  0.00  0.00     0.087 H 
ENDROOT
BRANCH   1   3
ATOM      3  N4  non d ame     -36.024  14.723  25.733  0.00  0.00    -0.346 N 
ATOM      4  C10 non d ame     -36.813  15.792  26.444  0.00  0.00     0.241 C 
ATOM      5  O4  non d ame     -37.658  15.498  27.223  0.00  0.00    -0.271 OA
ATOM      6  H19 non d ame     -35.302  14.952  25.065  0.00  0.00     0.163 HD
BRANCH   4   7
ATOM      7  C9  non d ame     -36.522  17.244  26.163  0.00  0.00     0.092 C 
ATOM      8  H11 non d ame     -36.844  17.845  27.013  0.00  0.00     0.088 H 
BRANCH   7   9
ATOM      9  N3  non d ame     -35.076  17.434  26.020  0.00  0.00    -0.346 N 
ATOM     10  C7  non d ame     -34.258  17.651  27.188  0.00  0.00     0.240 C 
ATOM     11  O3  non d ame     -34.748  17.676  28.250  0.00  0.00    -0.271 OA
ATOM     12  H10 non d ame     -34.640  17.416  25.109  0.00  0.00     0.163 HD
BRANCH  10  13
ATOM     13  C6  non d ame     -32.720  17.856  27.029  0.00  0.00     0.086 C 
ATOM     14  H6  non d ame     -32.144  17.329  27.789  0.00  0.00     0.086 H 
BRANCH  13  15
ATOM     15  N2  non d ame     -32.302  17.319  25.744  0.00  0.00    -0.343 N 
ATOM     16  C5  non d ame     -31.710  15.982  25.680  0.00  0.00     0.273 C 
ATOM     17  O2  non d ame     -31.570  15.347  26.667  0.00  0.00    -0.266 OA
ATOM     18  H5  non d ame     -32.423  17.870  24.906  0.00  0.00     0.163 HD
BRANCH  16  19
ATOM     19  C4  non d ame     -31.264  15.402  24.328  0.00  0.00     0.154 A 
ATOM     20  C1  non d ame     -31.364  16.026  23.044  0.00  0.00    -0.017 A 
ATOM     21  C2  non d ame     -30.821  15.085  22.141  0.00  0.00     0.077 A 
ATOM     22  H1  non d ame     -31.767  17.010  22.806  0.00  0.00     0.091 H 
ATOM     23  O1  non d ame     -30.455  14.048  22.834  0.00  0.00    -0.218 OA
ATOM     24  N1  non d ame     -30.704  14.209  24.113  0.00  0.00    -0.123 NA
BRANCH  21  25
ATOM     25  C3  non d ame     -30.687  15.257  20.634  0.00  0.00    -0.029 C 
ATOM     26  H2  non d ame     -31.185  16.176  20.326  0.00  0.00     0.036 H 
ATOM     27  H3  non d ame     -29.632  15.310  20.365  0.00  0.00     0.036 H 
ATOM     28  H4  non d ame     -31.147  14.408  20.128  0.00  0.00     0.036 H 
ENDBRANCH  21  25
ENDBRANCH  16  19
ENDBRANCH  13  15
BRANCH  13  29
ATOM     29  C8  non d ame     -32.396  19.326  27.104  0.00  0.00    -0.049 C 
ATOM     30  H7  non d ame     -33.192  19.900  26.632  0.00  0.00     0.030 H 
ATOM     31  H8  non d ame     -32.304  19.625  28.148  0.00  0.00     0.030 H 
ATOM     32  H9  non d ame     -31.454  19.518  26.587  0.00  0.00     0.030 H 
ENDBRANCH  13  29
ENDBRANCH  10  13
ENDBRANCH   7   9
BRANCH   7  33
ATOM     33  C11 non d ame     -37.231  17.667  24.843  0.00  0.00    -0.033 C 
ATOM     34  H12 non d ame     -36.846  17.034  24.044  0.00  0.00     0.042 H 
BRANCH  33  35
ATOM     35  C12 non d ame     -38.772  17.432  24.925  0.00  0.00    -0.071 C 
ATOM     36  H13 non d ame     -39.222  17.624  23.951  0.00  0.00     0.028 H 
ATOM     37  H14 non d ame     -38.967  16.402  25.220  0.00  0.00     0.028 H 
ATOM     38  H15 non d ame     -39.204  18.110  25.662  0.00  0.00     0.028 H 
ENDBRANCH  33  35
BRANCH  33  39
ATOM     39  C13 non d ame     -36.903  19.152  24.483  0.00  0.00    -0.071 C 
ATOM     40  H16 non d ame     -36.563  19.209  23.449  0.00  0.00     0.028 H 
ATOM     41  H17 non d ame     -37.797  19.763  24.607  0.00  0.00     0.028 H 
ATOM     42  H18 non d ame     -36.118  19.521  25.144  0.00  0.00     0.028 H 
ENDBRANCH  33  39
ENDBRANCH   7  33
ENDBRANCH   4   7
ENDBRANCH   1   3
BRANCH   1  43
ATOM     43  C15 non d ame     -34.957  12.633  26.424  0.00  0.00     0.240 C 
ATOM     44  O5  non d ame     -33.918  13.122  26.120  0.00  0.00    -0.271 OA
ATOM     45  N6  non d ame     -34.979  11.373  27.221  0.00  0.00    -0.355 N 
ATOM     46  H46 non d ame     -35.856  10.951  27.489  0.00  0.00     0.162 HD
BRANCH  45  47
ATOM     47  C20 non d ame     -33.704  10.737  27.620  0.00  0.00     0.013 C 
ATOM     48  H30 non d ame     -32.890  11.322  27.191  0.00  0.00     0.072 H 
BRANCH  47  49
ATOM     49  C21 non d ame     -33.663   9.323  27.087  0.00  0.00    -0.038 C 
ATOM     50  H31 non d ame     -32.611   9.036  27.095  0.00  0.00     0.036 H 
ATOM     51  H32 non d ame     -34.386   8.763  27.681  0.00  0.00     0.036 H 
BRANCH  49  52
ATOM     52  C22 non d ame     -34.133   9.222  25.619  0.00  0.00     0.018 C 
ATOM     53  H33 non d ame     -34.807   8.367  25.584  0.00  0.00     0.048 H 
ATOM     54  H34 non d ame     -34.497  10.216  25.357  0.00  0.00     0.048 H 
BRANCH  52  55
ATOM     55  C23 non d ame     -32.989   8.907  24.616  0.00  0.00     0.259 C 
ATOM     56  O7  non d ame     -32.152   9.718  24.382  0.00  0.00    -0.265 OA
BRANCH  55  57
ATOM     57  O8  non d ame     -32.959   7.641  23.968  0.00  0.00    -0.317 OA
BRANCH  57  58
ATOM     58  C29 non d ame     -31.874   6.803  24.375  0.00  0.00     0.052 C 
ATOM     59  H47 non d ame     -31.603   6.221  23.494  0.00  0.00     0.082 H 
ATOM     60  H48 non d ame     -31.144   7.467  24.836  0.00  0.00     0.082 H 
BRANCH  58  61
ATOM     61  C35 non d ame     -32.404   5.829  25.462  0.00  0.00    -0.034 A 
ATOM     62  C30 non d ame     -33.177   4.731  25.096  0.00  0.00    -0.075 A 
ATOM     63  C31 non d ame     -33.653   3.856  26.072  0.00  0.00    -0.082 A 
ATOM     64  H49 non d ame     -33.410   4.556  24.045  0.00  0.00     0.084 H 
ATOM     65  C32 non d ame     -33.355   4.083  27.418  0.00  0.00    -0.083 A 
ATOM     66  H50 non d ame     -34.257   2.996  25.781  0.00  0.00     0.083 H 
ATOM     67  C33 non d ame     -32.587   5.182  27.778  0.00  0.00    -0.082 A 
ATOM     68  H51 non d ame     -33.723   3.404  28.187  0.00  0.00     0.083 H 
ATOM     69  C34 non d ame     -32.108   6.058  26.807  0.00  0.00    -0.075 A 
ATOM     70  H52 non d ame     -32.358   5.358  28.830  0.00  0.00     0.083 H 
ATOM     71  H53 non d ame     -31.503   6.917  27.097  0.00  0.00     0.084 H 
ENDBRANCH  58  61
ENDBRANCH  57  58
ENDBRANCH  55  57
ENDBRANCH  52  55
ENDBRANCH  49  52
ENDBRANCH  47  49
BRANCH  47  72
ATOM     72  C24 non d ame     -33.595  10.712  29.143  0.00  0.00    -0.039 C 
ATOM     73  H35 non d ame     -34.623  10.724  29.507  0.00  0.00     0.036 H 
ATOM     74  H36 non d ame     -32.945   9.868  29.373  0.00  0.00     0.036 H 
BRANCH  72  75
ATOM     75  C25 non d ame     -32.878  12.029  29.707  0.00  0.00    -0.001 C 
ATOM     76  C26 non d ame     -31.610  12.433  28.742  0.00  0.00    -0.035 C 
ATOM     77  C27 non d ame     -30.509  12.601  29.514  0.00  0.00     0.085 C 
ATOM     78  H38 non d ame     -31.345  11.593  28.100  0.00  0.00     0.036 H 
ATOM     79  H39 non d ame     -31.769  13.421  28.309  0.00  0.00     0.036 H 
ATOM     80  N5  non d ame     -30.833  12.029  30.874  0.00  0.00    -0.049 N 
ATOM     81  H40 non d ame     -29.732  11.994  29.049  0.00  0.00     0.075 H 
ATOM     82  H41 non d ame     -30.378  13.678  29.604  0.00  0.00     0.075 H 
ATOM     83  C28 non d ame     -32.436  11.842  30.906  0.00  0.00     0.193 C 
ATOM     84  H42 non d ame     -30.402  11.117  30.910  0.00  0.00     0.280 HD
ATOM     85  H43 non d ame     -30.577  12.736  31.548  0.00  0.00     0.280 HD
ATOM     86  H44 non d ame     -33.063  12.542  31.459  0.00  0.00     0.129 H 
ATOM     87  H37 non d ame     -33.591  12.817  29.946  0.00  0.00     0.046 H 
BRANCH  83  88
ATOM     88  O6  non d ame     -32.771  10.548  31.410  0.00  0.00    -0.369 OA
ATOM     89  H45 non d ame     -33.235  10.051  30.731  0.00  0.00     0.212 HD
ENDBRANCH  83  88
ENDBRANCH  72  75
ENDBRANCH  47  72
ENDBRANCH  45  47
ENDBRANCH   1  43
BRANCH   1  90
ATOM     90  C16 non d ame     -36.814  12.663  24.728  0.00  0.00    -0.035 C 
ATOM     91  H21 non d ame     -36.514  13.325  23.918  0.00  0.00     0.037 H 
ATOM     92  H22 non d ame     -36.448  11.637  24.760  0.00  0.00     0.037 H 
BRANCH  90  93
ATOM     93  C17 non d ame     -38.373  12.574  24.670  0.00  0.00    -0.059 C 
ATOM     94  H23 non d ame     -38.631  11.672  24.115  0.00  0.00     0.038 H 
BRANCH  93  95
ATOM     95  C18 non d ame     -39.010  12.458  26.091  0.00  0.00    -0.073 C 
ATOM     96  H24 non d ame     -40.057  12.762  26.046  0.00  0.00     0.028 H 
ATOM     97  H25 non d ame     -38.948  11.426  26.434  0.00  0.00     0.028 H 
ATOM     98  H26 non d ame     -38.474  13.106  26.784  0.00  0.00     0.028 H 
ENDBRANCH  93  95
BRANCH  93  99
ATOM     99  C19 non d ame     -38.960  13.763  23.904  0.00  0.00    -0.073 C 
ATOM    100  H27 non d ame     -38.222  14.565  23.859  0.00  0.00     0.028 H 
ATOM    101  H28 non d ame     -39.220  13.452  22.892  0.00  0.00     0.028 H 
ATOM    102  H29 non d ame     -39.854  14.119  24.416  0.00  0.00     0.028 H 
ENDBRANCH  93  99
ENDBRANCH  90  93
ENDBRANCH   1  90
TORSDOF 26
ENDMDL
MODEL 7
REMARK VINA RESULT:      -6.5      3.603     11.090
REMARK  26 active torsions:
REMARK  status: ('A' for Active; 'I' for Inactive)
REMARK    1  A    between atoms: C2_2  and  C3_3 
REMARK    2  A    between atoms: C4_6  and  C5_7 
REMARK       I    between atoms: C5_7  and  N2_9 
REMARK    3  A    between atoms: N2_9  and  C6_10 
REMARK    4  A    between atoms: C6_10  and  C7_11 
REMARK    5  A    between atoms: C6_10  and  C8_13 
REMARK       I    between atoms: C7_11  and  N3_14 
REMARK    6  A    between atoms: N3_14  and  C9_15 
REMARK    7  A    between atoms: C9_15  and  C10_16 
REMARK    8  A    between atoms: C9_15  and  C11_18 
REMARK       I    between atoms: C10_16  and  N4_21 
REMARK    9  A    between atoms: C11_18  and  C12_19 
REMARK   10  A    between atoms: C11_18  and  C13_20 
REMARK   11  A    between atoms: N4_21  and  C14_22 
REMARK   12  A    between atoms: C14_22  and  C15_23 
REMARK   13  A    between atoms: C14_22  and  C16_25 
REMARK       I    between atoms: C15_23  and  N6_40 
REMARK   14  A    between atoms: C16_25  and  C17_26 
REMARK   15  A    between atoms: C17_26  and  C18_27 
REMARK   16  A    between atoms: C17_26  and  C19_28 
REMARK   17  A    between atoms: C20_29  and  C21_30 
REMARK   18  A    between atoms: C20_29  and  C24_33 
REMARK   19  A    between atoms: C20_29  and  N6_40 
REMARK   20  A    between atoms: C21_30  and  C22_31 
REMARK   21  A    between atoms: C22_31  and  C23_32 
REMARK   22  A    between atoms: C23_32  and  O8_43 
REMARK   23  A    between atoms: C24_33  and  C25_34 
REMARK   24  A    between atoms: C28_38  and  O6_39 
REMARK   25  A    between atoms: C29_42  and  O8_43 
REMARK   26  A    between atoms: C29_42  and  C35_49 
ROOT
ATOM      1  C14 non d ame     -32.524  10.963  27.445  0.00  0.00     0.089 C 
ATOM      2  H20 non d ame     -31.866  11.010  28.313  0.00  0.00     0.087 H 
ENDROOT
BRANCH   1   3
ATOM      3  N4  non d ame     -33.741  10.278  27.854  0.00  0.00    -0.346 N 
ATOM      4  C10 non d ame     -33.958   9.908  29.299  0.00  0.00     0.241 C 
ATOM      5  O4  non d ame     -33.138  10.170  30.116  0.00  0.00    -0.271 OA
ATOM      6  H19 non d ame     -34.425  10.061  27.144  0.00  0.00     0.163 HD
BRANCH   4   7
ATOM      7  C9  non d ame     -35.225   9.203  29.706  0.00  0.00     0.092 C 
ATOM      8  H11 non d ame     -36.039   9.526  29.058  0.00  0.00     0.088 H 
BRANCH   7   9
ATOM      9  N3  non d ame     -35.065   7.758  29.514  0.00  0.00    -0.346 N 
ATOM     10  C7  non d ame     -35.377   7.162  28.239  0.00  0.00     0.240 C 
ATOM     11  O3  non d ame     -35.759   7.830  27.356  0.00  0.00    -0.271 OA
ATOM     12  H10 non d ame     -34.738   7.170  30.267  0.00  0.00     0.163 HD
BRANCH  10  13
ATOM     13  C6  non d ame     -35.207   5.624  28.041  0.00  0.00     0.086 C 
ATOM     14  H6  non d ame     -34.461   5.376  27.286  0.00  0.00     0.086 H 
BRANCH  13  15
ATOM     15  N2  non d ame     -34.749   5.035  29.288  0.00  0.00    -0.343 N 
ATOM     16  C5  non d ame     -33.403   4.462  29.364  0.00  0.00     0.273 C 
ATOM     17  O2  non d ame     -32.698   4.476  28.415  0.00  0.00    -0.266 OA
ATOM     18  H5  non d ame     -35.359   5.025  30.093  0.00  0.00     0.163 HD
BRANCH  16  19
ATOM     19  C4  non d ame     -32.906   3.838  30.677  0.00  0.00     0.154 A 
ATOM     20  C1  non d ame     -31.942   2.791  30.825  0.00  0.00    -0.017 A 
ATOM     21  C2  non d ame     -31.840   2.586  32.219  0.00  0.00     0.077 A 
ATOM     22  H1  non d ame     -31.400   2.261  30.042  0.00  0.00     0.091 H 
ATOM     23  O1  non d ame     -32.653   3.423  32.795  0.00  0.00    -0.218 OA
ATOM     24  N1  non d ame     -33.286   4.164  31.915  0.00  0.00    -0.123 NA
BRANCH  21  25
ATOM     25  C3  non d ame     -30.943   1.574  32.919  0.00  0.00    -0.029 C 
ATOM     26  H2  non d ame     -30.787   0.714  32.267  0.00  0.00     0.036 H 
ATOM     27  H3  non d ame     -29.982   2.035  33.146  0.00  0.00     0.036 H 
ATOM     28  H4  non d ame     -31.416   1.246  33.845  0.00  0.00     0.036 H 
ENDBRANCH  21  25
ENDBRANCH  16  19
ENDBRANCH  13  15
BRANCH  13  29
ATOM     29  C8  non d ame     -36.527   5.018  27.637  0.00  0.00    -0.049 C 
ATOM     30  H7  non d ame     -37.019   4.601  28.515  0.00  0.00     0.030 H 
ATOM     31  H8  non d ame     -37.161   5.787  27.197  0.00  0.00     0.030 H 
ATOM     32  H9  non d ame     -36.355   4.226  26.907  0.00  0.00     0.030 H 
ENDBRANCH  13  29
ENDBRANCH  10  13
ENDBRANCH   7   9
BRANCH   7  33
ATOM     33  C11 non d ame     -35.521   9.494  31.207  0.00  0.00    -0.033 C 
ATOM     34  H12 non d ame     -34.862  10.303  31.521  0.00  0.00     0.042 H 
BRANCH  33  35
ATOM     35  C12 non d ame     -36.990   9.978  31.413  0.00  0.00    -0.071 C 
ATOM     36  H13 non d ame     -37.649   9.114  31.498  0.00  0.00     0.028 H 
ATOM     37  H14 non d ame     -37.053  10.574  32.323  0.00  0.00     0.028 H 
ATOM     38  H15 non d ame     -37.296  10.583  30.560  0.00  0.00     0.028 H 
ENDBRANCH  33  35
BRANCH  33  39
ATOM     39  C13 non d ame     -35.207   8.245  32.091  0.00  0.00    -0.071 C 
ATOM     40  H16 non d ame     -35.902   7.441  31.846  0.00  0.00     0.028 H 
ATOM     41  H17 non d ame     -34.185   7.912  31.902  0.00  0.00     0.028 H 
ATOM     42  H18 non d ame     -35.313   8.508  33.144  0.00  0.00     0.028 H 
ENDBRANCH  33  39
ENDBRANCH   7  33
ENDBRANCH   4   7
ENDBRANCH   1   3
BRANCH   1  43
ATOM     43  C15 non d ame     -32.905  12.378  26.921  0.00  0.00     0.240 C 
ATOM     44  O5  non d ame     -32.316  12.845  26.001  0.00  0.00    -0.271 OA
ATOM     45  N6  non d ame     -34.011  13.146  27.560  0.00  0.00    -0.355 N 
ATOM     46  H46 non d ame     -34.523  12.756  28.339  0.00  0.00     0.162 HD
BRANCH  45  47
ATOM     47  C20 non d ame     -34.361  14.489  27.049  0.00  0.00     0.013 C 
ATOM     48  H30 non d ame     -33.783  14.663  26.142  0.00  0.00     0.072 H 
BRANCH  47  49
ATOM     49  C21 non d ame     -34.014  15.527  28.092  0.00  0.00    -0.038 C 
ATOM     50  H31 non d ame     -34.696  16.359  27.917  0.00  0.00     0.036 H 
ATOM     51  H32 non d ame     -34.029  15.001  29.047  0.00  0.00     0.036 H 
BRANCH  49  52
ATOM     52  C22 non d ame     -32.585  16.089  27.926  0.00  0.00     0.018 C 
ATOM     53  H33 non d ame     -31.915  15.250  28.110  0.00  0.00     0.048 H 
ATOM     54  H34 non d ame     -32.577  16.591  26.958  0.00  0.00     0.048 H 
BRANCH  52  55
ATOM     55  C23 non d ame     -32.213  17.173  28.974  0.00  0.00     0.259 C 
ATOM     56  O7  non d ame     -31.747  16.863  30.023  0.00  0.00    -0.265 OA
BRANCH  55  57
ATOM     57  O8  non d ame     -32.450  18.544  28.674  0.00  0.00    -0.317 OA
BRANCH  57  58
ATOM     58  C29 non d ame     -32.493  18.834  27.273  0.00  0.00     0.052 C 
ATOM     59  H47 non d ame     -31.837  19.692  27.130  0.00  0.00     0.082 H 
ATOM     60  H48 non d ame     -32.278  17.892  26.770  0.00  0.00     0.082 H 
BRANCH  58  61
ATOM     61  C35 non d ame     -33.943  19.259  26.917  0.00  0.00    -0.034 A 
ATOM     62  C30 non d ame     -34.384  19.192  25.599  0.00  0.00    -0.075 A 
ATOM     63  C31 non d ame     -35.686  19.575  25.279  0.00  0.00    -0.082 A 
ATOM     64  H49 non d ame     -33.711  18.841  24.818  0.00  0.00     0.084 H 
ATOM     65  C32 non d ame     -36.547  20.027  26.282  0.00  0.00    -0.083 A 
ATOM     66  H50 non d ame     -36.030  19.519  24.245  0.00  0.00     0.083 H 
ATOM     67  C33 non d ame     -36.101  20.096  27.595  0.00  0.00    -0.082 A 
ATOM     68  H51 non d ame     -37.567  20.327  26.041  0.00  0.00     0.083 H 
ATOM     69  C34 non d ame     -34.801  19.713  27.920  0.00  0.00    -0.075 A 
ATOM     70  H52 non d ame     -36.775  20.452  28.376  0.00  0.00     0.083 H 
ATOM     71  H53 non d ame     -34.458  19.769  28.953  0.00  0.00     0.084 H 
ENDBRANCH  58  61
ENDBRANCH  57  58
ENDBRANCH  55  57
ENDBRANCH  52  55
ENDBRANCH  49  52
ENDBRANCH  47  49
BRANCH  47  72
ATOM     72  C24 non d ame     -35.857  14.551  26.744  0.00  0.00    -0.039 C 
ATOM     73  H35 non d ame     -36.015  13.847  25.927  0.00  0.00     0.036 H 
ATOM     74  H36 non d ame     -36.355  14.395  27.701  0.00  0.00     0.036 H 
BRANCH  72  75
ATOM     75  C25 non d ame     -36.294  15.998  26.214  0.00  0.00    -0.001 C 
ATOM     76  C26 non d ame     -37.545  16.570  27.114  0.00  0.00    -0.035 C 
ATOM     77  C27 non d ame     -38.538  16.964  26.282  0.00  0.00     0.085 C 
ATOM     78  H38 non d ame     -37.997  15.759  27.684  0.00  0.00     0.036 H 
ATOM     79  H39 non d ame     -37.253  17.493  27.617  0.00  0.00     0.036 H 
ATOM     80  N5  non d ame     -38.212  16.411  24.914  0.00  0.00    -0.049 N 
ATOM     81  H40 non d ame     -39.440  16.480  26.656  0.00  0.00     0.075 H 
ATOM     82  H41 non d ame     -38.477  18.051  26.249  0.00  0.00     0.075 H 
ATOM     83  C28 non d ame     -36.667  15.949  24.979  0.00  0.00     0.193 C 
ATOM     84  H42 non d ame     -38.788  15.590  24.793  0.00  0.00     0.280 HD
ATOM     85  H43 non d ame     -38.291  17.184  24.269  0.00  0.00     0.280 HD
ATOM     86  H44 non d ame     -35.889  16.556  24.513  0.00  0.00     0.129 H 
ATOM     87  H37 non d ame     -35.440  16.661  26.073  0.00  0.00     0.046 H 
BRANCH  83  88
ATOM     88  O6  non d ame     -36.519  14.642  24.422  0.00  0.00    -0.369 OA
ATOM     89  H45 non d ame     -35.807  14.648  23.776  0.00  0.00     0.212 HD
ENDBRANCH  83  88
ENDBRANCH  72  75
ENDBRANCH  47  72
ENDBRANCH  45  47
ENDBRANCH   1  43
BRANCH   1  90
ATOM     90  C16 non d ame     -31.856  10.169  26.334  0.00  0.00    -0.035 C 
ATOM     91  H21 non d ame     -31.438  10.914  25.659  0.00  0.00     0.037 H 
ATOM     92  H22 non d ame     -31.199   9.461  26.840  0.00  0.00     0.037 H 
BRANCH  90  93
ATOM     93  C17 non d ame     -32.854   9.318  25.486  0.00  0.00    -0.059 C 
ATOM     94  H23 non d ame     -33.859   9.521  25.857  0.00  0.00     0.038 H 
BRANCH  93  95
ATOM     95  C18 non d ame     -32.819   9.703  23.972  0.00  0.00    -0.073 C 
ATOM     96  H24 non d ame     -33.753   9.401  23.498  0.00  0.00     0.028 H 
ATOM     97  H25 non d ame     -32.696  10.781  23.875  0.00  0.00     0.028 H 
ATOM     98  H26 non d ame     -31.985   9.196  23.488  0.00  0.00     0.028 H 
ENDBRANCH  93  95
BRANCH  93  99
ATOM     99  C19 non d ame     -32.592   7.821  25.673  0.00  0.00    -0.073 C 
ATOM    100  H27 non d ame     -32.445   7.608  26.733  0.00  0.00     0.028 H 
ATOM    101  H28 non d ame     -33.447   7.253  25.305  0.00  0.00     0.028 H 
ATOM    102  H29 non d ame     -31.699   7.536  25.117  0.00  0.00     0.028 H 
ENDBRANCH  93  99
ENDBRANCH  90  93
ENDBRANCH   1  90
TORSDOF 26
ENDMDL
MODEL 8
REMARK VINA RESULT:      -6.4      3.163      5.489
REMARK  26 active torsions:
REMARK  status: ('A' for Active; 'I' for Inactive)
REMARK    1  A    between atoms: C2_2  and  C3_3 
REMARK    2  A    between atoms: C4_6  and  C5_7 
REMARK       I    between atoms: C5_7  and  N2_9 
REMARK    3  A    between atoms: N2_9  and  C6_10 
REMARK    4  A    between atoms: C6_10  and  C7_11 
REMARK    5  A    between atoms: C6_10  and  C8_13 
REMARK       I    between atoms: C7_11  and  N3_14 
REMARK    6  A    between atoms: N3_14  and  C9_15 
REMARK    7  A    between atoms: C9_15  and  C10_16 
REMARK    8  A    between atoms: C9_15  and  C11_18 
REMARK       I    between atoms: C10_16  and  N4_21 
REMARK    9  A    between atoms: C11_18  and  C12_19 
REMARK   10  A    between atoms: C11_18  and  C13_20 
REMARK   11  A    between atoms: N4_21  and  C14_22 
REMARK   12  A    between atoms: C14_22  and  C15_23 
REMARK   13  A    between atoms: C14_22  and  C16_25 
REMARK       I    between atoms: C15_23  and  N6_40 
REMARK   14  A    between atoms: C16_25  and  C17_26 
REMARK   15  A    between atoms: C17_26  and  C18_27 
REMARK   16  A    between atoms: C17_26  and  C19_28 
REMARK   17  A    between atoms: C20_29  and  C21_30 
REMARK   18  A    between atoms: C20_29  and  C24_33 
REMARK   19  A    between atoms: C20_29  and  N6_40 
REMARK   20  A    between atoms: C21_30  and  C22_31 
REMARK   21  A    between atoms: C22_31  and  C23_32 
REMARK   22  A    between atoms: C23_32  and  O8_43 
REMARK   23  A    between atoms: C24_33  and  C25_34 
REMARK   24  A    between atoms: C28_38  and  O6_39 
REMARK   25  A    between atoms: C29_42  and  O8_43 
REMARK   26  A    between atoms: C29_42  and  C35_49 
ROOT
ATOM      1  C14 non d ame     -36.386  13.801  26.153  0.00  0.00     0.089 C 
ATOM      2  H20 non d ame     -37.233  13.711  26.832  0.00  0.00     0.087 H 
ENDROOT
BRANCH   1   3
ATOM      3  N4  non d ame     -36.153  15.220  25.928  0.00  0.00    -0.346 N 
ATOM      4  C10 non d ame     -37.013  16.251  26.612  0.00  0.00     0.241 C 
ATOM      5  O4  non d ame     -37.890  15.916  27.339  0.00  0.00    -0.271 OA
ATOM      6  H19 non d ame     -35.404  15.485  25.304  0.00  0.00     0.163 HD
BRANCH   4   7
ATOM      7  C9  non d ame     -36.755  17.716  26.372  0.00  0.00     0.092 C 
ATOM      8  H11 non d ame     -37.040  18.280  27.259  0.00  0.00     0.088 H 
BRANCH   7   9
ATOM      9  N3  non d ame     -35.320  17.932  26.162  0.00  0.00    -0.346 N 
ATOM     10  C7  non d ame     -34.410  17.860  27.278  0.00  0.00     0.240 C 
ATOM     11  O3  non d ame     -34.815  17.630  28.352  0.00  0.00    -0.271 OA
ATOM     12  H10 non d ame     -34.957  18.132  25.241  0.00  0.00     0.163 HD
BRANCH  10  13
ATOM     13  C6  non d ame     -32.885  18.094  27.049  0.00  0.00     0.086 C 
ATOM     14  H6  non d ame     -32.267  17.616  27.809  0.00  0.00     0.086 H 
BRANCH  13  15
ATOM     15  N2  non d ame     -32.503  17.508  25.775  0.00  0.00    -0.343 N 
ATOM     16  C5  non d ame     -31.795  16.226  25.754  0.00  0.00     0.273 C 
ATOM     17  O2  non d ame     -31.533  15.676  26.766  0.00  0.00    -0.266 OA
ATOM     18  H5  non d ame     -32.728  17.986  24.915  0.00  0.00     0.163 HD
BRANCH  16  19
ATOM     19  C4  non d ame     -31.386  15.595  24.413  0.00  0.00     0.154 A 
ATOM     20  C1  non d ame     -31.351  16.232  23.133  0.00  0.00    -0.017 A 
ATOM     21  C2  non d ame     -30.912  15.229  22.240  0.00  0.00     0.077 A 
ATOM     22  H1  non d ame     -31.603  17.264  22.889  0.00  0.00     0.091 H 
ATOM     23  O1  non d ame     -30.720  14.147  22.936  0.00  0.00    -0.218 OA
ATOM     24  N1  non d ame     -30.991  14.336  24.207  0.00  0.00    -0.123 NA
BRANCH  21  25
ATOM     25  C3  non d ame     -30.702  15.386  20.740  0.00  0.00    -0.029 C 
ATOM     26  H2  non d ame     -31.496  14.866  20.205  0.00  0.00     0.036 H 
ATOM     27  H3  non d ame     -30.722  16.444  20.479  0.00  0.00     0.036 H 
ATOM     28  H4  non d ame     -29.738  14.962  20.461  0.00  0.00     0.036 H 
ENDBRANCH  21  25
ENDBRANCH  16  19
ENDBRANCH  13  15
BRANCH  13  29
ATOM     29  C8  non d ame     -32.595  19.573  27.045  0.00  0.00    -0.049 C 
ATOM     30  H7  non d ame     -32.800  19.987  28.032  0.00  0.00     0.030 H 
ATOM     31  H8  non d ame     -31.548  19.738  26.793  0.00  0.00     0.030 H 
ATOM     32  H9  non d ame     -33.229  20.065  26.306  0.00  0.00     0.030 H 
ENDBRANCH  13  29
ENDBRANCH  10  13
ENDBRANCH   7   9
BRANCH   7  33
ATOM     33  C11 non d ame     -37.537  18.179  25.107  0.00  0.00    -0.033 C 
ATOM     34  H12 non d ame     -37.590  17.330  24.425  0.00  0.00     0.042 H 
BRANCH  33  35
ATOM     35  C12 non d ame     -39.000  18.587  25.462  0.00  0.00    -0.071 C 
ATOM     36  H13 non d ame     -39.240  18.243  26.469  0.00  0.00     0.028 H 
ATOM     37  H14 non d ame     -39.097  19.671  25.416  0.00  0.00     0.028 H 
ATOM     38  H15 non d ame     -39.688  18.130  24.750  0.00  0.00     0.028 H 
ENDBRANCH  33  35
BRANCH  33  39
ATOM     39  C13 non d ame     -36.785  19.338  24.379  0.00  0.00    -0.071 C 
ATOM     40  H16 non d ame     -35.926  18.935  23.843  0.00  0.00     0.028 H 
ATOM     41  H17 non d ame     -37.461  19.822  23.672  0.00  0.00     0.028 H 
ATOM     42  H18 non d ame     -36.446  20.069  25.113  0.00  0.00     0.028 H 
ENDBRANCH  33  39
ENDBRANCH   7  33
ENDBRANCH   4   7
ENDBRANCH   1   3
BRANCH   1  43
ATOM     43  C15 non d ame     -35.090  13.175  26.745  0.00  0.00     0.240 C 
ATOM     44  O5  non d ame     -34.160  13.869  26.999  0.00  0.00    -0.271 OA
ATOM     45  N6  non d ame     -35.013  11.709  27.005  0.00  0.00    -0.355 N 
ATOM     46  H46 non d ame     -35.799  11.109  26.798  0.00  0.00     0.162 HD
BRANCH  45  47
ATOM     47  C20 non d ame     -33.775  11.129  27.569  0.00  0.00     0.013 C 
ATOM     48  H30 non d ame     -32.962  11.830  27.382  0.00  0.00     0.072 H 
BRANCH  47  49
ATOM     49  C21 non d ame     -33.487   9.809  26.891  0.00  0.00    -0.038 C 
ATOM     50  H31 non d ame     -33.158  10.062  25.882  0.00  0.00     0.036 H 
ATOM     51  H32 non d ame     -32.817   9.273  27.564  0.00  0.00     0.036 H 
BRANCH  49  52
ATOM     52  C22 non d ame     -34.745   8.928  26.734  0.00  0.00     0.018 C 
ATOM     53  H33 non d ame     -35.511   9.395  27.352  0.00  0.00     0.048 H 
ATOM     54  H34 non d ame     -34.899   8.824  25.660  0.00  0.00     0.048 H 
BRANCH  52  55
ATOM     55  C23 non d ame     -34.572   7.485  27.284  0.00  0.00     0.259 C 
ATOM     56  O7  non d ame     -34.339   6.583  26.546  0.00  0.00    -0.265 OA
BRANCH  55  57
ATOM     57  O8  non d ame     -34.709   7.251  28.680  0.00  0.00    -0.317 OA
BRANCH  57  58
ATOM     58  C29 non d ame     -35.352   6.014  29.003  0.00  0.00     0.052 C 
ATOM     59  H47 non d ame     -36.195   6.278  29.641  0.00  0.00     0.082 H 
ATOM     60  H48 non d ame     -35.524   5.513  28.051  0.00  0.00     0.082 H 
BRANCH  58  61
ATOM     61  C35 non d ame     -34.356   5.160  29.833  0.00  0.00    -0.034 A 
ATOM     62  C30 non d ame     -33.308   4.501  29.198  0.00  0.00    -0.075 A 
ATOM     63  C31 non d ame     -32.414   3.733  29.942  0.00  0.00    -0.082 A 
ATOM     64  H49 non d ame     -33.187   4.585  28.118  0.00  0.00     0.084 H 
ATOM     65  C32 non d ame     -32.572   3.623  31.327  0.00  0.00    -0.083 A 
ATOM     66  H50 non d ame     -31.591   3.219  29.442  0.00  0.00     0.083 H 
ATOM     67  C33 non d ame     -33.622   4.279  31.954  0.00  0.00    -0.082 A 
ATOM     68  H51 non d ame     -31.876   3.025  31.916  0.00  0.00     0.083 H 
ATOM     69  C34 non d ame     -34.517   5.049  31.215  0.00  0.00    -0.075 A 
ATOM     70  H52 non d ame     -33.744   4.190  33.035  0.00  0.00     0.083 H 
ATOM     71  H53 non d ame     -35.338   5.563  31.715  0.00  0.00     0.084 H 
ENDBRANCH  58  61
ENDBRANCH  57  58
ENDBRANCH  55  57
ENDBRANCH  52  55
ENDBRANCH  49  52
ENDBRANCH  47  49
BRANCH  47  72
ATOM     72  C24 non d ame     -33.947  10.905  29.070  0.00  0.00    -0.039 C 
ATOM     73  H35 non d ame     -34.998  11.114  29.275  0.00  0.00     0.036 H 
ATOM     74  H36 non d ame     -33.541   9.912  29.264  0.00  0.00     0.036 H 
BRANCH  72  75
ATOM     75  C25 non d ame     -33.082  11.945  29.928  0.00  0.00    -0.001 C 
ATOM     76  C26 non d ame     -31.760  12.413  29.071  0.00  0.00    -0.035 C 
ATOM     77  C27 non d ame     -30.658  12.251  29.843  0.00  0.00     0.085 C 
ATOM     78  H38 non d ame     -31.591  11.730  28.240  0.00  0.00     0.036 H 
ATOM     79  H39 non d ame     -31.789  13.489  28.894  0.00  0.00     0.036 H 
ATOM     80  N5  non d ame     -31.071  11.409  31.027  0.00  0.00    -0.049 N 
ATOM     81  H40 non d ame     -29.955  11.685  29.232  0.00  0.00     0.075 H 
ATOM     82  H41 non d ame     -30.397  13.249  30.192  0.00  0.00     0.075 H 
ATOM     83  C28 non d ame     -32.685  11.418  31.038  0.00  0.00     0.193 C 
ATOM     84  H42 non d ame     -30.756  10.469  30.833  0.00  0.00     0.280 HD
ATOM     85  H43 non d ame     -30.740  11.893  31.850  0.00  0.00     0.280 HD
ATOM     86  H44 non d ame     -33.230  12.034  31.755  0.00  0.00     0.129 H 
ATOM     87  H37 non d ame     -33.696  12.733  30.362  0.00  0.00     0.046 H 
BRANCH  83  88
ATOM     88  O6  non d ame     -33.185  10.092  31.215  0.00  0.00    -0.369 OA
ATOM     89  H45 non d ame     -32.626   9.620  31.838  0.00  0.00     0.212 HD
ENDBRANCH  83  88
ENDBRANCH  72  75
ENDBRANCH  47  72
ENDBRANCH  45  47
ENDBRANCH   1  43
BRANCH   1  90
ATOM     90  C16 non d ame     -36.715  13.135  24.827  0.00  0.00    -0.035 C 
ATOM     91  H21 non d ame     -36.870  13.953  24.124  0.00  0.00     0.037 H 
ATOM     92  H22 non d ame     -35.915  12.415  24.659  0.00  0.00     0.037 H 
BRANCH  90  93
ATOM     93  C17 non d ame     -38.047  12.318  24.851  0.00  0.00    -0.059 C 
ATOM     94  H23 non d ame     -37.812  11.314  25.205  0.00  0.00     0.038 H 
BRANCH  93  95
ATOM     95  C18 non d ame     -39.098  12.933  25.829  0.00  0.00    -0.073 C 
ATOM     96  H24 non d ame     -39.922  13.360  25.256  0.00  0.00     0.028 H 
ATOM     97  H25 non d ame     -39.481  12.154  26.488  0.00  0.00     0.028 H 
ATOM     98  H26 non d ame     -38.627  13.715  26.425  0.00  0.00     0.028 H 
ENDBRANCH  93  95
BRANCH  93  99
ATOM     99  C19 non d ame     -38.629  12.180  23.442  0.00  0.00    -0.073 C 
ATOM    100  H27 non d ame     -37.979  11.542  22.841  0.00  0.00     0.028 H 
ATOM    101  H28 non d ame     -39.622  11.733  23.500  0.00  0.00     0.028 H 
ATOM    102  H29 non d ame     -38.700  13.164  22.980  0.00  0.00     0.028 H 
ENDBRANCH  93  99
ENDBRANCH  90  93
ENDBRANCH   1  90
TORSDOF 26
ENDMDL
MODEL 9
REMARK VINA RESULT:      -6.3      2.766      4.053
REMARK  26 active torsions:
REMARK  status: ('A' for Active; 'I' for Inactive)
REMARK    1  A    between atoms: C2_2  and  C3_3 
REMARK    2  A    between atoms: C4_6  and  C5_7 
REMARK       I    between atoms: C5_7  and  N2_9 
REMARK    3  A    between atoms: N2_9  and  C6_10 
REMARK    4  A    between atoms: C6_10  and  C7_11 
REMARK    5  A    between atoms: C6_10  and  C8_13 
REMARK       I    between atoms: C7_11  and  N3_14 
REMARK    6  A    between atoms: N3_14  and  C9_15 
REMARK    7  A    between atoms: C9_15  and  C10_16 
REMARK    8  A    between atoms: C9_15  and  C11_18 
REMARK       I    between atoms: C10_16  and  N4_21 
REMARK    9  A    between atoms: C11_18  and  C12_19 
REMARK   10  A    between atoms: C11_18  and  C13_20 
REMARK   11  A    between atoms: N4_21  and  C14_22 
REMARK   12  A    between atoms: C14_22  and  C15_23 
REMARK   13  A    between atoms: C14_22  and  C16_25 
REMARK       I    between atoms: C15_23  and  N6_40 
REMARK   14  A    between atoms: C16_25  and  C17_26 
REMARK   15  A    between atoms: C17_26  and  C18_27 
REMARK   16  A    between atoms: C17_26  and  C19_28 
REMARK   17  A    between atoms: C20_29  and  C21_30 
REMARK   18  A    between atoms: C20_29  and  C24_33 
REMARK   19  A    between atoms: C20_29  and  N6_40 
REMARK   20  A    between atoms: C21_30  and  C22_31 
REMARK   21  A    between atoms: C22_31  and  C23_32 
REMARK   22  A    between atoms: C23_32  and  O8_43 
REMARK   23  A    between atoms: C24_33  and  C25_34 
REMARK   24  A    between atoms: C28_38  and  O6_39 
REMARK   25  A    between atoms: C29_42  and  O8_43 
REMARK   26  A    between atoms: C29_42  and  C35_49 
ROOT
ATOM      1  C14 non d ame     -32.913   9.518  27.363  0.00  0.00     0.089 C 
ATOM      2  H20 non d ame     -31.911   9.104  27.243  0.00  0.00     0.087 H 
ENDROOT
BRANCH   1   3
ATOM      3  N4  non d ame     -32.767  10.882  27.849  0.00  0.00    -0.346 N 
ATOM      4  C10 non d ame     -31.646  11.755  27.346  0.00  0.00     0.241 C 
ATOM      5  O4  non d ame     -30.871  11.337  26.550  0.00  0.00    -0.271 OA
ATOM      6  H19 non d ame     -33.435  11.218  28.528  0.00  0.00     0.163 HD
BRANCH   4   7
ATOM      7  C9  non d ame     -31.513  13.166  27.856  0.00  0.00     0.092 C 
ATOM      8  H11 non d ame     -30.511  13.308  28.260  0.00  0.00     0.088 H 
BRANCH   7   9
ATOM      9  N3  non d ame     -31.670  14.106  26.742  0.00  0.00    -0.346 N 
ATOM     10  C7  non d ame     -32.871  14.083  25.944  0.00  0.00     0.240 C 
ATOM     11  O3  non d ame     -33.721  13.315  26.184  0.00  0.00    -0.271 OA
ATOM     12  H10 non d ame     -30.944  14.773  26.522  0.00  0.00     0.163 HD
BRANCH  10  13
ATOM     13  C6  non d ame     -33.031  15.084  24.758  0.00  0.00     0.086 C 
ATOM     14  H6  non d ame     -33.867  14.834  24.105  0.00  0.00     0.086 H 
BRANCH  13  15
ATOM     15  N2  non d ame     -33.301  16.408  25.290  0.00  0.00    -0.343 N 
ATOM     16  C5  non d ame     -34.687  16.859  25.435  0.00  0.00     0.273 C 
ATOM     17  O2  non d ame     -35.578  16.150  25.116  0.00  0.00    -0.266 OA
ATOM     18  H5  non d ame     -32.534  17.009  25.557  0.00  0.00     0.163 HD
BRANCH  16  19
ATOM     19  C4  non d ame     -34.987  18.257  25.998  0.00  0.00     0.154 A 
ATOM     20  C1  non d ame     -36.258  18.913  26.051  0.00  0.00    -0.017 A 
ATOM     21  C2  non d ame     -35.995  20.164  26.653  0.00  0.00     0.077 A 
ATOM     22  H1  non d ame     -37.222  18.539  25.706  0.00  0.00     0.091 H 
ATOM     23  O1  non d ame     -34.722  20.210  26.913  0.00  0.00    -0.218 OA
ATOM     24  N1  non d ame     -34.112  19.109  26.539  0.00  0.00    -0.123 NA
BRANCH  21  25
ATOM     25  C3  non d ame     -37.016  21.255  26.946  0.00  0.00    -0.029 C 
ATOM     26  H2  non d ame     -36.502  22.206  27.088  0.00  0.00     0.036 H 
ATOM     27  H3  non d ame     -37.708  21.341  26.108  0.00  0.00     0.036 H 
ATOM     28  H4  non d ame     -37.569  21.003  27.850  0.00  0.00     0.036 H 
ENDBRANCH  21  25
ENDBRANCH  16  19
ENDBRANCH  13  15
BRANCH  13  29
ATOM     29  C8  non d ame     -31.765  15.104  23.940  0.00  0.00    -0.049 C 
ATOM     30  H7  non d ame     -31.404  16.128  23.853  0.00  0.00     0.030 H 
ATOM     31  H8  non d ame     -31.006  14.493  24.428  0.00  0.00     0.030 H 
ATOM     32  H9  non d ame     -31.968  14.705  22.945  0.00  0.00     0.030 H 
ENDBRANCH  13  29
ENDBRANCH  10  13
ENDBRANCH   7   9
BRANCH   7  33
ATOM     33  C11 non d ame     -32.618  13.438  28.920  0.00  0.00    -0.033 C 
ATOM     34  H12 non d ame     -33.554  13.039  28.531  0.00  0.00     0.042 H 
BRANCH  33  35
ATOM     35  C12 non d ame     -32.312  12.697  30.258  0.00  0.00    -0.071 C 
ATOM     36  H13 non d ame     -31.396  13.096  30.694  0.00  0.00     0.028 H 
ATOM     37  H14 non d ame     -33.138  12.843  30.953  0.00  0.00     0.028 H 
ATOM     38  H15 non d ame     -32.185  11.632  30.063  0.00  0.00     0.028 H 
ENDBRANCH  33  35
BRANCH  33  39
ATOM     39  C13 non d ame     -32.805  14.972  29.151  0.00  0.00    -0.071 C 
ATOM     40  H16 non d ame     -32.803  15.181  30.221  0.00  0.00     0.028 H 
ATOM     41  H17 non d ame     -31.989  15.514  28.672  0.00  0.00     0.028 H 
ATOM     42  H18 non d ame     -33.754  15.291  28.721  0.00  0.00     0.028 H 
ENDBRANCH  33  39
ENDBRANCH   7  33
ENDBRANCH   4   7
ENDBRANCH   1   3
BRANCH   1  43
ATOM     43  C15 non d ame     -33.698   9.552  26.020  0.00  0.00     0.240 C 
ATOM     44  O5  non d ame     -34.607  10.305  25.887  0.00  0.00    -0.271 OA
ATOM     45  N6  non d ame     -33.310   8.652  24.897  0.00  0.00    -0.355 N 
ATOM     46  H46 non d ame     -32.535   8.011  24.997  0.00  0.00     0.162 HD
BRANCH  45  47
ATOM     47  C20 non d ame     -34.066   8.698  23.627  0.00  0.00     0.013 C 
ATOM     48  H30 non d ame     -34.662   9.610  23.625  0.00  0.00     0.072 H 
BRANCH  47  49
ATOM     49  C21 non d ame     -34.969   7.488  23.539  0.00  0.00    -0.038 C 
ATOM     50  H31 non d ame     -35.704   7.611  24.336  0.00  0.00     0.036 H 
ATOM     51  H32 non d ame     -35.295   7.440  22.500  0.00  0.00     0.036 H 
BRANCH  49  52
ATOM     52  C22 non d ame     -34.228   6.165  23.827  0.00  0.00     0.018 C 
ATOM     53  H33 non d ame     -34.447   5.514  22.982  0.00  0.00     0.048 H 
ATOM     54  H34 non d ame     -33.198   6.446  24.048  0.00  0.00     0.048 H 
BRANCH  52  55
ATOM     55  C23 non d ame     -34.747   5.418  25.087  0.00  0.00     0.259 C 
ATOM     56  O7  non d ame     -35.311   4.377  24.982  0.00  0.00    -0.265 OA
BRANCH  55  57
ATOM     57  O8  non d ame     -34.554   6.000  26.371  0.00  0.00    -0.317 OA
BRANCH  57  58
ATOM     58  C29 non d ame     -34.239   5.055  27.398  0.00  0.00     0.052 C 
ATOM     59  H47 non d ame     -34.529   4.082  27.002  0.00  0.00     0.082 H 
ATOM     60  H48 non d ame     -33.201   5.247  27.667  0.00  0.00     0.082 H 
BRANCH  58  61
ATOM     61  C35 non d ame     -35.131   5.371  28.629  0.00  0.00    -0.034 A 
ATOM     62  C30 non d ame     -36.493   5.597  28.461  0.00  0.00    -0.075 A 
ATOM     63  C31 non d ame     -37.295   5.881  29.566  0.00  0.00    -0.082 A 
ATOM     64  H49 non d ame     -36.934   5.553  27.465  0.00  0.00     0.084 H 
ATOM     65  C32 non d ame     -36.728   5.940  30.843  0.00  0.00    -0.083 A 
ATOM     66  H50 non d ame     -38.363   6.057  29.432  0.00  0.00     0.083 H 
ATOM     67  C33 non d ame     -35.367   5.717  31.004  0.00  0.00    -0.082 A 
ATOM     68  H51 non d ame     -37.348   6.160  31.712  0.00  0.00     0.083 H 
ATOM     69  C34 non d ame     -34.563   5.431  29.903  0.00  0.00    -0.075 A 
ATOM     70  H52 non d ame     -34.928   5.766  32.001  0.00  0.00     0.083 H 
ATOM     71  H53 non d ame     -33.496   5.255  30.037  0.00  0.00     0.084 H 
ENDBRANCH  58  61
ENDBRANCH  57  58
ENDBRANCH  55  57
ENDBRANCH  52  55
ENDBRANCH  49  52
ENDBRANCH  47  49
BRANCH  47  72
ATOM     72  C24 non d ame     -33.095   8.697  22.448  0.00  0.00    -0.039 C 
ATOM     73  H35 non d ame     -33.297   7.771  21.907  0.00  0.00     0.036 H 
ATOM     74  H36 non d ame     -33.237   9.658  21.954  0.00  0.00     0.036 H 
BRANCH  72  75
ATOM     75  C25 non d ame     -31.570   8.636  22.936  0.00  0.00    -0.001 C 
ATOM     76  C26 non d ame     -30.953  10.156  23.034  0.00  0.00    -0.035 C 
ATOM     77  C27 non d ame     -29.784  10.198  22.350  0.00  0.00     0.085 C 
ATOM     78  H38 non d ame     -31.590  10.855  22.492  0.00  0.00     0.036 H 
ATOM     79  H39 non d ame     -30.655  10.374  24.060  0.00  0.00     0.036 H 
ATOM     80  N5  non d ame     -29.713   8.937  21.522  0.00  0.00    -0.049 N 
ATOM     81  H40 non d ame     -29.868  11.057  21.683  0.00  0.00     0.075 H 
ATOM     82  H41 non d ame     -29.002  10.171  23.107  0.00  0.00     0.075 H 
ATOM     83  C28 non d ame     -30.845   7.951  22.115  0.00  0.00     0.193 C 
ATOM     84  H42 non d ame     -29.973   9.197  20.582  0.00  0.00     0.280 HD
ATOM     85  H43 non d ame     -28.805   8.530  21.701  0.00  0.00     0.280 HD
ATOM     86  H44 non d ame     -30.568   7.110  22.751  0.00  0.00     0.129 H 
ATOM     87  H37 non d ame     -31.440   7.990  23.804  0.00  0.00     0.046 H 
BRANCH  83  88
ATOM     88  O6  non d ame     -31.616   7.390  21.052  0.00  0.00    -0.369 OA
ATOM     89  H45 non d ame     -32.022   8.097  20.543  0.00  0.00     0.212 HD
ENDBRANCH  83  88
ENDBRANCH  72  75
ENDBRANCH  47  72
ENDBRANCH  45  47
ENDBRANCH   1  43
BRANCH   1  90
ATOM     90  C16 non d ame     -33.687   8.705  28.388  0.00  0.00    -0.035 C 
ATOM     91  H21 non d ame     -34.360   8.076  27.807  0.00  0.00     0.037 H 
ATOM     92  H22 non d ame     -32.930   8.250  29.027  0.00  0.00     0.037 H 
BRANCH  90  93
ATOM     93  C17 non d ame     -34.591   9.572  29.321  0.00  0.00    -0.059 C 
ATOM     94  H23 non d ame     -34.354  10.619  29.131  0.00  0.00     0.038 H 
BRANCH  93  95
ATOM     95  C18 non d ame     -36.111   9.367  29.027  0.00  0.00    -0.073 C 
ATOM     96  H24 non d ame     -36.695   9.673  29.895  0.00  0.00     0.028 H 
ATOM     97  H25 non d ame     -36.399   9.970  28.166  0.00  0.00     0.028 H 
ATOM     98  H26 non d ame     -36.302   8.315  28.814  0.00  0.00     0.028 H 
ENDBRANCH  93  95
BRANCH  93  99
ATOM     99  C19 non d ame     -34.280   9.295  30.795  0.00  0.00    -0.073 C 
ATOM    100  H27 non d ame     -34.636   8.299  31.060  0.00  0.00     0.028 H 
ATOM    101  H28 non d ame     -33.203   9.350  30.956  0.00  0.00     0.028 H 
ATOM    102  H29 non d ame     -34.779  10.038  31.417  0.00  0.00     0.028 H 
ENDBRANCH  93  99
ENDBRANCH  90  93
ENDBRANCH   1  90
TORSDOF 26
ENDMDL
MODEL 10
REMARK VINA RESULT:      -6.3      2.363      9.564
REMARK  26 active torsions:
REMARK  status: ('A' for Active; 'I' for Inactive)
REMARK    1  A    between atoms: C2_2  and  C3_3 
REMARK    2  A    between atoms: C4_6  and  C5_7 
REMARK       I    between atoms: C5_7  and  N2_9 
REMARK    3  A    between atoms: N2_9  and  C6_10 
REMARK    4  A    between atoms: C6_10  and  C7_11 
REMARK    5  A    between atoms: C6_10  and  C8_13 
REMARK       I    between atoms: C7_11  and  N3_14 
REMARK    6  A    between atoms: N3_14  and  C9_15 
REMARK    7  A    between atoms: C9_15  and  C10_16 
REMARK    8  A    between atoms: C9_15  and  C11_18 
REMARK       I    between atoms: C10_16  and  N4_21 
REMARK    9  A    between atoms: C11_18  and  C12_19 
REMARK   10  A    between atoms: C11_18  and  C13_20 
REMARK   11  A    between atoms: N4_21  and  C14_22 
REMARK   12  A    between atoms: C14_22  and  C15_23 
REMARK   13  A    between atoms: C14_22  and  C16_25 
REMARK       I    between atoms: C15_23  and  N6_40 
REMARK   14  A    between atoms: C16_25  and  C17_26 
REMARK   15  A    between atoms: C17_26  and  C18_27 
REMARK   16  A    between atoms: C17_26  and  C19_28 
REMARK   17  A    between atoms: C20_29  and  C21_30 
REMARK   18  A    between atoms: C20_29  and  C24_33 
REMARK   19  A    between atoms: C20_29  and  N6_40 
REMARK   20  A    between atoms: C21_30  and  C22_31 
REMARK   21  A    between atoms: C22_31  and  C23_32 
REMARK   22  A    between atoms: C23_32  and  O8_43 
REMARK   23  A    between atoms: C24_33  and  C25_34 
REMARK   24  A    between atoms: C28_38  and  O6_39 
REMARK   25  A    between atoms: C29_42  and  O8_43 
REMARK   26  A    between atoms: C29_42  and  C35_49 
ROOT
ATOM      1  C14 non d ame     -32.747   8.498  25.444  0.00  0.00     0.089 C 
ATOM      2  H20 non d ame     -31.703   8.186  25.471  0.00  0.00     0.087 H 
ENDROOT
BRANCH   1   3
ATOM      3  N4  non d ame     -33.549   7.389  25.938  0.00  0.00    -0.346 N 
ATOM      4  C10 non d ame     -32.957   6.388  26.896  0.00  0.00     0.241 C 
ATOM      5  O4  non d ame     -31.831   6.493  27.256  0.00  0.00    -0.271 OA
ATOM      6  H19 non d ame     -34.505   7.316  25.618  0.00  0.00     0.163 HD
BRANCH   4   7
ATOM      7  C9  non d ame     -33.804   5.248  27.401  0.00  0.00     0.092 C 
ATOM      8  H11 non d ame     -33.274   4.736  28.204  0.00  0.00     0.088 H 
BRANCH   7   9
ATOM      9  N3  non d ame     -35.047   5.777  27.970  0.00  0.00    -0.346 N 
ATOM     10  C7  non d ame     -35.283   5.692  29.390  0.00  0.00     0.240 C 
ATOM     11  O3  non d ame     -34.483   5.200  30.089  0.00  0.00    -0.271 OA
ATOM     12  H10 non d ame     -35.746   6.203  27.379  0.00  0.00     0.163 HD
BRANCH  10  13
ATOM     13  C6  non d ame     -36.609   6.253  29.990  0.00  0.00     0.086 C 
ATOM     14  H6  non d ame     -36.504   6.560  31.031  0.00  0.00     0.086 H 
BRANCH  13  15
ATOM     15  N2  non d ame     -36.999   7.439  29.245  0.00  0.00    -0.343 N 
ATOM     16  C5  non d ame     -37.160   8.713  29.948  0.00  0.00     0.273 C 
ATOM     17  O2  non d ame     -36.976   8.774  31.114  0.00  0.00    -0.266 OA
ATOM     18  H5  non d ame     -37.157   7.377  28.249  0.00  0.00     0.163 HD
BRANCH  16  19
ATOM     19  C4  non d ame     -37.571   9.974  29.172  0.00  0.00     0.154 A 
ATOM     20  C1  non d ame     -36.984  10.479  27.969  0.00  0.00    -0.017 A 
ATOM     21  C2  non d ame     -37.719  11.648  27.670  0.00  0.00     0.077 A 
ATOM     22  H1  non d ame     -36.153  10.061  27.401  0.00  0.00     0.091 H 
ATOM     23  O1  non d ame     -38.620  11.788  28.596  0.00  0.00    -0.218 OA
ATOM     24  N1  non d ame     -38.554  10.823  29.485  0.00  0.00    -0.123 NA
BRANCH  21  25
ATOM     25  C3  non d ame     -37.497  12.572  26.480  0.00  0.00    -0.029 C 
ATOM     26  H2  non d ame     -37.044  12.010  25.663  0.00  0.00     0.036 H 
ATOM     27  H3  non d ame     -38.454  12.978  26.152  0.00  0.00     0.036 H 
ATOM     28  H4  non d ame     -36.836  13.388  26.770  0.00  0.00     0.036 H 
ENDBRANCH  21  25
ENDBRANCH  16  19
ENDBRANCH  13  15
BRANCH  13  29
ATOM     29  C8  non d ame     -37.689   5.206  29.898  0.00  0.00    -0.049 C 
ATOM     30  H7  non d ame     -38.390   5.474  29.108  0.00  0.00     0.030 H 
ATOM     31  H8  non d ame     -37.239   4.239  29.670  0.00  0.00     0.030 H 
ATOM     32  H9  non d ame     -38.219   5.145  30.849  0.00  0.00     0.030 H 
ENDBRANCH  13  29
ENDBRANCH  10  13
ENDBRANCH   7   9
BRANCH   7  33
ATOM     33  C11 non d ame     -34.143   4.293  26.219  0.00  0.00    -0.033 C 
ATOM     34  H12 non d ame     -33.589   4.638  25.347  0.00  0.00     0.042 H 
BRANCH  33  35
ATOM     35  C12 non d ame     -33.683   2.832  26.520  0.00  0.00    -0.071 C 
ATOM     36  H13 non d ame     -33.131   2.442  25.665  0.00  0.00     0.028 H 
ATOM     37  H14 non d ame     -33.040   2.827  27.400  0.00  0.00     0.028 H 
ATOM     38  H15 non d ame     -34.556   2.206  26.703  0.00  0.00     0.028 H 
ENDBRANCH  33  35
BRANCH  33  39
ATOM     39  C13 non d ame     -35.666   4.347  25.876  0.00  0.00    -0.071 C 
ATOM     40  H16 non d ame     -35.951   3.441  25.341  0.00  0.00     0.028 H 
ATOM     41  H17 non d ame     -36.245   4.423  26.797  0.00  0.00     0.028 H 
ATOM     42  H18 non d ame     -35.867   5.217  25.250  0.00  0.00     0.028 H 
ENDBRANCH  33  39
ENDBRANCH   7  33
ENDBRANCH   4   7
ENDBRANCH   1   3
BRANCH   1  43
ATOM     43  C15 non d ame     -33.010   9.740  26.345  0.00  0.00     0.240 C 
ATOM     44  O5  non d ame     -33.840   9.688  27.194  0.00  0.00    -0.271 OA
ATOM     45  N6  non d ame     -32.221  10.990  26.156  0.00  0.00    -0.355 N 
ATOM     46  H46 non d ame     -31.509  11.044  25.440  0.00  0.00     0.162 HD
BRANCH  45  47
ATOM     47  C20 non d ame     -32.483  12.160  27.021  0.00  0.00     0.013 C 
ATOM     48  H30 non d ame     -33.123  11.834  27.840  0.00  0.00     0.072 H 
BRANCH  47  49
ATOM     49  C21 non d ame     -33.180  13.232  26.214  0.00  0.00    -0.038 C 
ATOM     50  H31 non d ame     -32.446  13.578  25.487  0.00  0.00     0.036 H 
ATOM     51  H32 non d ame     -34.114  12.783  25.875  0.00  0.00     0.036 H 
BRANCH  49  52
ATOM     52  C22 non d ame     -33.570  14.462  27.063  0.00  0.00     0.018 C 
ATOM     53  H33 non d ame     -34.627  14.635  26.864  0.00  0.00     0.048 H 
ATOM     54  H34 non d ame     -33.234  14.240  28.076  0.00  0.00     0.048 H 
BRANCH  52  55
ATOM     55  C23 non d ame     -32.837  15.767  26.646  0.00  0.00     0.259 C 
ATOM     56  O7  non d ame     -33.211  16.823  27.045  0.00  0.00    -0.265 OA
BRANCH  55  57
ATOM     57  O8  non d ame     -31.720  15.689  25.767  0.00  0.00    -0.317 OA
BRANCH  57  58
ATOM     58  C29 non d ame     -31.925  16.332  24.506  0.00  0.00     0.052 C 
ATOM     59  H47 non d ame     -32.995  16.263  24.310  0.00  0.00     0.082 H 
ATOM     60  H48 non d ame     -31.447  17.307  24.589  0.00  0.00     0.082 H 
BRANCH  58  61
ATOM     61  C35 non d ame     -31.175  15.510  23.423  0.00  0.00    -0.034 A 
ATOM     62  C30 non d ame     -31.062  16.005  22.128  0.00  0.00    -0.075 A 
ATOM     63  C31 non d ame     -30.388  15.267  21.155  0.00  0.00    -0.082 A 
ATOM     64  H49 non d ame     -31.501  16.970  21.874  0.00  0.00     0.084 H 
ATOM     65  C32 non d ame     -29.828  14.029  21.482  0.00  0.00    -0.083 A 
ATOM     66  H50 non d ame     -30.299  15.659  20.141  0.00  0.00     0.083 H 
ATOM     67  C33 non d ame     -29.947  13.538  22.775  0.00  0.00    -0.082 A 
ATOM     68  H51 non d ame     -29.299  13.446  20.727  0.00  0.00     0.083 H 
ATOM     69  C34 non d ame     -30.618  14.273  23.750  0.00  0.00    -0.075 A 
ATOM     70  H52 non d ame     -29.511  12.570  23.026  0.00  0.00     0.083 H 
ATOM     71  H53 non d ame     -30.705  13.881  24.764  0.00  0.00     0.084 H 
ENDBRANCH  58  61
ENDBRANCH  57  58
ENDBRANCH  55  57
ENDBRANCH  52  55
ENDBRANCH  49  52
ENDBRANCH  47  49
BRANCH  47  72
ATOM     72  C24 non d ame     -31.164  12.706  27.563  0.00  0.00    -0.039 C 
ATOM     73  H35 non d ame     -30.392  12.309  26.902  0.00  0.00     0.036 H 
ATOM     74  H36 non d ame     -31.308  13.784  27.646  0.00  0.00     0.036 H 
BRANCH  72  75
ATOM     75  C25 non d ame     -30.854  12.156  29.035  0.00  0.00    -0.001 C 
ATOM     76  C26 non d ame     -32.168  11.362  29.623  0.00  0.00    -0.035 C 
ATOM     77  C27 non d ame     -32.463  11.854  30.851  0.00  0.00     0.085 C 
ATOM     78  H38 non d ame     -33.050  11.608  29.032  0.00  0.00     0.036 H 
ATOM     79  H39 non d ame     -31.918  10.319  29.820  0.00  0.00     0.036 H 
ATOM     80  N5  non d ame     -31.674  13.131  31.015  0.00  0.00    -0.049 N 
ATOM     81  H40 non d ame     -33.526  12.093  30.821  0.00  0.00     0.075 H 
ATOM     82  H41 non d ame     -32.091  11.113  31.558  0.00  0.00     0.075 H 
ATOM     83  C28 non d ame     -30.564  13.121  29.843  0.00  0.00     0.193 C 
ATOM     84  H42 non d ame     -32.317  13.889  30.842  0.00  0.00     0.280 HD
ATOM     85  H43 non d ame     -31.202  13.061  31.906  0.00  0.00     0.280 HD
ATOM     86  H44 non d ame     -29.524  12.884  30.068  0.00  0.00     0.129 H 
ATOM     87  H37 non d ame     -29.897  11.639  29.090  0.00  0.00     0.046 H 
BRANCH  83  88
ATOM     88  O6  non d ame     -30.533  14.387  29.182  0.00  0.00    -0.369 OA
ATOM     89  H45 non d ame     -30.189  15.053  29.782  0.00  0.00     0.212 HD
ENDBRANCH  83  88
ENDBRANCH  72  75
ENDBRANCH  47  72
ENDBRANCH  45  47
ENDBRANCH   1  43
BRANCH   1  90
ATOM     90  C16 non d ame     -33.155   8.810  24.014  0.00  0.00    -0.035 C 
ATOM     91  H21 non d ame     -33.888   8.049  23.751  0.00  0.00     0.037 H 
ATOM     92  H22 non d ame     -33.437   9.863  24.017  0.00  0.00     0.037 H 
BRANCH  90  93
ATOM     93  C17 non d ame     -31.988   8.669  22.985  0.00  0.00    -0.059 C 
ATOM     94  H23 non d ame     -32.428   8.629  21.989  0.00  0.00     0.038 H 
BRANCH  93  95
ATOM     95  C18 non d ame     -31.015   9.890  23.026  0.00  0.00    -0.073 C 
ATOM     96  H24 non d ame     -31.519  10.771  22.628  0.00  0.00     0.028 H 
ATOM     97  H25 non d ame     -30.714  10.080  24.056  0.00  0.00     0.028 H 
ATOM     98  H26 non d ame     -30.133   9.673  22.424  0.00  0.00     0.028 H 
ENDBRANCH  93  95
BRANCH  93  99
ATOM     99  C19 non d ame     -31.225   7.358  23.199  0.00  0.00    -0.073 C 
ATOM    100  H27 non d ame     -31.078   7.194  24.267  0.00  0.00     0.028 H 
ATOM    101  H28 non d ame     -31.799   6.531  22.781  0.00  0.00     0.028 H 
ATOM    102  H29 non d ame     -30.256   7.416  22.704  0.00  0.00     0.028 H 
ENDBRANCH  93  99
ENDBRANCH  90  93
ENDBRANCH   1  90
TORSDOF 26
ENDMDL
MODEL 11
REMARK VINA RESULT:      -6.3      4.172      7.555
REMARK  26 active torsions:
REMARK  status: ('A' for Active; 'I' for Inactive)
REMARK    1  A    between atoms: C2_2  and  C3_3 
REMARK    2  A    between atoms: C4_6  and  C5_7 
REMARK       I    between atoms: C5_7  and  N2_9 
REMARK    3  A    between atoms: N2_9  and  C6_10 
REMARK    4  A    between atoms: C6_10  and  C7_11 
REMARK    5  A    between atoms: C6_10  and  C8_13 
REMARK       I    between atoms: C7_11  and  N3_14 
REMARK    6  A    between atoms: N3_14  and  C9_15 
REMARK    7  A    between atoms: C9_15  and  C10_16 
REMARK    8  A    between atoms: C9_15  and  C11_18 
REMARK       I    between atoms: C10_16  and  N4_21 
REMARK    9  A    between atoms: C11_18  and  C12_19 
REMARK   10  A    between atoms: C11_18  and  C13_20 
REMARK   11  A    between atoms: N4_21  and  C14_22 
REMARK   12  A    between atoms: C14_22  and  C15_23 
REMARK   13  A    between atoms: C14_22  and  C16_25 
REMARK       I    between atoms: C15_23  and  N6_40 
REMARK   14  A    between atoms: C16_25  and  C17_26 
REMARK   15  A    between atoms: C17_26  and  C18_27 
REMARK   16  A    between atoms: C17_26  and  C19_28 
REMARK   17  A    between atoms: C20_29  and  C21_30 
REMARK   18  A    between atoms: C20_29  and  C24_33 
REMARK   19  A    between atoms: C20_29  and  N6_40 
REMARK   20  A    between atoms: C21_30  and  C22_31 
REMARK   21  A    between atoms: C22_31  and  C23_32 
REMARK   22  A    between atoms: C23_32  and  O8_43 
REMARK   23  A    between atoms: C24_33  and  C25_34 
REMARK   24  A    between atoms: C28_38  and  O6_39 
REMARK   25  A    between atoms: C29_42  and  O8_43 
REMARK   26  A    between atoms: C29_42  and  C35_49 
ROOT
ATOM      1  C14 non d ame     -31.990  14.835  27.169  0.00  0.00     0.089 C 
ATOM      2  H20 non d ame     -31.019  15.325  27.253  0.00  0.00     0.087 H 
ENDROOT
BRANCH   1   3
ATOM      3  N4  non d ame     -33.009  15.874  27.196  0.00  0.00    -0.346 N 
ATOM      4  C10 non d ame     -32.808  17.158  26.432  0.00  0.00     0.241 C 
ATOM      5  O4  non d ame     -31.817  17.335  25.804  0.00  0.00    -0.271 OA
ATOM      6  H19 non d ame     -33.844  15.705  27.738  0.00  0.00     0.163 HD
BRANCH   4   7
ATOM      7  C9  non d ame     -33.876  18.220  26.467  0.00  0.00     0.092 C 
ATOM      8  H11 non d ame     -33.675  18.956  25.689  0.00  0.00     0.088 H 
BRANCH   7   9
ATOM      9  N3  non d ame     -35.177  17.616  26.167  0.00  0.00    -0.346 N 
ATOM     10  C7  non d ame     -36.102  18.294  25.293  0.00  0.00     0.240 C 
ATOM     11  O3  non d ame     -35.816  19.327  24.823  0.00  0.00    -0.271 OA
ATOM     12  H10 non d ame     -35.439  16.726  26.566  0.00  0.00     0.163 HD
BRANCH  10  13
ATOM     13  C6  non d ame     -37.487  17.648  24.979  0.00  0.00     0.086 C 
ATOM     14  H6  non d ame     -37.922  18.014  24.050  0.00  0.00     0.086 H 
BRANCH  13  15
ATOM     15  N2  non d ame     -37.313  16.214  24.820  0.00  0.00    -0.343 N 
ATOM     16  C5  non d ame     -37.810  15.557  23.610  0.00  0.00     0.273 C 
ATOM     17  O2  non d ame     -38.351  16.190  22.770  0.00  0.00    -0.266 OA
ATOM     18  H5  non d ame     -36.853  15.680  25.544  0.00  0.00     0.163 HD
BRANCH  16  19
ATOM     19  C4  non d ame     -37.632  14.041  23.428  0.00  0.00     0.154 A 
ATOM     20  C1  non d ame     -37.446  13.063  24.456  0.00  0.00    -0.017 A 
ATOM     21  C2  non d ame     -37.335  11.833  23.771  0.00  0.00     0.077 A 
ATOM     22  H1  non d ame     -37.398  13.222  25.533  0.00  0.00     0.091 H 
ATOM     23  O1  non d ame     -37.447  12.085  22.500  0.00  0.00    -0.218 OA
ATOM     24  N1  non d ame     -37.622  13.367  22.275  0.00  0.00    -0.123 NA
BRANCH  21  25
ATOM     25  C3  non d ame     -37.125  10.464  24.404  0.00  0.00    -0.029 C 
ATOM     26  H2  non d ame     -37.620  10.432  25.373  0.00  0.00     0.036 H 
ATOM     27  H3  non d ame     -37.546   9.695  23.756  0.00  0.00     0.036 H 
ATOM     28  H4  non d ame     -36.058  10.283  24.535  0.00  0.00     0.036 H 
ENDBRANCH  21  25
ENDBRANCH  16  19
ENDBRANCH  13  15
BRANCH  13  29
ATOM     29  C8  non d ame     -38.444  17.930  26.109  0.00  0.00    -0.049 C 
ATOM     30  H7  non d ame     -38.961  18.871  25.922  0.00  0.00     0.030 H 
ATOM     31  H8  non d ame     -39.173  17.123  26.179  0.00  0.00     0.030 H 
ATOM     32  H9  non d ame     -37.889  18.002  27.046  0.00  0.00     0.030 H 
ENDBRANCH  13  29
ENDBRANCH  10  13
ENDBRANCH   7   9
BRANCH   7  33
ATOM     33  C11 non d ame     -33.921  18.863  27.885  0.00  0.00    -0.033 C 
ATOM     34  H12 non d ame     -33.643  18.092  28.604  0.00  0.00     0.042 H 
BRANCH  33  35
ATOM     35  C12 non d ame     -32.884  20.022  28.016  0.00  0.00    -0.071 C 
ATOM     36  H13 non d ame     -32.110  19.738  28.729  0.00  0.00     0.028 H 
ATOM     37  H14 non d ame     -32.430  20.215  27.044  0.00  0.00     0.028 H 
ATOM     38  H15 non d ame     -33.388  20.922  28.368  0.00  0.00     0.028 H 
ENDBRANCH  33  35
BRANCH  33  39
ATOM     39  C13 non d ame     -35.363  19.351  28.233  0.00  0.00    -0.071 C 
ATOM     40  H16 non d ame     -35.446  20.418  28.024  0.00  0.00     0.028 H 
ATOM     41  H17 non d ame     -36.088  18.804  27.628  0.00  0.00     0.028 H 
ATOM     42  H18 non d ame     -35.564  19.170  29.289  0.00  0.00     0.028 H 
ENDBRANCH  33  39
ENDBRANCH   7  33
ENDBRANCH   4   7
ENDBRANCH   1   3
BRANCH   1  43
ATOM     43  C15 non d ame     -32.130  14.038  25.840  0.00  0.00     0.240 C 
ATOM     44  O5  non d ame     -33.209  13.820  25.393  0.00  0.00    -0.271 OA
ATOM     45  N6  non d ame     -30.918  13.555  25.119  0.00  0.00    -0.355 N 
ATOM     46  H46 non d ame     -29.995  13.738  25.487  0.00  0.00     0.162 HD
BRANCH  45  47
ATOM     47  C20 non d ame     -31.069  12.799  23.857  0.00  0.00     0.013 C 
ATOM     48  H30 non d ame     -32.094  12.927  23.511  0.00  0.00     0.072 H 
BRANCH  47  49
ATOM     49  C21 non d ame     -30.787  11.336  24.113  0.00  0.00    -0.038 C 
ATOM     50  H31 non d ame     -29.792  11.300  24.557  0.00  0.00     0.036 H 
ATOM     51  H32 non d ame     -31.647  10.965  24.673  0.00  0.00     0.036 H 
BRANCH  49  52
ATOM     52  C22 non d ame     -30.718  10.502  22.815  0.00  0.00     0.018 C 
ATOM     53  H33 non d ame     -31.225  11.096  22.056  0.00  0.00     0.048 H 
ATOM     54  H34 non d ame     -29.668  10.238  22.691  0.00  0.00     0.048 H 
BRANCH  52  55
ATOM     55  C23 non d ame     -31.492   9.157  22.893  0.00  0.00     0.259 C 
ATOM     56  O7  non d ame     -32.150   8.895  23.848  0.00  0.00    -0.265 OA
BRANCH  55  57
ATOM     57  O8  non d ame     -31.395   8.233  21.815  0.00  0.00    -0.317 OA
BRANCH  57  58
ATOM     58  C29 non d ame     -32.659   7.811  21.294  0.00  0.00     0.052 C 
ATOM     59  H47 non d ame     -33.407   8.199  21.984  0.00  0.00     0.082 H 
ATOM     60  H48 non d ame     -32.666   8.123  20.250  0.00  0.00     0.082 H 
BRANCH  58  61
ATOM     61  C35 non d ame     -32.702   6.260  21.342  0.00  0.00    -0.034 A 
ATOM     62  C30 non d ame     -32.555   5.523  20.171  0.00  0.00    -0.075 A 
ATOM     63  C31 non d ame     -32.595   4.130  20.214  0.00  0.00    -0.082 A 
ATOM     64  H49 non d ame     -32.410   6.036  19.220  0.00  0.00     0.084 H 
ATOM     65  C32 non d ame     -32.784   3.474  21.433  0.00  0.00    -0.083 A 
ATOM     66  H50 non d ame     -32.477   3.555  19.294  0.00  0.00     0.083 H 
ATOM     67  C33 non d ame     -32.934   4.215  22.598  0.00  0.00    -0.082 A 
ATOM     68  H51 non d ame     -32.815   2.385  21.476  0.00  0.00     0.083 H 
ATOM     69  C34 non d ame     -32.893   5.607  22.560  0.00  0.00    -0.075 A 
ATOM     70  H52 non d ame     -33.084   3.700  23.548  0.00  0.00     0.083 H 
ATOM     71  H53 non d ame     -33.010   6.181  23.479  0.00  0.00     0.084 H 
ENDBRANCH  58  61
ENDBRANCH  57  58
ENDBRANCH  55  57
ENDBRANCH  52  55
ENDBRANCH  49  52
ENDBRANCH  47  49
BRANCH  47  72
ATOM     72  C24 non d ame     -30.087  13.333  22.816  0.00  0.00    -0.039 C 
ATOM     73  H35 non d ame     -29.100  13.229  23.268  0.00  0.00     0.036 H 
ATOM     74  H36 non d ame     -30.323  12.799  21.895  0.00  0.00     0.036 H 
BRANCH  72  75
ATOM     75  C25 non d ame     -30.316  14.892  22.530  0.00  0.00    -0.001 C 
ATOM     76  C26 non d ame     -31.052  15.093  21.075  0.00  0.00    -0.035 C 
ATOM     77  C27 non d ame     -30.345  15.990  20.347  0.00  0.00     0.085 C 
ATOM     78  H38 non d ame     -30.980  14.177  20.489  0.00  0.00     0.036 H 
ATOM     79  H39 non d ame     -32.019  15.579  21.208  0.00  0.00     0.036 H 
ATOM     80  N5  non d ame     -29.017  16.173  21.042  0.00  0.00    -0.049 N 
ATOM     81  H40 non d ame     -30.178  15.515  19.380  0.00  0.00     0.075 H 
ATOM     82  H41 non d ame     -30.907  16.921  20.406  0.00  0.00     0.075 H 
ATOM     83  C28 non d ame     -29.194  15.533  22.513  0.00  0.00     0.193 C 
ATOM     84  H42 non d ame     -28.347  15.618  20.529  0.00  0.00     0.280 HD
ATOM     85  H43 non d ame     -28.880  17.169  21.138  0.00  0.00     0.280 HD
ATOM     86  H44 non d ame     -29.321  16.176  23.385  0.00  0.00     0.129 H 
ATOM     87  H37 non d ame     -30.755  15.408  23.384  0.00  0.00     0.046 H 
BRANCH  83  88
ATOM     88  O6  non d ame     -28.085  14.687  22.820  0.00  0.00    -0.369 OA
ATOM     89  H45 non d ame     -28.369  13.769  22.808  0.00  0.00     0.212 HD
ENDBRANCH  83  88
ENDBRANCH  72  75
ENDBRANCH  47  72
ENDBRANCH  45  47
ENDBRANCH   1  43
BRANCH   1  90
ATOM     90  C16 non d ame     -32.200  13.901  28.350  0.00  0.00    -0.035 C 
ATOM     91  H21 non d ame     -33.033  14.325  28.908  0.00  0.00     0.037 H 
ATOM     92  H22 non d ame     -32.283  12.904  27.917  0.00  0.00     0.037 H 
BRANCH  90  93
ATOM     93  C17 non d ame     -30.988  13.856  29.334  0.00  0.00    -0.059 C 
ATOM     94  H23 non d ame     -30.110  13.550  28.764  0.00  0.00     0.038 H 
BRANCH  93  95
ATOM     95  C18 non d ame     -30.684  15.254  29.961  0.00  0.00    -0.073 C 
ATOM     96  H24 non d ame     -31.563  15.892  29.871  0.00  0.00     0.028 H 
ATOM     97  H25 non d ame     -30.431  15.132  31.014  0.00  0.00     0.028 H 
ATOM     98  H26 non d ame     -29.847  15.713  29.437  0.00  0.00     0.028 H 
ENDBRANCH  93  95
BRANCH  93  99
ATOM     99  C19 non d ame     -31.210  12.806  30.427  0.00  0.00    -0.073 C 
ATOM    100  H27 non d ame     -31.934  13.182  31.150  0.00  0.00     0.028 H 
ATOM    101  H28 non d ame     -31.590  11.888  29.978  0.00  0.00     0.028 H 
ATOM    102  H29 non d ame     -30.266  12.601  30.931  0.00  0.00     0.028 H 
ENDBRANCH  93  99
ENDBRANCH  90  93
ENDBRANCH   1  90
TORSDOF 26
ENDMDL
MODEL 12
REMARK VINA RESULT:      -6.3      3.310      6.466
REMARK  26 active torsions:
REMARK  status: ('A' for Active; 'I' for Inactive)
REMARK    1  A    between atoms: C2_2  and  C3_3 
REMARK    2  A    between atoms: C4_6  and  C5_7 
REMARK       I    between atoms: C5_7  and  N2_9 
REMARK    3  A    between atoms: N2_9  and  C6_10 
REMARK    4  A    between atoms: C6_10  and  C7_11 
REMARK    5  A    between atoms: C6_10  and  C8_13 
REMARK       I    between atoms: C7_11  and  N3_14 
REMARK    6  A    between atoms: N3_14  and  C9_15 
REMARK    7  A    between atoms: C9_15  and  C10_16 
REMARK    8  A    between atoms: C9_15  and  C11_18 
REMARK       I    between atoms: C10_16  and  N4_21 
REMARK    9  A    between atoms: C11_18  and  C12_19 
REMARK   10  A    between atoms: C11_18  and  C13_20 
REMARK   11  A    between atoms: N4_21  and  C14_22 
REMARK   12  A    between atoms: C14_22  and  C15_23 
REMARK   13  A    between atoms: C14_22  and  C16_25 
REMARK       I    between atoms: C15_23  and  N6_40 
REMARK   14  A    between atoms: C16_25  and  C17_26 
REMARK   15  A    between atoms: C17_26  and  C18_27 
REMARK   16  A    between atoms: C17_26  and  C19_28 
REMARK   17  A    between atoms: C20_29  and  C21_30 
REMARK   18  A    between atoms: C20_29  and  C24_33 
REMARK   19  A    between atoms: C20_29  and  N6_40 
REMARK   20  A    between atoms: C21_30  and  C22_31 
REMARK   21  A    between atoms: C22_31  and  C23_32 
REMARK   22  A    between atoms: C23_32  and  O8_43 
REMARK   23  A    between atoms: C24_33  and  C25_34 
REMARK   24  A    between atoms: C28_38  and  O6_39 
REMARK   25  A    between atoms: C29_42  and  O8_43 
REMARK   26  A    between atoms: C29_42  and  C35_49 
ROOT
ATOM      1  C14 non d ame     -37.149  14.002  24.945  0.00  0.00     0.089 C 
ATOM      2  H20 non d ame     -38.178  13.982  25.304  0.00  0.00     0.087 H 
ENDROOT
BRANCH   1   3
ATOM      3  N4  non d ame     -36.713  15.391  24.942  0.00  0.00    -0.346 N 
ATOM      4  C10 non d ame     -37.095  16.312  26.072  0.00  0.00     0.241 C 
ATOM      5  O4  non d ame     -37.757  15.914  26.974  0.00  0.00    -0.271 OA
ATOM      6  H19 non d ame     -36.153  15.710  24.165  0.00  0.00     0.163 HD
BRANCH   4   7
ATOM      7  C9  non d ame     -36.631  17.745  26.055  0.00  0.00     0.092 C 
ATOM      8  H11 non d ame     -36.827  18.197  27.027  0.00  0.00     0.088 H 
BRANCH   7   9
ATOM      9  N3  non d ame     -35.181  17.787  25.841  0.00  0.00    -0.346 N 
ATOM     10  C7  non d ame     -34.284  17.673  26.964  0.00  0.00     0.240 C 
ATOM     11  O3  non d ame     -34.711  17.548  28.047  0.00  0.00    -0.271 OA
ATOM     12  H10 non d ame     -34.799  17.896  24.913  0.00  0.00     0.163 HD
BRANCH  10  13
ATOM     13  C6  non d ame     -32.742  17.722  26.731  0.00  0.00     0.086 C 
ATOM     14  H6  non d ame     -32.189  17.099  27.434  0.00  0.00     0.086 H 
BRANCH  13  15
ATOM     15  N2  non d ame     -32.449  17.210  25.403  0.00  0.00    -0.343 N 
ATOM     16  C5  non d ame     -31.516  16.092  25.250  0.00  0.00     0.273 C 
ATOM     17  O2  non d ame     -31.003  15.613  26.201  0.00  0.00    -0.266 OA
ATOM     18  H5  non d ame     -32.890  17.627  24.595  0.00  0.00     0.163 HD
BRANCH  16  19
ATOM     19  C4  non d ame     -31.198  15.540  23.851  0.00  0.00     0.154 A 
ATOM     20  C1  non d ame     -31.201  16.262  22.616  0.00  0.00    -0.017 A 
ATOM     21  C2  non d ame     -30.846  15.307  21.637  0.00  0.00     0.077 A 
ATOM     22  H1  non d ame     -31.425  17.316  22.455  0.00  0.00     0.091 H 
ATOM     23  O1  non d ame     -30.662  14.175  22.248  0.00  0.00    -0.218 OA
ATOM     24  N1  non d ame     -30.862  14.285  23.542  0.00  0.00    -0.123 NA
BRANCH  21  25
ATOM     25  C3  non d ame     -30.703  15.559  20.142  0.00  0.00    -0.029 C 
ATOM     26  H2  non d ame     -30.146  14.741  19.687  0.00  0.00     0.036 H 
ATOM     27  H3  non d ame     -31.692  15.621  19.687  0.00  0.00     0.036 H 
ATOM     28  H4  non d ame     -30.170  16.496  19.980  0.00  0.00     0.036 H 
ENDBRANCH  21  25
ENDBRANCH  16  19
ENDBRANCH  13  15
BRANCH  13  29
ATOM     29  C8  non d ame     -32.257  19.144  26.855  0.00  0.00    -0.049 C 
ATOM     30  H7  non d ame     -31.595  19.228  27.716  0.00  0.00     0.030 H 
ATOM     31  H8  non d ame     -31.715  19.423  25.952  0.00  0.00     0.030 H 
ATOM     32  H9  non d ame     -33.111  19.809  26.987  0.00  0.00     0.030 H 
ENDBRANCH  13  29
ENDBRANCH  10  13
ENDBRANCH   7   9
BRANCH   7  33
ATOM     33  C11 non d ame     -37.345  18.507  24.900  0.00  0.00    -0.033 C 
ATOM     34  H12 non d ame     -37.386  17.838  24.041  0.00  0.00     0.042 H 
BRANCH  33  35
ATOM     35  C12 non d ame     -38.814  18.869  25.282  0.00  0.00    -0.071 C 
ATOM     36  H13 non d ame     -38.822  19.788  25.868  0.00  0.00     0.028 H 
ATOM     37  H14 non d ame     -39.402  19.011  24.376  0.00  0.00     0.028 H 
ATOM     38  H15 non d ame     -39.246  18.061  25.873  0.00  0.00     0.028 H 
ENDBRANCH  33  35
BRANCH  33  39
ATOM     39  C13 non d ame     -36.538  19.778  24.486  0.00  0.00    -0.071 C 
ATOM     40  H16 non d ame     -35.493  19.510  24.327  0.00  0.00     0.028 H 
ATOM     41  H17 non d ame     -36.952  20.189  23.564  0.00  0.00     0.028 H 
ATOM     42  H18 non d ame     -36.604  20.525  25.277  0.00  0.00     0.028 H 
ENDBRANCH  33  39
ENDBRANCH   7  33
ENDBRANCH   4   7
ENDBRANCH   1   3
BRANCH   1  43
ATOM     43  C15 non d ame     -36.193  13.185  25.861  0.00  0.00     0.240 C 
ATOM     44  O5  non d ame     -36.556  12.842  26.939  0.00  0.00    -0.271 OA
ATOM     45  N6  non d ame     -34.827  12.820  25.389  0.00  0.00    -0.355 N 
ATOM     46  H46 non d ame     -34.508  13.101  24.473  0.00  0.00     0.162 HD
BRANCH  45  47
ATOM     47  C20 non d ame     -33.930  12.042  26.271  0.00  0.00     0.013 C 
ATOM     48  H30 non d ame     -34.525  11.663  27.102  0.00  0.00     0.072 H 
BRANCH  47  49
ATOM     49  C21 non d ame     -32.832  12.943  26.789  0.00  0.00    -0.038 C 
ATOM     50  H31 non d ame     -32.069  12.275  27.190  0.00  0.00     0.036 H 
ATOM     51  H32 non d ame     -32.590  13.615  25.965  0.00  0.00     0.036 H 
BRANCH  49  52
ATOM     52  C22 non d ame     -33.293  13.837  27.961  0.00  0.00     0.018 C 
ATOM     53  H33 non d ame     -33.527  14.804  27.519  0.00  0.00     0.048 H 
ATOM     54  H34 non d ame     -34.068  13.270  28.477  0.00  0.00     0.048 H 
BRANCH  52  55
ATOM     55  C23 non d ame     -32.184  14.104  29.017  0.00  0.00     0.259 C 
ATOM     56  O7  non d ame     -32.089  15.171  29.533  0.00  0.00    -0.265 OA
BRANCH  55  57
ATOM     57  O8  non d ame     -31.273  13.064  29.350  0.00  0.00    -0.317 OA
BRANCH  57  58
ATOM     58  C29 non d ame     -31.500  12.481  30.637  0.00  0.00     0.052 C 
ATOM     59  H47 non d ame     -30.569  11.982  30.903  0.00  0.00     0.082 H 
ATOM     60  H48 non d ame     -31.887  13.286  31.262  0.00  0.00     0.082 H 
BRANCH  58  61
ATOM     61  C35 non d ame     -32.608  11.404  30.486  0.00  0.00    -0.034 A 
ATOM     62  C30 non d ame     -32.559  10.499  29.429  0.00  0.00    -0.075 A 
ATOM     63  C31 non d ame     -33.554   9.532  29.293  0.00  0.00    -0.082 A 
ATOM     64  H49 non d ame     -31.743  10.548  28.709  0.00  0.00     0.084 H 
ATOM     65  C32 non d ame     -34.602   9.473  30.216  0.00  0.00    -0.083 A 
ATOM     66  H50 non d ame     -33.513   8.823  28.465  0.00  0.00     0.083 H 
ATOM     67  C33 non d ame     -34.648  10.380  31.266  0.00  0.00    -0.082 A 
ATOM     68  H51 non d ame     -35.383   8.719  30.117  0.00  0.00     0.083 H 
ATOM     69  C34 non d ame     -33.655  11.347  31.407  0.00  0.00    -0.075 A 
ATOM     70  H52 non d ame     -35.468  10.333  31.984  0.00  0.00     0.083 H 
ATOM     71  H53 non d ame     -33.697  12.055  32.235  0.00  0.00     0.084 H 
ENDBRANCH  58  61
ENDBRANCH  57  58
ENDBRANCH  55  57
ENDBRANCH  52  55
ENDBRANCH  49  52
ENDBRANCH  47  49
BRANCH  47  72
ATOM     72  C24 non d ame     -33.315  10.883  25.489  0.00  0.00    -0.039 C 
ATOM     73  H35 non d ame     -32.745  11.349  24.683  0.00  0.00     0.036 H 
ATOM     74  H36 non d ame     -32.805  10.270  26.232  0.00  0.00     0.036 H 
BRANCH  72  75
ATOM     75  C25 non d ame     -34.436   9.966  24.807  0.00  0.00    -0.001 C 
ATOM     76  C26 non d ame     -35.210   9.080  25.956  0.00  0.00    -0.035 C 
ATOM     77  C27 non d ame     -35.206   7.779  25.581  0.00  0.00     0.085 C 
ATOM     78  H38 non d ame     -34.633   9.081  26.880  0.00  0.00     0.036 H 
ATOM     79  H39 non d ame     -36.270   9.336  25.975  0.00  0.00     0.036 H 
ATOM     80  N5  non d ame     -34.217   7.650  24.446  0.00  0.00    -0.049 N 
ATOM     81  H40 non d ame     -34.831   7.228  26.444  0.00  0.00     0.075 H 
ATOM     82  H41 non d ame     -36.208   7.581  25.203  0.00  0.00     0.075 H 
ATOM     83  C28 non d ame     -33.917   9.155  23.946  0.00  0.00     0.193 C 
ATOM     84  H42 non d ame     -33.372   7.269  24.846  0.00  0.00     0.280 HD
ATOM     85  H43 non d ame     -34.695   7.154  23.707  0.00  0.00     0.280 HD
ATOM     86  H44 non d ame     -34.363   9.531  23.025  0.00  0.00     0.129 H 
ATOM     87  H37 non d ame     -35.059  10.525  24.109  0.00  0.00     0.046 H 
BRANCH  83  88
ATOM     88  O6  non d ame     -32.510   9.354  23.799  0.00  0.00    -0.369 OA
ATOM     89  H45 non d ame     -32.318  10.296  23.792  0.00  0.00     0.212 HD
ENDBRANCH  83  88
ENDBRANCH  72  75
ENDBRANCH  47  72
ENDBRANCH  45  47
ENDBRANCH   1  43
BRANCH   1  90
ATOM     90  C16 non d ame     -37.088  13.458  23.527  0.00  0.00    -0.035 C 
ATOM     91  H21 non d ame     -37.240  14.321  22.880  0.00  0.00     0.037 H 
ATOM     92  H22 non d ame     -36.156  12.894  23.475  0.00  0.00     0.037 H 
BRANCH  90  93
ATOM     93  C17 non d ame     -38.233  12.450  23.193  0.00  0.00    -0.059 C 
ATOM     94  H23 non d ame     -39.049  12.635  23.892  0.00  0.00     0.038 H 
BRANCH  93  95
ATOM     95  C18 non d ame     -38.791  12.649  21.748  0.00  0.00    -0.073 C 
ATOM     96  H24 non d ame     -39.868  12.810  21.792  0.00  0.00     0.028 H 
ATOM     97  H25 non d ame     -38.314  13.516  21.290  0.00  0.00     0.028 H 
ATOM     98  H26 non d ame     -38.581  11.762  21.152  0.00  0.00     0.028 H 
ENDBRANCH  93  95
BRANCH  93  99
ATOM     99  C19 non d ame     -37.770  11.006  23.404  0.00  0.00    -0.073 C 
ATOM    100  H27 non d ame     -36.754  11.005  23.801  0.00  0.00     0.028 H 
ATOM    101  H28 non d ame     -38.436  10.510  24.110  0.00  0.00     0.028 H 
ATOM    102  H29 non d ame     -37.789  10.476  22.452  0.00  0.00     0.028 H 
ENDBRANCH  93  99
ENDBRANCH  90  93
ENDBRANCH   1  90
TORSDOF 26
ENDMDL
MODEL 13
REMARK VINA RESULT:      -6.2      2.158      5.878
REMARK  26 active torsions:
REMARK  status: ('A' for Active; 'I' for Inactive)
REMARK    1  A    between atoms: C2_2  and  C3_3 
REMARK    2  A    between atoms: C4_6  and  C5_7 
REMARK       I    between atoms: C5_7  and  N2_9 
REMARK    3  A    between atoms: N2_9  and  C6_10 
REMARK    4  A    between atoms: C6_10  and  C7_11 
REMARK    5  A    between atoms: C6_10  and  C8_13 
REMARK       I    between atoms: C7_11  and  N3_14 
REMARK    6  A    between atoms: N3_14  and  C9_15 
REMARK    7  A    between atoms: C9_15  and  C10_16 
REMARK    8  A    between atoms: C9_15  and  C11_18 
REMARK       I    between atoms: C10_16  and  N4_21 
REMARK    9  A    between atoms: C11_18  and  C12_19 
REMARK   10  A    between atoms: C11_18  and  C13_20 
REMARK   11  A    between atoms: N4_21  and  C14_22 
REMARK   12  A    between atoms: C14_22  and  C15_23 
REMARK   13  A    between atoms: C14_22  and  C16_25 
REMARK       I    between atoms: C15_23  and  N6_40 
REMARK   14  A    between atoms: C16_25  and  C17_26 
REMARK   15  A    between atoms: C17_26  and  C18_27 
REMARK   16  A    between atoms: C17_26  and  C19_28 
REMARK   17  A    between atoms: C20_29  and  C21_30 
REMARK   18  A    between atoms: C20_29  and  C24_33 
REMARK   19  A    between atoms: C20_29  and  N6_40 
REMARK   20  A    between atoms: C21_30  and  C22_31 
REMARK   21  A    between atoms: C22_31  and  C23_32 
REMARK   22  A    between atoms: C23_32  and  O8_43 
REMARK   23  A    between atoms: C24_33  and  C25_34 
REMARK   24  A    between atoms: C28_38  and  O6_39 
REMARK   25  A    between atoms: C29_42  and  O8_43 
REMARK   26  A    between atoms: C29_42  and  C35_49 
ROOT
ATOM      1  C14 non d ame     -32.579  10.612  29.428  0.00  0.00     0.089 C 
ATOM      2  H20 non d ame     -31.570  10.283  29.678  0.00  0.00     0.087 H 
ENDROOT
BRANCH   1   3
ATOM      3  N4  non d ame     -32.607  10.892  28.000  0.00  0.00    -0.346 N 
ATOM      4  C10 non d ame     -33.921  11.094  27.290  0.00  0.00     0.241 C 
ATOM      5  O4  non d ame     -34.944  11.025  27.887  0.00  0.00    -0.271 OA
ATOM      6  H19 non d ame     -31.726  10.945  27.509  0.00  0.00     0.163 HD
BRANCH   4   7
ATOM      7  C9  non d ame     -33.932  11.388  25.812  0.00  0.00     0.092 C 
ATOM      8  H11 non d ame     -34.964  11.441  25.465  0.00  0.00     0.088 H 
BRANCH   7   9
ATOM      9  N3  non d ame     -33.325  12.701  25.570  0.00  0.00    -0.346 N 
ATOM     10  C7  non d ame     -34.074  13.902  25.845  0.00  0.00     0.240 C 
ATOM     11  O3  non d ame     -35.166  13.831  26.261  0.00  0.00    -0.271 OA
ATOM     12  H10 non d ame     -32.385  12.777  25.210  0.00  0.00     0.163 HD
BRANCH  10  13
ATOM     13  C6  non d ame     -33.425  15.296  25.583  0.00  0.00     0.086 C 
ATOM     14  H6  non d ame     -32.658  15.549  26.315  0.00  0.00     0.086 H 
BRANCH  13  15
ATOM     15  N2  non d ame     -32.770  15.275  24.285  0.00  0.00    -0.343 N 
ATOM     16  C5  non d ame     -31.410  15.803  24.154  0.00  0.00     0.273 C 
ATOM     17  O2  non d ame     -30.853  16.246  25.098  0.00  0.00    -0.266 OA
ATOM     18  H5  non d ame     -33.255  14.898  23.484  0.00  0.00     0.163 HD
BRANCH  16  19
ATOM     19  C4  non d ame     -30.706  15.786  22.788  0.00  0.00     0.154 A 
ATOM     20  C1  non d ame     -31.294  16.042  21.509  0.00  0.00    -0.017 A 
ATOM     21  C2  non d ame     -30.232  15.902  20.588  0.00  0.00     0.077 A 
ATOM     22  H1  non d ame     -32.331  16.290  21.284  0.00  0.00     0.091 H 
ATOM     23  O1  non d ame     -29.165  15.604  21.268  0.00  0.00    -0.218 OA
ATOM     24  N1  non d ame     -29.416  15.530  22.555  0.00  0.00    -0.123 NA
BRANCH  21  25
ATOM     25  C3  non d ame     -30.322  16.073  19.077  0.00  0.00    -0.029 C 
ATOM     26  H2  non d ame     -30.330  17.134  18.831  0.00  0.00     0.036 H 
ATOM     27  H3  non d ame     -29.460  15.599  18.606  0.00  0.00     0.036 H 
ATOM     28  H4  non d ame     -31.236  15.608  18.711  0.00  0.00     0.036 H 
ENDBRANCH  21  25
ENDBRANCH  16  19
ENDBRANCH  13  15
BRANCH  13  29
ATOM     29  C8  non d ame     -34.490  16.362  25.607  0.00  0.00    -0.049 C 
ATOM     30  H7  non d ame     -34.070  17.288  25.999  0.00  0.00     0.030 H 
ATOM     31  H8  non d ame     -34.858  16.532  24.595  0.00  0.00     0.030 H 
ATOM     32  H9  non d ame     -35.314  16.039  26.244  0.00  0.00     0.030 H 
ENDBRANCH  13  29
ENDBRANCH  10  13
ENDBRANCH   7   9
BRANCH   7  33
ATOM     33  C11 non d ame     -33.115  10.296  25.061  0.00  0.00    -0.033 C 
ATOM     34  H12 non d ame     -32.800   9.557  25.797  0.00  0.00     0.042 H 
BRANCH  33  35
ATOM     35  C12 non d ame     -33.993   9.559  24.002  0.00  0.00    -0.071 C 
ATOM     36  H13 non d ame     -34.993   9.400  24.406  0.00  0.00     0.028 H 
ATOM     37  H14 non d ame     -34.058  10.164  23.098  0.00  0.00     0.028 H 
ATOM     38  H15 non d ame     -33.542   8.595  23.763  0.00  0.00     0.028 H 
ENDBRANCH  33  35
BRANCH  33  39
ATOM     39  C13 non d ame     -31.833  10.906  24.409  0.00  0.00    -0.071 C 
ATOM     40  H16 non d ame     -32.120  11.684  23.701  0.00  0.00     0.028 H 
ATOM     41  H17 non d ame     -31.199  11.336  25.185  0.00  0.00     0.028 H 
ATOM     42  H18 non d ame     -31.284  10.124  23.885  0.00  0.00     0.028 H 
ENDBRANCH  33  39
ENDBRANCH   7  33
ENDBRANCH   4   7
ENDBRANCH   1   3
BRANCH   1  43
ATOM     43  C15 non d ame     -33.645   9.522  29.740  0.00  0.00     0.240 C 
ATOM     44  O5  non d ame     -34.296   9.599  30.731  0.00  0.00    -0.271 OA
ATOM     45  N6  non d ame     -33.862   8.388  28.797  0.00  0.00    -0.355 N 
ATOM     46  H46 non d ame     -33.319   8.315  27.948  0.00  0.00     0.162 HD
BRANCH  45  47
ATOM     47  C20 non d ame     -34.880   7.361  29.107  0.00  0.00     0.013 C 
ATOM     48  H30 non d ame     -35.156   7.471  30.156  0.00  0.00     0.072 H 
BRANCH  47  49
ATOM     49  C21 non d ame     -34.295   5.988  28.866  0.00  0.00    -0.038 C 
ATOM     50  H31 non d ame     -33.771   5.726  29.786  0.00  0.00     0.036 H 
ATOM     51  H32 non d ame     -35.124   5.373  28.516  0.00  0.00     0.036 H 
BRANCH  49  52
ATOM     52  C22 non d ame     -33.237   5.977  27.741  0.00  0.00     0.018 C 
ATOM     53  H33 non d ame     -33.072   7.021  27.481  0.00  0.00     0.048 H 
ATOM     54  H34 non d ame     -32.414   5.370  28.118  0.00  0.00     0.048 H 
BRANCH  52  55
ATOM     55  C23 non d ame     -33.719   5.282  26.437  0.00  0.00     0.259 C 
ATOM     56  O7  non d ame     -34.856   4.960  26.310  0.00  0.00    -0.265 OA
BRANCH  55  57
ATOM     57  O8  non d ame     -32.781   5.021  25.399  0.00  0.00    -0.317 OA
BRANCH  57  58
ATOM     58  C29 non d ame     -31.815   6.059  25.213  0.00  0.00     0.052 C 
ATOM     59  H47 non d ame     -32.104   6.858  25.895  0.00  0.00     0.082 H 
ATOM     60  H48 non d ame     -30.842   5.580  25.316  0.00  0.00     0.082 H 
BRANCH  58  61
ATOM     61  C35 non d ame     -31.950   6.583  23.758  0.00  0.00    -0.034 A 
ATOM     62  C30 non d ame     -31.023   7.492  23.256  0.00  0.00    -0.075 A 
ATOM     63  C31 non d ame     -31.145   7.963  21.950  0.00  0.00    -0.082 A 
ATOM     64  H49 non d ame     -30.203   7.836  23.886  0.00  0.00     0.084 H 
ATOM     65  C32 non d ame     -32.198   7.523  21.144  0.00  0.00    -0.083 A 
ATOM     66  H50 non d ame     -30.415   8.674  21.559  0.00  0.00     0.083 H 
ATOM     67  C33 non d ame     -33.122   6.620  21.651  0.00  0.00    -0.082 A 
ATOM     68  H51 non d ame     -32.300   7.886  20.121  0.00  0.00     0.083 H 
ATOM     69  C34 non d ame     -33.004   6.145  22.955  0.00  0.00    -0.075 A 
ATOM     70  H52 non d ame     -33.945   6.280  21.020  0.00  0.00     0.083 H 
ATOM     71  H53 non d ame     -33.733   5.434  23.345  0.00  0.00     0.084 H 
ENDBRANCH  58  61
ENDBRANCH  57  58
ENDBRANCH  55  57
ENDBRANCH  52  55
ENDBRANCH  49  52
ENDBRANCH  47  49
BRANCH  47  72
ATOM     72  C24 non d ame     -36.103   7.560  28.214  0.00  0.00    -0.039 C 
ATOM     73  H35 non d ame     -36.039   8.590  27.862  0.00  0.00     0.036 H 
ATOM     74  H36 non d ame     -36.076   6.737  27.499  0.00  0.00     0.036 H 
BRANCH  72  75
ATOM     75  C25 non d ame     -37.468   7.426  29.040  0.00  0.00    -0.001 C 
ATOM     76  C26 non d ame     -37.139   7.227  30.638  0.00  0.00    -0.035 C 
ATOM     77  C27 non d ame     -37.816   6.145  31.093  0.00  0.00     0.085 C 
ATOM     78  H38 non d ame     -36.094   6.949  30.773  0.00  0.00     0.036 H 
ATOM     79  H39 non d ame     -37.561   8.052  31.213  0.00  0.00     0.036 H 
ATOM     80  N5  non d ame     -38.316   5.397  29.880  0.00  0.00    -0.049 N 
ATOM     81  H40 non d ame     -37.075   5.534  31.608  0.00  0.00     0.075 H 
ATOM     82  H41 non d ame     -38.668   6.545  31.641  0.00  0.00     0.075 H 
ATOM     83  C28 non d ame     -38.161   6.413  28.636  0.00  0.00     0.193 C 
ATOM     84  H42 non d ame     -37.685   4.621  29.743  0.00  0.00     0.280 HD
ATOM     85  H43 non d ame     -39.300   5.227  30.037  0.00  0.00     0.280 HD
ATOM     86  H44 non d ame     -39.033   6.922  28.225  0.00  0.00     0.129 H 
ATOM     87  H37 non d ame     -38.189   8.199  28.774  0.00  0.00     0.046 H 
BRANCH  83  88
ATOM     88  O6  non d ame     -37.548   5.748  27.530  0.00  0.00    -0.369 OA
ATOM     89  H45 non d ame     -36.593   5.826  27.598  0.00  0.00     0.212 HD
ENDBRANCH  83  88
ENDBRANCH  72  75
ENDBRANCH  47  72
ENDBRANCH  45  47
ENDBRANCH   1  43
BRANCH   1  90
ATOM     90  C16 non d ame     -32.910  11.884  30.191  0.00  0.00    -0.035 C 
ATOM     91  H21 non d ame     -33.441  12.516  29.481  0.00  0.00     0.037 H 
ATOM     92  H22 non d ame     -33.406  11.552  31.104  0.00  0.00     0.037 H 
BRANCH  90  93
ATOM     93  C17 non d ame     -31.650  12.690  30.642  0.00  0.00    -0.059 C 
ATOM     94  H23 non d ame     -31.866  13.123  31.618  0.00  0.00     0.038 H 
BRANCH  93  95
ATOM     95  C18 non d ame     -30.391  11.778  30.795  0.00  0.00    -0.073 C 
ATOM     96  H24 non d ame     -30.698  10.783  31.118  0.00  0.00     0.028 H 
ATOM     97  H25 non d ame     -29.877  11.704  29.836  0.00  0.00     0.028 H 
ATOM     98  H26 non d ame     -29.718  12.209  31.536  0.00  0.00     0.028 H 
ENDBRANCH  93  95
BRANCH  93  99
ATOM     99  C19 non d ame     -31.369  13.848  29.681  0.00  0.00    -0.073 C 
ATOM    100  H27 non d ame     -30.801  14.621  30.200  0.00  0.00     0.028 H 
ATOM    101  H28 non d ame     -30.792  13.485  28.830  0.00  0.00     0.028 H 
ATOM    102  H29 non d ame     -32.312  14.265  29.328  0.00  0.00     0.028 H 
ENDBRANCH  93  99
ENDBRANCH  90  93
ENDBRANCH   1  90
TORSDOF 26
ENDMDL
MODEL 14
REMARK VINA RESULT:      -6.2      3.342      7.317
REMARK  26 active torsions:
REMARK  status: ('A' for Active; 'I' for Inactive)
REMARK    1  A    between atoms: C2_2  and  C3_3 
REMARK    2  A    between atoms: C4_6  and  C5_7 
REMARK       I    between atoms: C5_7  and  N2_9 
REMARK    3  A    between atoms: N2_9  and  C6_10 
REMARK    4  A    between atoms: C6_10  and  C7_11 
REMARK    5  A    between atoms: C6_10  and  C8_13 
REMARK       I    between atoms: C7_11  and  N3_14 
REMARK    6  A    between atoms: N3_14  and  C9_15 
REMARK    7  A    between atoms: C9_15  and  C10_16 
REMARK    8  A    between atoms: C9_15  and  C11_18 
REMARK       I    between atoms: C10_16  and  N4_21 
REMARK    9  A    between atoms: C11_18  and  C12_19 
REMARK   10  A    between atoms: C11_18  and  C13_20 
REMARK   11  A    between atoms: N4_21  and  C14_22 
REMARK   12  A    between atoms: C14_22  and  C15_23 
REMARK   13  A    between atoms: C14_22  and  C16_25 
REMARK       I    between atoms: C15_23  and  N6_40 
REMARK   14  A    between atoms: C16_25  and  C17_26 
REMARK   15  A    between atoms: C17_26  and  C18_27 
REMARK   16  A    between atoms: C17_26  and  C19_28 
REMARK   17  A    between atoms: C20_29  and  C21_30 
REMARK   18  A    between atoms: C20_29  and  C24_33 
REMARK   19  A    between atoms: C20_29  and  N6_40 
REMARK   20  A    between atoms: C21_30  and  C22_31 
REMARK   21  A    between atoms: C22_31  and  C23_32 
REMARK   22  A    between atoms: C23_32  and  O8_43 
REMARK   23  A    between atoms: C24_33  and  C25_34 
REMARK   24  A    between atoms: C28_38  and  O6_39 
REMARK   25  A    between atoms: C29_42  and  O8_43 
REMARK   26  A    between atoms: C29_42  and  C35_49 
ROOT
ATOM      1  C14 non d ame     -32.189  15.084  27.319  0.00  0.00     0.089 C 
ATOM      2  H20 non d ame     -31.212  15.556  27.432  0.00  0.00     0.087 H 
ENDROOT
BRANCH   1   3
ATOM      3  N4  non d ame     -33.190  16.139  27.323  0.00  0.00    -0.346 N 
ATOM      4  C10 non d ame     -32.927  17.441  26.610  0.00  0.00     0.241 C 
ATOM      5  O4  non d ame     -31.901  17.618  26.041  0.00  0.00    -0.271 OA
ATOM      6  H19 non d ame     -34.055  15.971  27.816  0.00  0.00     0.163 HD
BRANCH   4   7
ATOM      7  C9  non d ame     -33.977  18.522  26.621  0.00  0.00     0.092 C 
ATOM      8  H11 non d ame     -33.754  19.245  25.838  0.00  0.00     0.088 H 
BRANCH   7   9
ATOM      9  N3  non d ame     -35.285  17.936  26.312  0.00  0.00    -0.346 N 
ATOM     10  C7  non d ame     -36.140  18.560  25.332  0.00  0.00     0.240 C 
ATOM     11  O3  non d ame     -35.792  19.534  24.784  0.00  0.00    -0.271 OA
ATOM     12  H10 non d ame     -35.599  17.097  26.778  0.00  0.00     0.163 HD
BRANCH  10  13
ATOM     13  C6  non d ame     -37.532  17.934  25.009  0.00  0.00     0.086 C 
ATOM     14  H6  non d ame     -37.667  17.730  23.947  0.00  0.00     0.086 H 
BRANCH  13  15
ATOM     15  N2  non d ame     -37.647  16.658  25.695  0.00  0.00    -0.343 N 
ATOM     16  C5  non d ame     -37.502  15.415  24.936  0.00  0.00     0.273 C 
ATOM     17  O2  non d ame     -37.297  15.451  23.772  0.00  0.00    -0.266 OA
ATOM     18  H5  non d ame     -37.825  16.636  26.689  0.00  0.00     0.163 HD
BRANCH  16  19
ATOM     19  C4  non d ame     -37.620  14.059  25.649  0.00  0.00     0.154 A 
ATOM     20  C1  non d ame     -38.175  12.850  25.122  0.00  0.00    -0.017 A 
ATOM     21  C2  non d ame     -38.046  11.906  26.165  0.00  0.00     0.077 A 
ATOM     22  H1  non d ame     -38.605  12.683  24.134  0.00  0.00     0.091 H 
ATOM     23  O1  non d ame     -37.481  12.511  27.168  0.00  0.00    -0.218 OA
ATOM     24  N1  non d ame     -37.223  13.768  26.890  0.00  0.00    -0.123 NA
BRANCH  21  25
ATOM     25  C3  non d ame     -38.486  10.449  26.122  0.00  0.00    -0.029 C 
ATOM     26  H2  non d ame     -39.562  10.389  26.280  0.00  0.00     0.036 H 
ATOM     27  H3  non d ame     -38.239  10.023  25.149  0.00  0.00     0.036 H 
ATOM     28  H4  non d ame     -37.972   9.890  26.903  0.00  0.00     0.036 H 
ENDBRANCH  21  25
ENDBRANCH  16  19
ENDBRANCH  13  15
BRANCH  13  29
ATOM     29  C8  non d ame     -38.624  18.867  25.467  0.00  0.00    -0.049 C 
ATOM     30  H7  non d ame     -38.929  18.602  26.479  0.00  0.00     0.030 H 
ATOM     31  H8  non d ame     -38.254  19.892  25.458  0.00  0.00     0.030 H 
ATOM     32  H9  non d ame     -39.480  18.783  24.796  0.00  0.00     0.030 H 
ENDBRANCH  13  29
ENDBRANCH  10  13
ENDBRANCH   7   9
BRANCH   7  33
ATOM     33  C11 non d ame     -34.028  19.181  28.031  0.00  0.00    -0.033 C 
ATOM     34  H12 non d ame     -34.065  18.379  28.768  0.00  0.00     0.042 H 
BRANCH  33  35
ATOM     35  C12 non d ame     -32.740  20.017  28.313  0.00  0.00    -0.071 C 
ATOM     36  H13 non d ame     -32.973  20.817  29.016  0.00  0.00     0.028 H 
ATOM     37  H14 non d ame     -31.973  19.371  28.739  0.00  0.00     0.028 H 
ATOM     38  H15 non d ame     -32.376  20.449  27.381  0.00  0.00     0.028 H 
ENDBRANCH  33  35
BRANCH  33  39
ATOM     39  C13 non d ame     -35.315  20.049  28.196  0.00  0.00    -0.071 C 
ATOM     40  H16 non d ame     -35.815  20.146  27.232  0.00  0.00     0.028 H 
ATOM     41  H17 non d ame     -35.988  19.572  28.910  0.00  0.00     0.028 H 
ATOM     42  H18 non d ame     -35.042  21.039  28.564  0.00  0.00     0.028 H 
ENDBRANCH  33  39
ENDBRANCH   7  33
ENDBRANCH   4   7
ENDBRANCH   1   3
BRANCH   1  43
ATOM     43  C15 non d ame     -32.307  14.294  25.983  0.00  0.00     0.240 C 
ATOM     44  O5  non d ame     -33.379  14.069  25.523  0.00  0.00    -0.271 OA
ATOM     45  N6  non d ame     -31.082  13.829  25.272  0.00  0.00    -0.355 N 
ATOM     46  H46 non d ame     -30.165  14.019  25.651  0.00  0.00     0.162 HD
BRANCH  45  47
ATOM     47  C20 non d ame     -31.211  13.081  24.003  0.00  0.00     0.013 C 
ATOM     48  H30 non d ame     -32.190  13.308  23.579  0.00  0.00     0.072 H 
BRANCH  47  49
ATOM     49  C21 non d ame     -31.099  11.599  24.281  0.00  0.00    -0.038 C 
ATOM     50  H31 non d ame     -30.507  11.516  25.193  0.00  0.00     0.036 H 
ATOM     51  H32 non d ame     -32.120  11.217  24.257  0.00  0.00     0.036 H 
BRANCH  49  52
ATOM     52  C22 non d ame     -30.322  10.840  23.184  0.00  0.00     0.018 C 
ATOM     53  H33 non d ame     -30.481  11.405  22.266  0.00  0.00     0.048 H 
ATOM     54  H34 non d ame     -29.313  10.708  23.575  0.00  0.00     0.048 H 
BRANCH  52  55
ATOM     55  C23 non d ame     -30.865   9.411  22.907  0.00  0.00     0.259 C 
ATOM     56  O7  non d ame     -30.115   8.503  22.741  0.00  0.00    -0.265 OA
BRANCH  55  57
ATOM     57  O8  non d ame     -32.270   9.200  22.841  0.00  0.00    -0.317 OA
BRANCH  57  58
ATOM     58  C29 non d ame     -32.682   7.892  23.250  0.00  0.00     0.052 C 
ATOM     59  H47 non d ame     -33.402   7.562  22.501  0.00  0.00     0.082 H 
ATOM     60  H48 non d ame     -31.764   7.329  23.410  0.00  0.00     0.082 H 
BRANCH  58  61
ATOM     61  C35 non d ame     -33.417   8.026  24.611  0.00  0.00    -0.034 A 
ATOM     62  C30 non d ame     -33.947   9.253  24.998  0.00  0.00    -0.075 A 
ATOM     63  C31 non d ame     -34.606   9.374  26.221  0.00  0.00    -0.082 A 
ATOM     64  H49 non d ame     -33.846  10.120  24.345  0.00  0.00     0.084 H 
ATOM     65  C32 non d ame     -34.733   8.263  27.058  0.00  0.00    -0.083 A 
ATOM     66  H50 non d ame     -35.023  10.337  26.520  0.00  0.00     0.083 H 
ATOM     67  C33 non d ame     -34.199   7.042  26.669  0.00  0.00    -0.082 A 
ATOM     68  H51 non d ame     -35.248   8.349  28.015  0.00  0.00     0.083 H 
ATOM     69  C34 non d ame     -33.541   6.916  25.448  0.00  0.00    -0.075 A 
ATOM     70  H52 non d ame     -34.298   6.177  27.326  0.00  0.00     0.083 H 
ATOM     71  H53 non d ame     -33.126   5.953  25.148  0.00  0.00     0.084 H 
ENDBRANCH  58  61
ENDBRANCH  57  58
ENDBRANCH  55  57
ENDBRANCH  52  55
ENDBRANCH  49  52
ENDBRANCH  47  49
BRANCH  47  72
ATOM     72  C24 non d ame     -30.105  13.505  23.039  0.00  0.00    -0.039 C 
ATOM     73  H35 non d ame     -29.172  13.337  23.577  0.00  0.00     0.036 H 
ATOM     74  H36 non d ame     -30.304  12.965  22.113  0.00  0.00     0.036 H 
BRANCH  72  75
ATOM     75  C25 non d ame     -30.181  15.069  22.700  0.00  0.00    -0.001 C 
ATOM     76  C26 non d ame     -31.259  15.327  21.486  0.00  0.00    -0.035 C 
ATOM     77  C27 non d ame     -30.664  16.072  20.524  0.00  0.00     0.085 C 
ATOM     78  H38 non d ame     -31.484  14.389  20.979  0.00  0.00     0.036 H 
ATOM     79  H39 non d ame     -32.071  15.965  21.836  0.00  0.00     0.036 H 
ATOM     80  N5  non d ame     -29.182  16.068  20.817  0.00  0.00    -0.049 N 
ATOM     81  H40 non d ame     -30.843  15.538  19.590  0.00  0.00     0.075 H 
ATOM     82  H41 non d ame     -31.050  17.081  20.657  0.00  0.00     0.075 H 
ATOM     83  C28 non d ame     -29.030  15.522  22.329  0.00  0.00     0.193 C 
ATOM     84  H42 non d ame     -28.768  15.395  20.189  0.00  0.00     0.280 HD
ATOM     85  H43 non d ame     -28.885  17.033  20.792  0.00  0.00     0.280 HD
ATOM     86  H44 non d ame     -28.816  16.211  23.147  0.00  0.00     0.129 H 
ATOM     87  H37 non d ame     -30.287  15.680  23.596  0.00  0.00     0.046 H 
BRANCH  83  88
ATOM     88  O6  non d ame     -28.011  14.524  22.392  0.00  0.00    -0.369 OA
ATOM     89  H45 non d ame     -28.098  13.929  21.643  0.00  0.00     0.212 HD
ENDBRANCH  83  88
ENDBRANCH  72  75
ENDBRANCH  47  72
ENDBRANCH  45  47
ENDBRANCH   1  43
BRANCH   1  90
ATOM     90  C16 non d ame     -32.447  14.148  28.489  0.00  0.00    -0.035 C 
ATOM     91  H21 non d ame     -32.196  14.723  29.379  0.00  0.00     0.037 H 
ATOM     92  H22 non d ame     -33.463  13.780  28.345  0.00  0.00     0.037 H 
BRANCH  90  93
ATOM     93  C17 non d ame     -31.520  12.891  28.502  0.00  0.00    -0.059 C 
ATOM     94  H23 non d ame     -30.750  13.041  27.744  0.00  0.00     0.038 H 
BRANCH  93  95
ATOM     95  C18 non d ame     -30.803  12.701  29.876  0.00  0.00    -0.073 C 
ATOM     96  H24 non d ame     -30.265  13.612  30.136  0.00  0.00     0.028 H 
ATOM     97  H25 non d ame     -31.545  12.487  30.646  0.00  0.00     0.028 H 
ATOM     98  H26 non d ame     -30.100  11.870  29.808  0.00  0.00     0.028 H 
ENDBRANCH  93  95
BRANCH  93  99
ATOM     99  C19 non d ame     -32.300  11.632  28.116  0.00  0.00    -0.073 C 
ATOM    100  H27 non d ame     -31.693  10.750  28.326  0.00  0.00     0.028 H 
ATOM    101  H28 non d ame     -33.223  11.583  28.695  0.00  0.00     0.028 H 
ATOM    102  H29 non d ame     -32.539  11.664  27.053  0.00  0.00     0.028 H 
ENDBRANCH  93  99
ENDBRANCH  90  93
ENDBRANCH   1  90
TORSDOF 26
ENDMDL
MODEL 15
REMARK VINA RESULT:      -6.1      3.051      7.089
REMARK  26 active torsions:
REMARK  status: ('A' for Active; 'I' for Inactive)
REMARK    1  A    between atoms: C2_2  and  C3_3 
REMARK    2  A    between atoms: C4_6  and  C5_7 
REMARK       I    between atoms: C5_7  and  N2_9 
REMARK    3  A    between atoms: N2_9  and  C6_10 
REMARK    4  A    between atoms: C6_10  and  C7_11 
REMARK    5  A    between atoms: C6_10  and  C8_13 
REMARK       I    between atoms: C7_11  and  N3_14 
REMARK    6  A    between atoms: N3_14  and  C9_15 
REMARK    7  A    between atoms: C9_15  and  C10_16 
REMARK    8  A    between atoms: C9_15  and  C11_18 
REMARK       I    between atoms: C10_16  and  N4_21 
REMARK    9  A    between atoms: C11_18  and  C12_19 
REMARK   10  A    between atoms: C11_18  and  C13_20 
REMARK   11  A    between atoms: N4_21  and  C14_22 
REMARK   12  A    between atoms: C14_22  and  C15_23 
REMARK   13  A    between atoms: C14_22  and  C16_25 
REMARK       I    between atoms: C15_23  and  N6_40 
REMARK   14  A    between atoms: C16_25  and  C17_26 
REMARK   15  A    between atoms: C17_26  and  C18_27 
REMARK   16  A    between atoms: C17_26  and  C19_28 
REMARK   17  A    between atoms: C20_29  and  C21_30 
REMARK   18  A    between atoms: C20_29  and  C24_33 
REMARK   19  A    between atoms: C20_29  and  N6_40 
REMARK   20  A    between atoms: C21_30  and  C22_31 
REMARK   21  A    between atoms: C22_31  and  C23_32 
REMARK   22  A    between atoms: C23_32  and  O8_43 
REMARK   23  A    between atoms: C24_33  and  C25_34 
REMARK   24  A    between atoms: C28_38  and  O6_39 
REMARK   25  A    between atoms: C29_42  and  O8_43 
REMARK   26  A    between atoms: C29_42  and  C35_49 
ROOT
ATOM      1  C14 non d ame     -31.681  12.350  26.878  0.00  0.00     0.089 C 
ATOM      2  H20 non d ame     -30.955  13.104  26.570  0.00  0.00     0.087 H 
ENDROOT
BRANCH   1   3
ATOM      3  N4  non d ame     -33.005  12.945  26.766  0.00  0.00    -0.346 N 
ATOM      4  C10 non d ame     -33.200  14.231  26.005  0.00  0.00     0.241 C 
ATOM      5  O4  non d ame     -32.277  14.773  25.492  0.00  0.00    -0.271 OA
ATOM      6  H19 non d ame     -33.777  12.471  27.212  0.00  0.00     0.163 HD
BRANCH   4   7
ATOM      7  C9  non d ame     -34.578  14.830  25.896  0.00  0.00     0.092 C 
ATOM      8  H11 non d ame     -34.837  14.945  24.843  0.00  0.00     0.088 H 
BRANCH   7   9
ATOM      9  N3  non d ame     -35.558  13.914  26.486  0.00  0.00    -0.346 N 
ATOM     10  C7  non d ame     -36.592  13.337  25.663  0.00  0.00     0.240 C 
ATOM     11  O3  non d ame     -36.650  13.598  24.524  0.00  0.00    -0.271 OA
ATOM     12  H10 non d ame     -35.521  13.680  27.468  0.00  0.00     0.163 HD
BRANCH  10  13
ATOM     13  C6  non d ame     -37.634  12.364  26.298  0.00  0.00     0.086 C 
ATOM     14  H6  non d ame     -37.893  11.535  25.640  0.00  0.00     0.086 H 
BRANCH  13  15
ATOM     15  N2  non d ame     -37.063  11.779  27.499  0.00  0.00    -0.343 N 
ATOM     16  C5  non d ame     -36.099  10.683  27.380  0.00  0.00     0.273 C 
ATOM     17  O2  non d ame     -35.791  10.277  26.313  0.00  0.00    -0.266 OA
ATOM     18  H5  non d ame     -37.333  12.130  28.407  0.00  0.00     0.163 HD
BRANCH  16  19
ATOM     19  C4  non d ame     -35.486  10.055  28.642  0.00  0.00     0.154 A 
ATOM     20  C1  non d ame     -36.136   9.826  29.896  0.00  0.00    -0.017 A 
ATOM     21  C2  non d ame     -35.148   9.234  30.713  0.00  0.00     0.077 A 
ATOM     22  H1  non d ame     -37.166  10.054  30.170  0.00  0.00     0.091 H 
ATOM     23  O1  non d ame     -34.063   9.138  30.003  0.00  0.00    -0.218 OA
ATOM     24  N1  non d ame     -34.236   9.611  28.790  0.00  0.00    -0.123 NA
BRANCH  21  25
ATOM     25  C3  non d ame     -35.322   8.789  32.159  0.00  0.00    -0.029 C 
ATOM     26  H2  non d ame     -35.877   7.852  32.187  0.00  0.00     0.036 H 
ATOM     27  H3  non d ame     -34.343   8.643  32.615  0.00  0.00     0.036 H 
ATOM     28  H4  non d ame     -35.870   9.552  32.712  0.00  0.00     0.036 H 
ENDBRANCH  21  25
ENDBRANCH  16  19
ENDBRANCH  13  15
BRANCH  13  29
ATOM     29  C8  non d ame     -38.890  13.124  26.640  0.00  0.00    -0.049 C 
ATOM     30  H7  non d ame     -38.628  14.118  27.001  0.00  0.00     0.030 H 
ATOM     31  H8  non d ame     -39.515  13.214  25.752  0.00  0.00     0.030 H 
ATOM     32  H9  non d ame     -39.438  12.589  27.417  0.00  0.00     0.030 H 
ENDBRANCH  13  29
ENDBRANCH  10  13
ENDBRANCH   7   9
BRANCH   7  33
ATOM     33  C11 non d ame     -34.615  16.187  26.659  0.00  0.00    -0.033 C 
ATOM     34  H12 non d ame     -35.658  16.409  26.886  0.00  0.00     0.042 H 
BRANCH  33  35
ATOM     35  C12 non d ame     -33.849  16.096  28.015  0.00  0.00    -0.071 C 
ATOM     36  H13 non d ame     -33.311  15.149  28.066  0.00  0.00     0.028 H 
ATOM     37  H14 non d ame     -33.141  16.921  28.090  0.00  0.00     0.028 H 
ATOM     38  H15 non d ame     -34.561  16.152  28.839  0.00  0.00     0.028 H 
ENDBRANCH  33  35
BRANCH  33  39
ATOM     39  C13 non d ame     -34.058  17.345  25.770  0.00  0.00    -0.071 C 
ATOM     40  H16 non d ame     -34.596  18.266  25.993  0.00  0.00     0.028 H 
ATOM     41  H17 non d ame     -32.996  17.484  25.977  0.00  0.00     0.028 H 
ATOM     42  H18 non d ame     -34.191  17.092  24.718  0.00  0.00     0.028 H 
ENDBRANCH  33  39
ENDBRANCH   7  33
ENDBRANCH   4   7
ENDBRANCH   1   3
BRANCH   1  43
ATOM     43  C15 non d ame     -31.629  11.084  25.975  0.00  0.00     0.240 C 
ATOM     44  O5  non d ame     -30.686  10.894  25.277  0.00  0.00    -0.271 OA
ATOM     45  N6  non d ame     -32.751  10.102  25.988  0.00  0.00    -0.355 N 
ATOM     46  H46 non d ame     -33.555  10.250  26.581  0.00  0.00     0.162 HD
BRANCH  45  47
ATOM     47  C20 non d ame     -32.686   8.903  25.125  0.00  0.00     0.013 C 
ATOM     48  H30 non d ame     -31.634   8.670  24.956  0.00  0.00     0.072 H 
BRANCH  47  49
ATOM     49  C21 non d ame     -33.369   9.197  23.808  0.00  0.00    -0.038 C 
ATOM     50  H31 non d ame     -34.081   8.385  23.659  0.00  0.00     0.036 H 
ATOM     51  H32 non d ame     -33.722  10.226  23.883  0.00  0.00     0.036 H 
BRANCH  49  52
ATOM     52  C22 non d ame     -32.399   9.155  22.607  0.00  0.00     0.018 C 
ATOM     53  H33 non d ame     -32.964   8.713  21.787  0.00  0.00     0.048 H 
ATOM     54  H34 non d ame     -32.002  10.165  22.514  0.00  0.00     0.048 H 
BRANCH  52  55
ATOM     55  C23 non d ame     -31.170   8.230  22.827  0.00  0.00     0.259 C 
ATOM     56  O7  non d ame     -30.091   8.694  23.010  0.00  0.00    -0.265 OA
BRANCH  55  57
ATOM     57  O8  non d ame     -31.345   6.818  22.794  0.00  0.00    -0.317 OA
BRANCH  57  58
ATOM     58  C29 non d ame     -32.080   6.349  21.661  0.00  0.00     0.052 C 
ATOM     59  H47 non d ame     -32.550   7.231  21.228  0.00  0.00     0.082 H 
ATOM     60  H48 non d ame     -31.375   5.762  21.073  0.00  0.00     0.082 H 
BRANCH  58  61
ATOM     61  C35 non d ame     -33.197   5.400  22.175  0.00  0.00    -0.034 A 
ATOM     62  C30 non d ame     -34.452   5.912  22.494  0.00  0.00    -0.075 A 
ATOM     63  C31 non d ame     -35.454   5.060  22.957  0.00  0.00    -0.082 A 
ATOM     64  H49 non d ame     -34.649   6.978  22.384  0.00  0.00     0.084 H 
ATOM     65  C32 non d ame     -35.199   3.694  23.100  0.00  0.00    -0.083 A 
ATOM     66  H50 non d ame     -36.437   5.463  23.204  0.00  0.00     0.083 H 
ATOM     67  C33 non d ame     -33.945   3.190  22.784  0.00  0.00    -0.082 A 
ATOM     68  H51 non d ame     -35.978   3.021  23.460  0.00  0.00     0.083 H 
ATOM     69  C34 non d ame     -32.940   4.037  22.320  0.00  0.00    -0.075 A 
ATOM     70  H52 non d ame     -33.747   2.123  22.900  0.00  0.00     0.083 H 
ATOM     71  H53 non d ame     -31.958   3.633  22.072  0.00  0.00     0.084 H 
ENDBRANCH  58  61
ENDBRANCH  57  58
ENDBRANCH  55  57
ENDBRANCH  52  55
ENDBRANCH  49  52
ENDBRANCH  47  49
BRANCH  47  72
ATOM     72  C24 non d ame     -33.385   7.733  25.813  0.00  0.00    -0.039 C 
ATOM     73  H35 non d ame     -33.697   8.114  26.786  0.00  0.00     0.036 H 
ATOM     74  H36 non d ame     -34.131   7.381  25.101  0.00  0.00     0.036 H 
BRANCH  72  75
ATOM     75  C25 non d ame     -32.378   6.516  26.082  0.00  0.00    -0.001 C 
ATOM     76  C26 non d ame     -33.176   5.087  25.933  0.00  0.00    -0.035 C 
ATOM     77  C27 non d ame     -32.941   4.337  27.036  0.00  0.00     0.085 C 
ATOM     78  H38 non d ame     -34.252   5.253  25.963  0.00  0.00     0.036 H 
ATOM     79  H39 non d ame     -32.739   4.496  25.126  0.00  0.00     0.036 H 
ATOM     80  N5  non d ame     -32.325   5.253  28.068  0.00  0.00    -0.049 N 
ATOM     81  H40 non d ame     -33.922   4.017  27.385  0.00  0.00     0.075 H 
ATOM     82  H41 non d ame     -32.202   3.596  26.733  0.00  0.00     0.075 H 
ATOM     83  C28 non d ame     -31.874   6.581  27.269  0.00  0.00     0.193 C 
ATOM     84  H42 non d ame     -33.065   5.499  28.709  0.00  0.00     0.280 HD
ATOM     85  H43 non d ame     -31.497   4.784  28.407  0.00  0.00     0.280 HD
ATOM     86  H44 non d ame     -30.824   6.752  27.029  0.00  0.00     0.129 H 
ATOM     87  H37 non d ame     -31.444   6.623  25.531  0.00  0.00     0.046 H 
BRANCH  83  88
ATOM     88  O6  non d ame     -32.301   7.749  27.974  0.00  0.00    -0.369 OA
ATOM     89  H45 non d ame     -31.656   7.967  28.651  0.00  0.00     0.212 HD
ENDBRANCH  83  88
ENDBRANCH  72  75
ENDBRANCH  47  72
ENDBRANCH  45  47
ENDBRANCH   1  43
BRANCH   1  90
ATOM     90  C16 non d ame     -31.433  11.956  28.325  0.00  0.00    -0.035 C 
ATOM     91  H21 non d ame     -31.940  11.002  28.454  0.00  0.00     0.037 H 
ATOM     92  H22 non d ame     -30.354  12.024  28.461  0.00  0.00     0.037 H 
BRANCH  90  93
ATOM     93  C17 non d ame     -32.072  12.938  29.359  0.00  0.00    -0.059 C 
ATOM     94  H23 non d ame     -32.941  13.396  28.886  0.00  0.00     0.038 H 
BRANCH  93  95
ATOM     95  C18 non d ame     -32.562  12.202  30.646  0.00  0.00    -0.073 C 
ATOM     96  H24 non d ame     -31.749  11.602  31.055  0.00  0.00     0.028 H 
ATOM     97  H25 non d ame     -32.878  12.936  31.386  0.00  0.00     0.028 H 
ATOM     98  H26 non d ame     -33.402  11.553  30.396  0.00  0.00     0.028 H 
ENDBRANCH  93  95
BRANCH  93  99
ATOM     99  C19 non d ame     -31.100  14.066  29.714  0.00  0.00    -0.073 C 
ATOM    100  H27 non d ame     -30.157  13.639  30.058  0.00  0.00     0.028 H 
ATOM    101  H28 non d ame     -30.918  14.682  28.833  0.00  0.00     0.028 H 
ATOM    102  H29 non d ame     -31.530  14.681  30.504  0.00  0.00     0.028 H 
ENDBRANCH  93  99
ENDBRANCH  90  93
ENDBRANCH   1  90
TORSDOF 26
ENDMDL
MODEL 16
REMARK VINA RESULT:      -6.1      2.525      7.945
REMARK  26 active torsions:
REMARK  status: ('A' for Active; 'I' for Inactive)
REMARK    1  A    between atoms: C2_2  and  C3_3 
REMARK    2  A    between atoms: C4_6  and  C5_7 
REMARK       I    between atoms: C5_7  and  N2_9 
REMARK    3  A    between atoms: N2_9  and  C6_10 
REMARK    4  A    between atoms: C6_10  and  C7_11 
REMARK    5  A    between atoms: C6_10  and  C8_13 
REMARK       I    between atoms: C7_11  and  N3_14 
REMARK    6  A    between atoms: N3_14  and  C9_15 
REMARK    7  A    between atoms: C9_15  and  C10_16 
REMARK    8  A    between atoms: C9_15  and  C11_18 
REMARK       I    between atoms: C10_16  and  N4_21 
REMARK    9  A    between atoms: C11_18  and  C12_19 
REMARK   10  A    between atoms: C11_18  and  C13_20 
REMARK   11  A    between atoms: N4_21  and  C14_22 
REMARK   12  A    between atoms: C14_22  and  C15_23 
REMARK   13  A    between atoms: C14_22  and  C16_25 
REMARK       I    between atoms: C15_23  and  N6_40 
REMARK   14  A    between atoms: C16_25  and  C17_26 
REMARK   15  A    between atoms: C17_26  and  C18_27 
REMARK   16  A    between atoms: C17_26  and  C19_28 
REMARK   17  A    between atoms: C20_29  and  C21_30 
REMARK   18  A    between atoms: C20_29  and  C24_33 
REMARK   19  A    between atoms: C20_29  and  N6_40 
REMARK   20  A    between atoms: C21_30  and  C22_31 
REMARK   21  A    between atoms: C22_31  and  C23_32 
REMARK   22  A    between atoms: C23_32  and  O8_43 
REMARK   23  A    between atoms: C24_33  and  C25_34 
REMARK   24  A    between atoms: C28_38  and  O6_39 
REMARK   25  A    between atoms: C29_42  and  O8_43 
REMARK   26  A    between atoms: C29_42  and  C35_49 
ROOT
ATOM      1  C14 non d ame     -33.207  12.205  28.529  0.00  0.00     0.089 C 
ATOM      2  H20 non d ame     -34.195  12.594  28.281  0.00  0.00     0.087 H 
ENDROOT
BRANCH   1   3
ATOM      3  N4  non d ame     -33.385  10.867  29.071  0.00  0.00    -0.346 N 
ATOM      4  C10 non d ame     -34.712  10.163  28.943  0.00  0.00     0.241 C 
ATOM      5  O4  non d ame     -35.624  10.695  28.399  0.00  0.00    -0.271 OA
ATOM      6  H19 non d ame     -32.598  10.433  29.533  0.00  0.00     0.163 HD
BRANCH   4   7
ATOM      7  C9  non d ame     -34.878   8.776  29.506  0.00  0.00     0.092 C 
ATOM      8  H11 non d ame     -35.875   8.408  29.266  0.00  0.00     0.088 H 
BRANCH   7   9
ATOM      9  N3  non d ame     -33.916   7.871  28.869  0.00  0.00    -0.346 N 
ATOM     10  C7  non d ame     -34.367   6.918  27.886  0.00  0.00     0.240 C 
ATOM     11  O3  non d ame     -35.500   6.864  27.596  0.00  0.00    -0.271 OA
ATOM     12  H10 non d ame     -32.936   7.905  29.111  0.00  0.00     0.163 HD
BRANCH  10  13
ATOM     13  C6  non d ame     -33.340   5.955  27.214  0.00  0.00     0.086 C 
ATOM     14  H6  non d ame     -33.270   4.993  27.721  0.00  0.00     0.086 H 
BRANCH  13  15
ATOM     15  N2  non d ame     -33.773   5.678  25.854  0.00  0.00    -0.343 N 
ATOM     16  C5  non d ame     -33.917   4.289  25.412  0.00  0.00     0.273 C 
ATOM     17  O2  non d ame     -33.679   3.402  26.155  0.00  0.00    -0.266 OA
ATOM     18  H5  non d ame     -33.971   6.442  25.224  0.00  0.00     0.163 HD
BRANCH  16  19
ATOM     19  C4  non d ame     -34.374   3.982  23.977  0.00  0.00     0.154 A 
ATOM     20  C1  non d ame     -35.233   4.778  23.154  0.00  0.00    -0.017 A 
ATOM     21  C2  non d ame     -35.340   4.061  21.942  0.00  0.00     0.077 A 
ATOM     22  H1  non d ame     -35.706   5.728  23.400  0.00  0.00     0.091 H 
ATOM     23  O1  non d ame     -34.622   2.984  22.063  0.00  0.00    -0.218 OA
ATOM     24  N1  non d ame     -34.048   2.916  23.242  0.00  0.00    -0.123 NA
BRANCH  21  25
ATOM     25  C3  non d ame     -36.146   4.476  20.718  0.00  0.00    -0.029 C 
ATOM     26  H2  non d ame     -36.410   5.530  20.796  0.00  0.00     0.036 H 
ATOM     27  H3  non d ame     -35.549   4.319  19.819  0.00  0.00     0.036 H 
ATOM     28  H4  non d ame     -37.054   3.877  20.659  0.00  0.00     0.036 H 
ENDBRANCH  21  25
ENDBRANCH  16  19
ENDBRANCH  13  15
BRANCH  13  29
ATOM     29  C8  non d ame     -31.977   6.599  27.201  0.00  0.00    -0.049 C 
ATOM     30  H7  non d ame     -32.076   7.654  26.951  0.00  0.00     0.030 H 
ATOM     31  H8  non d ame     -31.519   6.500  28.185  0.00  0.00     0.030 H 
ATOM     32  H9  non d ame     -31.349   6.106  26.457  0.00  0.00     0.030 H 
ENDBRANCH  13  29
ENDBRANCH  10  13
ENDBRANCH   7   9
BRANCH   7  33
ATOM     33  C11 non d ame     -34.618   8.807  31.042  0.00  0.00    -0.033 C 
ATOM     34  H12 non d ame     -33.580   9.101  31.194  0.00  0.00     0.042 H 
BRANCH  33  35
ATOM     35  C12 non d ame     -35.516   9.870  31.748  0.00  0.00    -0.071 C 
ATOM     36  H13 non d ame     -35.153  10.870  31.507  0.00  0.00     0.028 H 
ATOM     37  H14 non d ame     -36.545   9.764  31.404  0.00  0.00     0.028 H 
ATOM     38  H15 non d ame     -35.476   9.721  32.827  0.00  0.00     0.028 H 
ENDBRANCH  33  35
BRANCH  33  39
ATOM     39  C13 non d ame     -34.816   7.390  31.670  0.00  0.00    -0.071 C 
ATOM     40  H16 non d ame     -35.483   6.803  31.040  0.00  0.00     0.028 H 
ATOM     41  H17 non d ame     -33.851   6.888  31.746  0.00  0.00     0.028 H 
ATOM     42  H18 non d ame     -35.250   7.491  32.665  0.00  0.00     0.028 H 
ENDBRANCH  33  39
ENDBRANCH   7  33
ENDBRANCH   4   7
ENDBRANCH   1   3
BRANCH   1  43
ATOM     43  C15 non d ame     -32.283  12.114  27.279  0.00  0.00     0.240 C 
ATOM     44  O5  non d ame     -31.149  11.784  27.406  0.00  0.00    -0.271 OA
ATOM     45  N6  non d ame     -32.817  12.428  25.923  0.00  0.00    -0.355 N 
ATOM     46  H46 non d ame     -33.781  12.705  25.802  0.00  0.00     0.162 HD
BRANCH  45  47
ATOM     47  C20 non d ame     -31.926  12.336  24.746  0.00  0.00     0.013 C 
ATOM     48  H30 non d ame     -32.546  12.402  23.852  0.00  0.00     0.072 H 
BRANCH  47  49
ATOM     49  C21 non d ame     -31.197  11.011  24.773  0.00  0.00    -0.038 C 
ATOM     50  H31 non d ame     -30.137  11.258  24.721  0.00  0.00     0.036 H 
ATOM     51  H32 non d ame     -31.591  10.477  25.638  0.00  0.00     0.036 H 
BRANCH  49  52
ATOM     52  C22 non d ame     -31.504  10.133  23.540  0.00  0.00     0.018 C 
ATOM     53  H33 non d ame     -31.834  10.821  22.763  0.00  0.00     0.048 H 
ATOM     54  H34 non d ame     -30.615   9.521  23.386  0.00  0.00     0.048 H 
BRANCH  52  55
ATOM     55  C23 non d ame     -32.677   9.137  23.758  0.00  0.00     0.259 C 
ATOM     56  O7  non d ame     -33.794   9.532  23.854  0.00  0.00    -0.265 OA
BRANCH  55  57
ATOM     57  O8  non d ame     -32.400   7.745  23.855  0.00  0.00    -0.317 OA
BRANCH  57  58
ATOM     58  C29 non d ame     -31.278   7.318  23.076  0.00  0.00     0.052 C 
ATOM     59  H47 non d ame     -30.792   8.232  22.734  0.00  0.00     0.082 H 
ATOM     60  H48 non d ame     -30.735   6.612  23.702  0.00  0.00     0.082 H 
BRANCH  58  61
ATOM     61  C35 non d ame     -31.819   6.556  21.836  0.00  0.00    -0.034 A 
ATOM     62  C30 non d ame     -31.493   5.217  21.645  0.00  0.00    -0.075 A 
ATOM     63  C31 non d ame     -31.978   4.533  20.531  0.00  0.00    -0.082 A 
ATOM     64  H49 non d ame     -30.856   4.704  22.365  0.00  0.00     0.084 H 
ATOM     65  C32 non d ame     -32.791   5.193  19.606  0.00  0.00    -0.083 A 
ATOM     66  H50 non d ame     -31.722   3.483  20.384  0.00  0.00     0.083 H 
ATOM     67  C33 non d ame     -33.111   6.530  19.799  0.00  0.00    -0.082 A 
ATOM     68  H51 non d ame     -33.176   4.665  18.733  0.00  0.00     0.083 H 
ATOM     69  C34 non d ame     -32.630   7.217  20.911  0.00  0.00    -0.075 A 
ATOM     70  H52 non d ame     -33.744   7.043  19.074  0.00  0.00     0.083 H 
ATOM     71  H53 non d ame     -32.887   8.266  21.058  0.00  0.00     0.084 H 
ENDBRANCH  58  61
ENDBRANCH  57  58
ENDBRANCH  55  57
ENDBRANCH  52  55
ENDBRANCH  49  52
ENDBRANCH  47  49
BRANCH  47  72
ATOM     72  C24 non d ame     -30.912  13.477  24.775  0.00  0.00    -0.039 C 
ATOM     73  H35 non d ame     -31.350  14.237  25.423  0.00  0.00     0.036 H 
ATOM     74  H36 non d ame     -29.962  13.015  25.044  0.00  0.00     0.036 H 
BRANCH  72  75
ATOM     75  C25 non d ame     -30.723  14.139  23.329  0.00  0.00    -0.001 C 
ATOM     76  C26 non d ame     -29.564  13.330  22.490  0.00  0.00    -0.035 C 
ATOM     77  C27 non d ame     -28.662  14.224  22.017  0.00  0.00     0.085 C 
ATOM     78  H38 non d ame     -28.977  12.709  23.166  0.00  0.00     0.036 H 
ATOM     79  H39 non d ame     -29.991  12.896  21.585  0.00  0.00     0.036 H 
ATOM     80  N5  non d ame     -28.920  15.529  22.732  0.00  0.00    -0.049 N 
ATOM     81  H40 non d ame     -27.687  13.840  22.318  0.00  0.00     0.075 H 
ATOM     82  H41 non d ame     -28.898  14.345  20.961  0.00  0.00     0.075 H 
ATOM     83  C28 non d ame     -30.369  15.378  23.425  0.00  0.00     0.193 C 
ATOM     84  H42 non d ame     -28.222  15.600  23.458  0.00  0.00     0.280 HD
ATOM     85  H43 non d ame     -28.978  16.239  22.015  0.00  0.00     0.280 HD
ATOM     86  H44 non d ame     -31.243  15.867  22.993  0.00  0.00     0.129 H 
ATOM     87  H37 non d ame     -31.674  14.307  22.825  0.00  0.00     0.046 H 
BRANCH  83  88
ATOM     88  O6  non d ame     -30.315  15.819  24.783  0.00  0.00    -0.369 OA
ATOM     89  H45 non d ame     -30.273  16.779  24.806  0.00  0.00     0.212 HD
ENDBRANCH  83  88
ENDBRANCH  72  75
ENDBRANCH  47  72
ENDBRANCH  45  47
ENDBRANCH   1  43
BRANCH   1  90
ATOM     90  C16 non d ame     -32.555  13.087  29.582  0.00  0.00    -0.035 C 
ATOM     91  H21 non d ame     -33.370  13.420  30.223  0.00  0.00     0.037 H 
ATOM     92  H22 non d ame     -31.744  12.488  29.997  0.00  0.00     0.037 H 
BRANCH  90  93
ATOM     93  C17 non d ame     -31.898  14.378  28.998  0.00  0.00    -0.059 C 
ATOM     94  H23 non d ame     -31.467  14.120  28.030  0.00  0.00     0.038 H 
BRANCH  93  95
ATOM     95  C18 non d ame     -32.940  15.518  28.767  0.00  0.00    -0.073 C 
ATOM     96  H24 non d ame     -32.555  16.452  29.176  0.00  0.00     0.028 H 
ATOM     97  H25 non d ame     -33.118  15.637  27.698  0.00  0.00     0.028 H 
ATOM     98  H26 non d ame     -33.875  15.262  29.265  0.00  0.00     0.028 H 
ENDBRANCH  93  95
BRANCH  93  99
ATOM     99  C19 non d ame     -30.752  14.861  29.892  0.00  0.00    -0.073 C 
ATOM    100  H27 non d ame     -30.239  15.693  29.407  0.00  0.00     0.028 H 
ATOM    101  H28 non d ame     -31.152  15.191  30.851  0.00  0.00     0.028 H 
ATOM    102  H29 non d ame     -30.048  14.044  30.053  0.00  0.00     0.028 H 
ENDBRANCH  93  99
ENDBRANCH  90  93
ENDBRANCH   1  90
TORSDOF 26
ENDMDL
MODEL 17
REMARK VINA RESULT:      -6.0      2.561      8.899
REMARK  26 active torsions:
REMARK  status: ('A' for Active; 'I' for Inactive)
REMARK    1  A    between atoms: C2_2  and  C3_3 
REMARK    2  A    between atoms: C4_6  and  C5_7 
REMARK       I    between atoms: C5_7  and  N2_9 
REMARK    3  A    between atoms: N2_9  and  C6_10 
REMARK    4  A    between atoms: C6_10  and  C7_11 
REMARK    5  A    between atoms: C6_10  and  C8_13 
REMARK       I    between atoms: C7_11  and  N3_14 
REMARK    6  A    between atoms: N3_14  and  C9_15 
REMARK    7  A    between atoms: C9_15  and  C10_16 
REMARK    8  A    between atoms: C9_15  and  C11_18 
REMARK       I    between atoms: C10_16  and  N4_21 
REMARK    9  A    between atoms: C11_18  and  C12_19 
REMARK   10  A    between atoms: C11_18  and  C13_20 
REMARK   11  A    between atoms: N4_21  and  C14_22 
REMARK   12  A    between atoms: C14_22  and  C15_23 
REMARK   13  A    between atoms: C14_22  and  C16_25 
REMARK       I    between atoms: C15_23  and  N6_40 
REMARK   14  A    between atoms: C16_25  and  C17_26 
REMARK   15  A    between atoms: C17_26  and  C18_27 
REMARK   16  A    between atoms: C17_26  and  C19_28 
REMARK   17  A    between atoms: C20_29  and  C21_30 
REMARK   18  A    between atoms: C20_29  and  C24_33 
REMARK   19  A    between atoms: C20_29  and  N6_40 
REMARK   20  A    between atoms: C21_30  and  C22_31 
REMARK   21  A    between atoms: C22_31  and  C23_32 
REMARK   22  A    between atoms: C23_32  and  O8_43 
REMARK   23  A    between atoms: C24_33  and  C25_34 
REMARK   24  A    between atoms: C28_38  and  O6_39 
REMARK   25  A    between atoms: C29_42  and  O8_43 
REMARK   26  A    between atoms: C29_42  and  C35_49 
ROOT
ATOM      1  C14 non d ame     -33.420  11.346  28.733  0.00  0.00     0.089 C 
ATOM      2  H20 non d ame     -33.952  11.763  29.589  0.00  0.00     0.087 H 
ENDROOT
BRANCH   1   3
ATOM      3  N4  non d ame     -33.757   9.933  28.653  0.00  0.00    -0.346 N 
ATOM      4  C10 non d ame     -35.156   9.465  28.964  0.00  0.00     0.241 C 
ATOM      5  O4  non d ame     -35.994  10.244  29.278  0.00  0.00    -0.271 OA
ATOM      6  H19 non d ame     -33.029   9.285  28.387  0.00  0.00     0.163 HD
BRANCH   4   7
ATOM      7  C9  non d ame     -35.489   7.998  28.871  0.00  0.00     0.092 C 
ATOM      8  H11 non d ame     -36.300   7.859  28.157  0.00  0.00     0.088 H 
BRANCH   7   9
ATOM      9  N3  non d ame     -34.329   7.265  28.357  0.00  0.00    -0.346 N 
ATOM     10  C7  non d ame     -34.325   6.785  26.997  0.00  0.00     0.240 C 
ATOM     11  O3  non d ame     -35.247   6.980  26.303  0.00  0.00    -0.271 OA
ATOM     12  H10 non d ame     -33.527   7.088  28.945  0.00  0.00     0.163 HD
BRANCH  10  13
ATOM     13  C6  non d ame     -33.088   6.002  26.456  0.00  0.00     0.086 C 
ATOM     14  H6  non d ame     -33.361   5.225  25.742  0.00  0.00     0.086 H 
BRANCH  13  15
ATOM     15  N2  non d ame     -32.216   6.926  25.751  0.00  0.00    -0.343 N 
ATOM     16  C5  non d ame     -32.263   6.990  24.289  0.00  0.00     0.273 C 
ATOM     17  O2  non d ame     -33.003   6.291  23.688  0.00  0.00    -0.266 OA
ATOM     18  H5  non d ame     -31.584   7.517  26.272  0.00  0.00     0.163 HD
BRANCH  16  19
ATOM     19  C4  non d ame     -31.346   7.963  23.531  0.00  0.00     0.154 A 
ATOM     20  C1  non d ame     -31.371   9.393  23.583  0.00  0.00    -0.017 A 
ATOM     21  C2  non d ame     -30.338   9.806  22.713  0.00  0.00     0.077 A 
ATOM     22  H1  non d ame     -32.037  10.032  24.164  0.00  0.00     0.091 H 
ATOM     23  O1  non d ame     -29.789   8.733  22.225  0.00  0.00    -0.218 OA
ATOM     24  N1  non d ame     -30.361   7.645  22.688  0.00  0.00    -0.123 NA
BRANCH  21  25
ATOM     25  C3  non d ame     -29.939  11.243  22.406  0.00  0.00    -0.029 C 
ATOM     26  H2  non d ame     -30.553  11.925  22.994  0.00  0.00     0.036 H 
ATOM     27  H3  non d ame     -28.889  11.392  22.660  0.00  0.00     0.036 H 
ATOM     28  H4  non d ame     -30.088  11.444  21.345  0.00  0.00     0.036 H 
ENDBRANCH  21  25
ENDBRANCH  16  19
ENDBRANCH  13  15
BRANCH  13  29
ATOM     29  C8  non d ame     -32.348   5.368  27.606  0.00  0.00    -0.049 C 
ATOM     30  H7  non d ame     -31.906   6.146  28.227  0.00  0.00     0.030 H 
ATOM     31  H8  non d ame     -33.043   4.779  28.205  0.00  0.00     0.030 H 
ATOM     32  H9  non d ame     -31.561   4.721  27.219  0.00  0.00     0.030 H 
ENDBRANCH  13  29
ENDBRANCH  10  13
ENDBRANCH   7   9
BRANCH   7  33
ATOM     33  C11 non d ame     -35.854   7.460  30.286  0.00  0.00    -0.033 C 
ATOM     34  H12 non d ame     -36.827   7.870  30.553  0.00  0.00     0.042 H 
BRANCH  33  35
ATOM     35  C12 non d ame     -35.985   5.905  30.285  0.00  0.00    -0.071 C 
ATOM     36  H13 non d ame     -35.287   5.482  29.562  0.00  0.00     0.028 H 
ATOM     37  H14 non d ame     -35.758   5.520  31.278  0.00  0.00     0.028 H 
ATOM     38  H15 non d ame     -37.003   5.626  30.010  0.00  0.00     0.028 H 
ENDBRANCH  33  35
BRANCH  33  39
ATOM     39  C13 non d ame     -34.818   7.940  31.351  0.00  0.00    -0.071 C 
ATOM     40  H16 non d ame     -35.345   8.378  32.200  0.00  0.00     0.028 H 
ATOM     41  H17 non d ame     -34.224   7.091  31.691  0.00  0.00     0.028 H 
ATOM     42  H18 non d ame     -34.160   8.688  30.908  0.00  0.00     0.028 H 
ENDBRANCH  33  39
ENDBRANCH   7  33
ENDBRANCH   4   7
ENDBRANCH   1   3
BRANCH   1  43
ATOM     43  C15 non d ame     -33.830  12.030  27.397  0.00  0.00     0.240 C 
ATOM     44  O5  non d ame     -33.137  11.917  26.438  0.00  0.00    -0.271 OA
ATOM     45  N6  non d ame     -35.093  12.817  27.310  0.00  0.00    -0.355 N 
ATOM     46  H46 non d ame     -35.693  12.915  28.117  0.00  0.00     0.162 HD
BRANCH  45  47
ATOM     47  C20 non d ame     -35.470  13.459  26.033  0.00  0.00     0.013 C 
ATOM     48  H30 non d ame     -34.583  13.489  25.399  0.00  0.00     0.072 H 
BRANCH  47  49
ATOM     49  C21 non d ame     -35.959  14.864  26.304  0.00  0.00    -0.038 C 
ATOM     50  H31 non d ame     -36.973  14.904  25.907  0.00  0.00     0.036 H 
ATOM     51  H32 non d ame     -35.782  15.037  27.366  0.00  0.00     0.036 H 
BRANCH  49  52
ATOM     52  C22 non d ame     -35.148  15.938  25.546  0.00  0.00     0.018 C 
ATOM     53  H33 non d ame     -35.292  15.724  24.488  0.00  0.00     0.048 H 
ATOM     54  H34 non d ame     -35.470  16.895  25.958  0.00  0.00     0.048 H 
BRANCH  52  55
ATOM     55  C23 non d ame     -33.617  15.858  25.796  0.00  0.00     0.259 C 
ATOM     56  O7  non d ame     -33.148  16.272  26.807  0.00  0.00    -0.265 OA
BRANCH  55  57
ATOM     57  O8  non d ame     -32.776  15.296  24.795  0.00  0.00    -0.317 OA
BRANCH  57  58
ATOM     58  C29 non d ame     -31.401  15.673  24.910  0.00  0.00     0.052 C 
ATOM     59  H47 non d ame     -31.406  16.709  25.251  0.00  0.00     0.082 H 
ATOM     60  H48 non d ame     -30.933  14.901  25.520  0.00  0.00     0.082 H 
BRANCH  58  61
ATOM     61  C35 non d ame     -30.771  15.626  23.492  0.00  0.00    -0.034 A 
ATOM     62  C30 non d ame     -31.397  16.274  22.431  0.00  0.00    -0.075 A 
ATOM     63  C31 non d ame     -30.832  16.231  21.157  0.00  0.00    -0.082 A 
ATOM     64  H49 non d ame     -32.329  16.814  22.597  0.00  0.00     0.084 H 
ATOM     65  C32 non d ame     -29.638  15.535  20.946  0.00  0.00    -0.083 A 
ATOM     66  H50 non d ame     -31.323  16.741  20.327  0.00  0.00     0.083 H 
ATOM     67  C33 non d ame     -29.021  14.888  22.007  0.00  0.00    -0.082 A 
ATOM     68  H51 non d ame     -29.190  15.498  19.952  0.00  0.00     0.083 H 
ATOM     69  C34 non d ame     -29.580  14.929  23.282  0.00  0.00    -0.075 A 
ATOM     70  H52 non d ame     -28.090  14.343  21.838  0.00  0.00     0.083 H 
ATOM     71  H53 non d ame     -29.088  14.419  24.110  0.00  0.00     0.084 H 
ENDBRANCH  58  61
ENDBRANCH  57  58
ENDBRANCH  55  57
ENDBRANCH  52  55
ENDBRANCH  49  52
ENDBRANCH  47  49
BRANCH  47  72
ATOM     72  C24 non d ame     -36.578  12.655  25.357  0.00  0.00    -0.039 C 
ATOM     73  H35 non d ame     -36.135  12.267  24.438  0.00  0.00     0.036 H 
ATOM     74  H36 non d ame     -36.942  11.965  26.119  0.00  0.00     0.036 H 
BRANCH  72  75
ATOM     75  C25 non d ame     -37.811  13.584  24.932  0.00  0.00    -0.001 C 
ATOM     76  C26 non d ame     -39.174  13.095  25.710  0.00  0.00    -0.035 C 
ATOM     77  C27 non d ame     -40.161  12.924  24.797  0.00  0.00     0.085 C 
ATOM     78  H38 non d ame     -39.032  12.096  26.122  0.00  0.00     0.036 H 
ATOM     79  H39 non d ame     -39.551  13.898  26.345  0.00  0.00     0.036 H 
ATOM     80  N5  non d ame     -39.508  12.934  23.435  0.00  0.00    -0.049 N 
ATOM     81  H40 non d ame     -40.567  11.931  24.990  0.00  0.00     0.075 H 
ATOM     82  H41 non d ame     -40.799  13.801  24.891  0.00  0.00     0.075 H 
ATOM     83  C28 non d ame     -38.023  13.526  23.659  0.00  0.00     0.193 C 
ATOM     84  H42 non d ame     -39.430  11.969  23.149  0.00  0.00     0.280 HD
ATOM     85  H43 non d ame     -40.034  13.588  22.873  0.00  0.00     0.280 HD
ATOM     86  H44 non d ame     -37.787  14.551  23.372  0.00  0.00     0.129 H 
ATOM     87  H37 non d ame     -37.565  14.644  24.981  0.00  0.00     0.046 H 
BRANCH  83  88
ATOM     88  O6  non d ame     -37.061  12.710  22.989  0.00  0.00    -0.369 OA
ATOM     89  H45 non d ame     -36.823  13.117  22.152  0.00  0.00     0.212 HD
ENDBRANCH  83  88
ENDBRANCH  72  75
ENDBRANCH  47  72
ENDBRANCH  45  47
ENDBRANCH   1  43
BRANCH   1  90
ATOM     90  C16 non d ame     -31.921  11.489  28.941  0.00  0.00    -0.035 C 
ATOM     91  H21 non d ame     -31.638  10.657  29.584  0.00  0.00     0.037 H 
ATOM     92  H22 non d ame     -31.498  11.573  27.939  0.00  0.00     0.037 H 
BRANCH  90  93
ATOM     93  C17 non d ame     -31.515  12.791  29.702  0.00  0.00    -0.059 C 
ATOM     94  H23 non d ame     -32.432  13.319  29.965  0.00  0.00     0.038 H 
BRANCH  93  95
ATOM     95  C18 non d ame     -30.747  12.484  31.027  0.00  0.00    -0.073 C 
ATOM     96  H24 non d ame     -31.445  12.499  31.865  0.00  0.00     0.028 H 
ATOM     97  H25 non d ame     -30.284  11.500  30.959  0.00  0.00     0.028 H 
ATOM     98  H26 non d ame     -29.976  13.238  31.183  0.00  0.00     0.028 H 
ENDBRANCH  93  95
BRANCH  93  99
ATOM     99  C19 non d ame     -30.697  13.720  28.801  0.00  0.00    -0.073 C 
ATOM    100  H27 non d ame     -31.372  14.317  28.187  0.00  0.00     0.028 H 
ATOM    101  H28 non d ame     -30.087  14.380  29.417  0.00  0.00     0.028 H 
ATOM    102  H29 non d ame     -30.051  13.124  28.157  0.00  0.00     0.028 H 
ENDBRANCH  93  99
ENDBRANCH  90  93
ENDBRANCH   1  90
TORSDOF 26
ENDMDL
MODEL 18
REMARK VINA RESULT:      -6.0      3.019      6.705
REMARK  26 active torsions:
REMARK  status: ('A' for Active; 'I' for Inactive)
REMARK    1  A    between atoms: C2_2  and  C3_3 
REMARK    2  A    between atoms: C4_6  and  C5_7 
REMARK       I    between atoms: C5_7  and  N2_9 
REMARK    3  A    between atoms: N2_9  and  C6_10 
REMARK    4  A    between atoms: C6_10  and  C7_11 
REMARK    5  A    between atoms: C6_10  and  C8_13 
REMARK       I    between atoms: C7_11  and  N3_14 
REMARK    6  A    between atoms: N3_14  and  C9_15 
REMARK    7  A    between atoms: C9_15  and  C10_16 
REMARK    8  A    between atoms: C9_15  and  C11_18 
REMARK       I    between atoms: C10_16  and  N4_21 
REMARK    9  A    between atoms: C11_18  and  C12_19 
REMARK   10  A    between atoms: C11_18  and  C13_20 
REMARK   11  A    between atoms: N4_21  and  C14_22 
REMARK   12  A    between atoms: C14_22  and  C15_23 
REMARK   13  A    between atoms: C14_22  and  C16_25 
REMARK       I    between atoms: C15_23  and  N6_40 
REMARK   14  A    between atoms: C16_25  and  C17_26 
REMARK   15  A    between atoms: C17_26  and  C18_27 
REMARK   16  A    between atoms: C17_26  and  C19_28 
REMARK   17  A    between atoms: C20_29  and  C21_30 
REMARK   18  A    between atoms: C20_29  and  C24_33 
REMARK   19  A    between atoms: C20_29  and  N6_40 
REMARK   20  A    between atoms: C21_30  and  C22_31 
REMARK   21  A    between atoms: C22_31  and  C23_32 
REMARK   22  A    between atoms: C23_32  and  O8_43 
REMARK   23  A    between atoms: C24_33  and  C25_34 
REMARK   24  A    between atoms: C28_38  and  O6_39 
REMARK   25  A    between atoms: C29_42  and  O8_43 
REMARK   26  A    between atoms: C29_42  and  C35_49 
ROOT
ATOM      1  C14 non d ame     -31.939  13.560  26.030  0.00  0.00     0.089 C 
ATOM      2  H20 non d ame     -31.401  14.007  25.194  0.00  0.00     0.087 H 
ENDROOT
BRANCH   1   3
ATOM      3  N4  non d ame     -33.311  14.041  25.976  0.00  0.00    -0.346 N 
ATOM      4  C10 non d ame     -33.683  15.182  25.065  0.00  0.00     0.241 C 
ATOM      5  O4  non d ame     -32.860  15.700  24.384  0.00  0.00    -0.271 OA
ATOM      6  H19 non d ame     -33.996  13.588  26.565  0.00  0.00     0.163 HD
BRANCH   4   7
ATOM      7  C9  non d ame     -35.110  15.664  25.018  0.00  0.00     0.092 C 
ATOM      8  H11 non d ame     -35.389  15.858  23.983  0.00  0.00     0.088 H 
BRANCH   7   9
ATOM      9  N3  non d ame     -35.999  14.611  25.518  0.00  0.00    -0.346 N 
ATOM     10  C7  non d ame     -36.771  13.821  24.591  0.00  0.00     0.240 C 
ATOM     11  O3  non d ame     -36.690  14.019  23.440  0.00  0.00    -0.271 OA
ATOM     12  H10 non d ame     -36.080  14.429  26.508  0.00  0.00     0.163 HD
BRANCH  10  13
ATOM     13  C6  non d ame     -37.718  12.703  25.128  0.00  0.00     0.086 C 
ATOM     14  H6  non d ame     -38.698  12.716  24.653  0.00  0.00     0.086 H 
BRANCH  13  15
ATOM     15  N2  non d ame     -37.131  11.406  24.834  0.00  0.00    -0.343 N 
ATOM     16  C5  non d ame     -37.774  10.529  23.854  0.00  0.00     0.273 C 
ATOM     17  O2  non d ame     -38.765  10.874  23.309  0.00  0.00    -0.266 OA
ATOM     18  H5  non d ame     -36.286  11.118  25.306  0.00  0.00     0.163 HD
BRANCH  16  19
ATOM     19  C4  non d ame     -37.164   9.155  23.533  0.00  0.00     0.154 A 
ATOM     20  C1  non d ame     -36.447   8.782  22.353  0.00  0.00    -0.017 A 
ATOM     21  C2  non d ame     -36.104   7.426  22.549  0.00  0.00     0.077 A 
ATOM     22  H1  non d ame     -36.210   9.401  21.487  0.00  0.00     0.091 H 
ATOM     23  O1  non d ame     -36.572   7.072  23.710  0.00  0.00    -0.218 OA
ATOM     24  N1  non d ame     -37.196   8.064  24.303  0.00  0.00    -0.123 NA
BRANCH  21  25
ATOM     25  C3  non d ame     -35.327   6.543  21.582  0.00  0.00    -0.029 C 
ATOM     26  H2  non d ame     -34.741   5.816  22.144  0.00  0.00     0.036 H 
ATOM     27  H3  non d ame     -36.024   6.017  20.929  0.00  0.00     0.036 H 
ATOM     28  H4  non d ame     -34.661   7.160  20.980  0.00  0.00     0.036 H 
ENDBRANCH  21  25
ENDBRANCH  16  19
ENDBRANCH  13  15
BRANCH  13  29
ATOM     29  C8  non d ame     -37.896  12.864  26.616  0.00  0.00    -0.049 C 
ATOM     30  H7  non d ame     -38.169  13.894  26.840  0.00  0.00     0.030 H 
ATOM     31  H8  non d ame     -38.685  12.196  26.962  0.00  0.00     0.030 H 
ATOM     32  H9  non d ame     -36.962  12.617  27.123  0.00  0.00     0.030 H 
ENDBRANCH  13  29
ENDBRANCH  10  13
ENDBRANCH   7   9
BRANCH   7  33
ATOM     33  C11 non d ame     -35.258  16.930  25.913  0.00  0.00    -0.033 C 
ATOM     34  H12 non d ame     -34.316  17.477  25.867  0.00  0.00     0.042 H 
BRANCH  33  35
ATOM     35  C12 non d ame     -36.376  17.877  25.375  0.00  0.00    -0.071 C 
ATOM     36  H13 non d ame     -37.248  17.816  26.027  0.00  0.00     0.028 H 
ATOM     37  H14 non d ame     -36.008  18.902  25.357  0.00  0.00     0.028 H 
ATOM     38  H15 non d ame     -36.656  17.573  24.367  0.00  0.00     0.028 H 
ENDBRANCH  33  35
BRANCH  33  39
ATOM     39  C13 non d ame     -35.516  16.536  27.402  0.00  0.00    -0.071 C 
ATOM     40  H16 non d ame     -35.941  15.533  27.444  0.00  0.00     0.028 H 
ATOM     41  H17 non d ame     -34.574  16.556  27.952  0.00  0.00     0.028 H 
ATOM     42  H18 non d ame     -36.212  17.245  27.850  0.00  0.00     0.028 H 
ENDBRANCH  33  39
ENDBRANCH   7  33
ENDBRANCH   4   7
ENDBRANCH   1   3
BRANCH   1  43
ATOM     43  C15 non d ame     -31.955  12.005  25.952  0.00  0.00     0.240 C 
ATOM     44  O5  non d ame     -31.064  11.381  26.429  0.00  0.00    -0.271 OA
ATOM     45  N6  non d ame     -33.088  11.296  25.292  0.00  0.00    -0.355 N 
ATOM     46  H46 non d ame     -33.853  11.816  24.887  0.00  0.00     0.162 HD
BRANCH  45  47
ATOM     47  C20 non d ame     -33.089   9.818  25.228  0.00  0.00     0.013 C 
ATOM     48  H30 non d ame     -32.154   9.464  25.661  0.00  0.00     0.072 H 
BRANCH  47  49
ATOM     49  C21 non d ame     -33.189   9.381  23.784  0.00  0.00    -0.038 C 
ATOM     50  H31 non d ame     -33.648   8.392  23.807  0.00  0.00     0.036 H 
ATOM     51  H32 non d ame     -33.684  10.200  23.262  0.00  0.00     0.036 H 
BRANCH  49  52
ATOM     52  C22 non d ame     -31.808   9.207  23.113  0.00  0.00     0.018 C 
ATOM     53  H33 non d ame     -31.778   9.939  22.308  0.00  0.00     0.048 H 
ATOM     54  H34 non d ame     -31.080   9.255  23.923  0.00  0.00     0.048 H 
BRANCH  52  55
ATOM     55  C23 non d ame     -31.610   7.821  22.440  0.00  0.00     0.259 C 
ATOM     56  O7  non d ame     -31.813   7.681  21.277  0.00  0.00    -0.265 OA
BRANCH  55  57
ATOM     57  O8  non d ame     -31.195   6.714  23.232  0.00  0.00    -0.317 OA
BRANCH  57  58
ATOM     58  C29 non d ame     -32.211   5.728  23.433  0.00  0.00     0.052 C 
ATOM     59  H47 non d ame     -33.036   6.018  22.783  0.00  0.00     0.082 H 
ATOM     60  H48 non d ame     -31.720   4.765  23.295  0.00  0.00     0.082 H 
BRANCH  58  61
ATOM     61  C35 non d ame     -32.689   5.827  24.907  0.00  0.00    -0.034 A 
ATOM     62  C30 non d ame     -33.988   5.460  25.243  0.00  0.00    -0.075 A 
ATOM     63  C31 non d ame     -34.418   5.550  26.567  0.00  0.00    -0.082 A 
ATOM     64  H49 non d ame     -34.670   5.105  24.471  0.00  0.00     0.084 H 
ATOM     65  C32 non d ame     -33.543   6.009  27.555  0.00  0.00    -0.083 A 
ATOM     66  H50 non d ame     -35.436   5.260  26.828  0.00  0.00     0.083 H 
ATOM     67  C33 non d ame     -32.249   6.377  27.213  0.00  0.00    -0.082 A 
ATOM     68  H51 non d ame     -33.871   6.081  28.593  0.00  0.00     0.083 H 
ATOM     69  C34 non d ame     -31.815   6.288  25.893  0.00  0.00    -0.075 A 
ATOM     70  H52 non d ame     -31.569   6.737  27.987  0.00  0.00     0.083 H 
ATOM     71  H53 non d ame     -30.796   6.577  25.632  0.00  0.00     0.084 H 
ENDBRANCH  58  61
ENDBRANCH  57  58
ENDBRANCH  55  57
ENDBRANCH  52  55
ENDBRANCH  49  52
ENDBRANCH  47  49
BRANCH  47  72
ATOM     72  C24 non d ame     -34.279   9.268  26.011  0.00  0.00    -0.039 C 
ATOM     73  H35 non d ame     -35.150   9.454  25.382  0.00  0.00     0.036 H 
ATOM     74  H36 non d ame     -34.005   8.247  26.276  0.00  0.00     0.036 H 
BRANCH  72  75
ATOM     75  C25 non d ame     -34.506  10.066  27.382  0.00  0.00    -0.001 C 
ATOM     76  C26 non d ame     -33.410   9.576  28.504  0.00  0.00    -0.035 C 
ATOM     77  C27 non d ame     -34.066   9.246  29.642  0.00  0.00     0.085 C 
ATOM     78  H38 non d ame     -32.951   8.637  28.194  0.00  0.00     0.036 H 
ATOM     79  H39 non d ame     -32.782  10.415  28.806  0.00  0.00     0.036 H 
ATOM     80  N5  non d ame     -35.533   9.154  29.293  0.00  0.00    -0.049 N 
ATOM     81  H40 non d ame     -33.702   8.255  29.911  0.00  0.00     0.075 H 
ATOM     82  H41 non d ame     -33.914  10.085  30.319  0.00  0.00     0.075 H 
ATOM     83  C28 non d ame     -35.691   9.861  27.850  0.00  0.00     0.193 C 
ATOM     84  H42 non d ame     -35.742   8.172  29.195  0.00  0.00     0.280 HD
ATOM     85  H43 non d ame     -36.024   9.710  29.980  0.00  0.00     0.280 HD
ATOM     86  H44 non d ame     -36.113  10.863  27.769  0.00  0.00     0.129 H 
ATOM     87  H37 non d ame     -34.606  11.140  27.222  0.00  0.00     0.046 H 
BRANCH  83  88
ATOM     88  O6  non d ame     -36.480   9.042  26.985  0.00  0.00    -0.369 OA
ATOM     89  H45 non d ame     -35.911   8.628  26.330  0.00  0.00     0.212 HD
ENDBRANCH  83  88
ENDBRANCH  72  75
ENDBRANCH  47  72
ENDBRANCH  45  47
ENDBRANCH   1  43
BRANCH   1  90
ATOM     90  C16 non d ame     -31.309  13.999  27.342  0.00  0.00    -0.035 C 
ATOM     91  H21 non d ame     -30.662  13.176  27.641  0.00  0.00     0.037 H 
ATOM     92  H22 non d ame     -30.884  14.983  27.142  0.00  0.00     0.037 H 
BRANCH  90  93
ATOM     93  C17 non d ame     -32.341  14.190  28.499  0.00  0.00    -0.059 C 
ATOM     94  H23 non d ame     -33.339  14.144  28.062  0.00  0.00     0.038 H 
BRANCH  93  95
ATOM     95  C18 non d ame     -32.239  13.060  29.572  0.00  0.00    -0.073 C 
ATOM     96  H24 non d ame     -33.219  12.895  30.021  0.00  0.00     0.028 H 
ATOM     97  H25 non d ame     -31.897  12.140  29.100  0.00  0.00     0.028 H 
ATOM     98  H26 non d ame     -31.531  13.357  30.346  0.00  0.00     0.028 H 
ENDBRANCH  93  95
BRANCH  93  99
ATOM     99  C19 non d ame     -32.190  15.570  29.144  0.00  0.00    -0.073 C 
ATOM    100  H27 non d ame     -31.853  16.287  28.394  0.00  0.00     0.028 H 
ATOM    101  H28 non d ame     -33.150  15.891  29.547  0.00  0.00     0.028 H 
ATOM    102  H29 non d ame     -31.458  15.516  29.950  0.00  0.00     0.028 H 
ENDBRANCH  93  99
ENDBRANCH  90  93
ENDBRANCH   1  90
TORSDOF 26
ENDMDL
MODEL 19
REMARK VINA RESULT:      -6.0      3.511      7.142
REMARK  26 active torsions:
REMARK  status: ('A' for Active; 'I' for Inactive)
REMARK    1  A    between atoms: C2_2  and  C3_3 
REMARK    2  A    between atoms: C4_6  and  C5_7 
REMARK       I    between atoms: C5_7  and  N2_9 
REMARK    3  A    between atoms: N2_9  and  C6_10 
REMARK    4  A    between atoms: C6_10  and  C7_11 
REMARK    5  A    between atoms: C6_10  and  C8_13 
REMARK       I    between atoms: C7_11  and  N3_14 
REMARK    6  A    between atoms: N3_14  and  C9_15 
REMARK    7  A    between atoms: C9_15  and  C10_16 
REMARK    8  A    between atoms: C9_15  and  C11_18 
REMARK       I    between atoms: C10_16  and  N4_21 
REMARK    9  A    between atoms: C11_18  and  C12_19 
REMARK   10  A    between atoms: C11_18  and  C13_20 
REMARK   11  A    between atoms: N4_21  and  C14_22 
REMARK   12  A    between atoms: C14_22  and  C15_23 
REMARK   13  A    between atoms: C14_22  and  C16_25 
REMARK       I    between atoms: C15_23  and  N6_40 
REMARK   14  A    between atoms: C16_25  and  C17_26 
REMARK   15  A    between atoms: C17_26  and  C18_27 
REMARK   16  A    between atoms: C17_26  and  C19_28 
REMARK   17  A    between atoms: C20_29  and  C21_30 
REMARK   18  A    between atoms: C20_29  and  C24_33 
REMARK   19  A    between atoms: C20_29  and  N6_40 
REMARK   20  A    between atoms: C21_30  and  C22_31 
REMARK   21  A    between atoms: C22_31  and  C23_32 
REMARK   22  A    between atoms: C23_32  and  O8_43 
REMARK   23  A    between atoms: C24_33  and  C25_34 
REMARK   24  A    between atoms: C28_38  and  O6_39 
REMARK   25  A    between atoms: C29_42  and  O8_43 
REMARK   26  A    between atoms: C29_42  and  C35_49 
ROOT
ATOM      1  C14 non d ame     -37.687  13.884  25.633  0.00  0.00     0.089 C 
ATOM      2  H20 non d ame     -38.424  13.964  26.432  0.00  0.00     0.087 H 
ENDROOT
BRANCH   1   3
ATOM      3  N4  non d ame     -37.093  15.200  25.452  0.00  0.00    -0.346 N 
ATOM      4  C10 non d ame     -37.452  16.332  26.380  0.00  0.00     0.241 C 
ATOM      5  O4  non d ame     -38.223  16.162  27.266  0.00  0.00    -0.271 OA
ATOM      6  H19 non d ame     -36.441  15.326  24.690  0.00  0.00     0.163 HD
BRANCH   4   7
ATOM      7  C9  non d ame     -36.824  17.687  26.181  0.00  0.00     0.092 C 
ATOM      8  H11 non d ame     -37.152  18.355  26.977  0.00  0.00     0.088 H 
BRANCH   7   9
ATOM      9  N3  non d ame     -35.366  17.571  26.284  0.00  0.00    -0.346 N 
ATOM     10  C7  non d ame     -34.697  17.963  27.500  0.00  0.00     0.240 C 
ATOM     11  O3  non d ame     -35.315  18.375  28.404  0.00  0.00    -0.271 OA
ATOM     12  H10 non d ame     -34.820  17.218  25.512  0.00  0.00     0.163 HD
BRANCH  10  13
ATOM     13  C6  non d ame     -33.145  17.840  27.603  0.00  0.00     0.086 C 
ATOM     14  H6  non d ame     -32.829  17.075  28.312  0.00  0.00     0.086 H 
BRANCH  13  15
ATOM     15  N2  non d ame     -32.615  17.451  26.307  0.00  0.00    -0.343 N 
ATOM     16  C5  non d ame     -31.909  16.176  26.170  0.00  0.00     0.273 C 
ATOM     17  O2  non d ame     -31.769  15.471  27.108  0.00  0.00    -0.266 OA
ATOM     18  H5  non d ame     -32.736  18.061  25.511  0.00  0.00     0.163 HD
BRANCH  16  19
ATOM     19  C4  non d ame     -31.344  15.752  24.805  0.00  0.00     0.154 A 
ATOM     20  C1  non d ame     -31.696  16.278  23.522  0.00  0.00    -0.017 A 
ATOM     21  C2  non d ame     -30.901  15.558  22.603  0.00  0.00     0.077 A 
ATOM     22  H1  non d ame     -32.417  17.063  23.293  0.00  0.00     0.091 H 
ATOM     23  O1  non d ame     -30.180  14.720  23.288  0.00  0.00    -0.218 OA
ATOM     24  N1  non d ame     -30.421  14.814  24.575  0.00  0.00    -0.123 NA
BRANCH  21  25
ATOM     25  C3  non d ame     -30.889  15.732  21.090  0.00  0.00    -0.029 C 
ATOM     26  H2  non d ame     -30.493  14.831  20.624  0.00  0.00     0.036 H 
ATOM     27  H3  non d ame     -31.906  15.905  20.736  0.00  0.00     0.036 H 
ATOM     28  H4  non d ame     -30.264  16.584  20.826  0.00  0.00     0.036 H 
ENDBRANCH  21  25
ENDBRANCH  16  19
ENDBRANCH  13  15
BRANCH  13  29
ATOM     29  C8  non d ame     -32.560  19.164  28.024  0.00  0.00    -0.049 C 
ATOM     30  H7  non d ame     -33.042  19.499  28.942  0.00  0.00     0.030 H 
ATOM     31  H8  non d ame     -31.490  19.051  28.198  0.00  0.00     0.030 H 
ATOM     32  H9  non d ame     -32.725  19.901  27.237  0.00  0.00     0.030 H 
ENDBRANCH  13  29
ENDBRANCH  10  13
ENDBRANCH   7   9
BRANCH   7  33
ATOM     33  C11 non d ame     -37.199  18.229  24.770  0.00  0.00    -0.033 C 
ATOM     34  H12 non d ame     -36.769  17.552  24.032  0.00  0.00     0.042 H 
BRANCH  33  35
ATOM     35  C12 non d ame     -38.745  18.234  24.556  0.00  0.00    -0.071 C 
ATOM     36  H13 non d ame     -39.189  19.048  25.131  0.00  0.00     0.028 H 
ATOM     37  H14 non d ame     -38.966  18.374  23.498  0.00  0.00     0.028 H 
ATOM     38  H15 non d ame     -39.161  17.285  24.893  0.00  0.00     0.028 H 
ENDBRANCH  33  35
BRANCH  33  39
ATOM     39  C13 non d ame     -36.590  19.648  24.536  0.00  0.00    -0.071 C 
ATOM     40  H16 non d ame     -35.546  19.551  24.237  0.00  0.00     0.028 H 
ATOM     41  H17 non d ame     -37.148  20.159  23.750  0.00  0.00     0.028 H 
ATOM     42  H18 non d ame     -36.652  20.227  25.457  0.00  0.00     0.028 H 
ENDBRANCH  33  39
ENDBRANCH   7  33
ENDBRANCH   4   7
ENDBRANCH   1   3
BRANCH   1  43
ATOM     43  C15 non d ame     -36.555  12.873  25.978  0.00  0.00     0.240 C 
ATOM     44  O5  non d ame     -36.300  11.992  25.223  0.00  0.00    -0.271 OA
ATOM     45  N6  non d ame     -35.783  13.010  27.245  0.00  0.00    -0.355 N 
ATOM     46  H46 non d ame     -35.987  13.758  27.893  0.00  0.00     0.162 HD
BRANCH  45  47
ATOM     47  C20 non d ame     -34.710  12.042  27.557  0.00  0.00     0.013 C 
ATOM     48  H30 non d ame     -33.990  12.539  28.208  0.00  0.00     0.072 H 
BRANCH  47  49
ATOM     49  C21 non d ame     -34.036  11.611  26.274  0.00  0.00    -0.038 C 
ATOM     50  H31 non d ame     -33.699  10.588  26.448  0.00  0.00     0.036 H 
ATOM     51  H32 non d ame     -34.754  11.821  25.481  0.00  0.00     0.036 H 
BRANCH  49  52
ATOM     52  C22 non d ame     -32.773  12.439  25.952  0.00  0.00     0.018 C 
ATOM     53  H33 non d ame     -32.733  12.505  24.866  0.00  0.00     0.048 H 
ATOM     54  H34 non d ame     -32.856  13.347  26.551  0.00  0.00     0.048 H 
BRANCH  52  55
ATOM     55  C23 non d ame     -31.448  11.757  26.390  0.00  0.00     0.259 C 
ATOM     56  O7  non d ame     -31.064  11.850  27.511  0.00  0.00    -0.265 OA
BRANCH  55  57
ATOM     57  O8  non d ame     -30.689  11.028  25.432  0.00  0.00    -0.317 OA
BRANCH  57  58
ATOM     58  C29 non d ame     -30.989  11.364  24.074  0.00  0.00     0.052 C 
ATOM     59  H47 non d ame     -31.919  11.932  24.109  0.00  0.00     0.082 H 
ATOM     60  H48 non d ame     -30.084  11.823  23.677  0.00  0.00     0.082 H 
BRANCH  58  61
ATOM     61  C35 non d ame     -31.249  10.044  23.301  0.00  0.00    -0.034 A 
ATOM     62  C30 non d ame     -32.536   9.520  23.232  0.00  0.00    -0.075 A 
ATOM     63  C31 non d ame     -32.770   8.333  22.538  0.00  0.00    -0.082 A 
ATOM     64  H49 non d ame     -33.361  10.037  23.721  0.00  0.00     0.084 H 
ATOM     65  C32 non d ame     -31.710   7.669  21.913  0.00  0.00    -0.083 A 
ATOM     66  H50 non d ame     -33.780   7.925  22.483  0.00  0.00     0.083 H 
ATOM     67  C33 non d ame     -30.428   8.195  21.988  0.00  0.00    -0.082 A 
ATOM     68  H51 non d ame     -31.885   6.741  21.367  0.00  0.00     0.083 H 
ATOM     69  C34 non d ame     -30.190   9.381  22.679  0.00  0.00    -0.075 A 
ATOM     70  H52 non d ame     -29.602   7.673  21.502  0.00  0.00     0.083 H 
ATOM     71  H53 non d ame     -29.180   9.788  22.732  0.00  0.00     0.084 H 
ENDBRANCH  58  61
ENDBRANCH  57  58
ENDBRANCH  55  57
ENDBRANCH  52  55
ENDBRANCH  49  52
ENDBRANCH  47  49
BRANCH  47  72
ATOM     72  C24 non d ame     -35.303  10.822  28.258  0.00  0.00    -0.039 C 
ATOM     73  H35 non d ame     -35.788  11.210  29.154  0.00  0.00     0.036 H 
ATOM     74  H36 non d ame     -35.894  10.310  27.498  0.00  0.00     0.036 H 
BRANCH  72  75
ATOM     75  C25 non d ame     -34.166   9.802  28.739  0.00  0.00    -0.001 C 
ATOM     76  C26 non d ame     -34.488   8.294  28.169  0.00  0.00    -0.035 C 
ATOM     77  C27 non d ame     -34.440   7.417  29.200  0.00  0.00     0.085 C 
ATOM     78  H38 non d ame     -35.523   8.234  27.832  0.00  0.00     0.036 H 
ATOM     79  H39 non d ame     -33.682   7.961  27.514  0.00  0.00     0.036 H 
ATOM     80  N5  non d ame     -34.438   8.232  30.472  0.00  0.00    -0.049 N 
ATOM     81  H40 non d ame     -35.368   6.849  29.143  0.00  0.00     0.075 H 
ATOM     82  H41 non d ame     -33.482   6.907  29.104  0.00  0.00     0.075 H 
ATOM     83  C28 non d ame     -34.103   9.747  30.028  0.00  0.00     0.193 C 
ATOM     84  H42 non d ame     -35.381   8.204  30.830  0.00  0.00     0.280 HD
ATOM     85  H43 non d ame     -33.673   7.884  31.032  0.00  0.00     0.280 HD
ATOM     86  H44 non d ame     -33.109  10.165  30.195  0.00  0.00     0.129 H 
ATOM     87  H37 non d ame     -33.163  10.193  28.569  0.00  0.00     0.046 H 
BRANCH  83  88
ATOM     88  O6  non d ame     -35.011  10.656  30.651  0.00  0.00    -0.369 OA
ATOM     89  H45 non d ame     -35.719  10.163  31.074  0.00  0.00     0.212 HD
ENDBRANCH  83  88
ENDBRANCH  72  75
ENDBRANCH  47  72
ENDBRANCH  45  47
ENDBRANCH   1  43
BRANCH   1  90
ATOM     90  C16 non d ame     -38.371  13.465  24.342  0.00  0.00    -0.035 C 
ATOM     91  H21 non d ame     -37.616  12.916  23.781  0.00  0.00     0.037 H 
ATOM     92  H22 non d ame     -39.290  12.967  24.651  0.00  0.00     0.037 H 
BRANCH  90  93
ATOM     93  C17 non d ame     -38.800  14.667  23.442  0.00  0.00    -0.059 C 
ATOM     94  H23 non d ame     -38.399  15.576  23.891  0.00  0.00     0.038 H 
BRANCH  93  95
ATOM     95  C18 non d ame     -38.223  14.556  21.995  0.00  0.00    -0.073 C 
ATOM     96  H24 non d ame     -38.768  15.230  21.333  0.00  0.00     0.028 H 
ATOM     97  H25 non d ame     -37.168  14.831  22.002  0.00  0.00     0.028 H 
ATOM     98  H26 non d ame     -38.330  13.532  21.638  0.00  0.00     0.028 H 
ENDBRANCH  93  95
BRANCH  93  99
ATOM     99  C19 non d ame     -40.324  14.810  23.410  0.00  0.00    -0.073 C 
ATOM    100  H27 non d ame     -40.772  13.857  23.127  0.00  0.00     0.028 H 
ATOM    101  H28 non d ame     -40.684  15.099  24.398  0.00  0.00     0.028 H 
ATOM    102  H29 non d ame     -40.603  15.573  22.684  0.00  0.00     0.028 H 
ENDBRANCH  93  99
ENDBRANCH  90  93
ENDBRANCH   1  90
TORSDOF 26
ENDMDL
MODEL 20
REMARK VINA RESULT:      -5.9      3.344      9.524
REMARK  26 active torsions:
REMARK  status: ('A' for Active; 'I' for Inactive)
REMARK    1  A    between atoms: C2_2  and  C3_3 
REMARK    2  A    between atoms: C4_6  and  C5_7 
REMARK       I    between atoms: C5_7  and  N2_9 
REMARK    3  A    between atoms: N2_9  and  C6_10 
REMARK    4  A    between atoms: C6_10  and  C7_11 
REMARK    5  A    between atoms: C6_10  and  C8_13 
REMARK       I    between atoms: C7_11  and  N3_14 
REMARK    6  A    between atoms: N3_14  and  C9_15 
REMARK    7  A    between atoms: C9_15  and  C10_16 
REMARK    8  A    between atoms: C9_15  and  C11_18 
REMARK       I    between atoms: C10_16  and  N4_21 
REMARK    9  A    between atoms: C11_18  and  C12_19 
REMARK   10  A    between atoms: C11_18  and  C13_20 
REMARK   11  A    between atoms: N4_21  and  C14_22 
REMARK   12  A    between atoms: C14_22  and  C15_23 
REMARK   13  A    between atoms: C14_22  and  C16_25 
REMARK       I    between atoms: C15_23  and  N6_40 
REMARK   14  A    between atoms: C16_25  and  C17_26 
REMARK   15  A    between atoms: C17_26  and  C18_27 
REMARK   16  A    between atoms: C17_26  and  C19_28 
REMARK   17  A    between atoms: C20_29  and  C21_30 
REMARK   18  A    between atoms: C20_29  and  C24_33 
REMARK   19  A    between atoms: C20_29  and  N6_40 
REMARK   20  A    between atoms: C21_30  and  C22_31 
REMARK   21  A    between atoms: C22_31  and  C23_32 
REMARK   22  A    between atoms: C23_32  and  O8_43 
REMARK   23  A    between atoms: C24_33  and  C25_34 
REMARK   24  A    between atoms: C28_38  and  O6_39 
REMARK   25  A    between atoms: C29_42  and  O8_43 
REMARK   26  A    between atoms: C29_42  and  C35_49 
ROOT
ATOM      1  C14 non d ame     -33.798  11.742  28.308  0.00  0.00     0.089 C 
ATOM      2  H20 non d ame     -34.045  12.211  29.260  0.00  0.00     0.087 H 
ENDROOT
BRANCH   1   3
ATOM      3  N4  non d ame     -34.358  10.398  28.323  0.00  0.00    -0.346 N 
ATOM      4  C10 non d ame     -34.382   9.598  29.601  0.00  0.00     0.241 C 
ATOM      5  O4  non d ame     -33.944  10.056  30.605  0.00  0.00    -0.271 OA
ATOM      6  H19 non d ame     -34.722  10.026  27.458  0.00  0.00     0.163 HD
BRANCH   4   7
ATOM      7  C9  non d ame     -34.969   8.211  29.600  0.00  0.00     0.092 C 
ATOM      8  H11 non d ame     -35.885   8.209  29.010  0.00  0.00     0.088 H 
BRANCH   7   9
ATOM      9  N3  non d ame     -34.034   7.285  28.953  0.00  0.00    -0.346 N 
ATOM     10  C7  non d ame     -34.293   6.820  27.612  0.00  0.00     0.240 C 
ATOM     11  O3  non d ame     -35.249   7.181  27.040  0.00  0.00    -0.271 OA
ATOM     12  H10 non d ame     -33.207   6.965  29.435  0.00  0.00     0.163 HD
BRANCH  10  13
ATOM     13  C6  non d ame     -33.297   5.833  26.930  0.00  0.00     0.086 C 
ATOM     14  H6  non d ame     -33.791   5.140  26.248  0.00  0.00     0.086 H 
BRANCH  13  15
ATOM     15  N2  non d ame     -32.349   6.594  26.134  0.00  0.00    -0.343 N 
ATOM     16  C5  non d ame     -32.612   6.812  24.710  0.00  0.00     0.273 C 
ATOM     17  O2  non d ame     -33.588   6.369  24.213  0.00  0.00    -0.266 OA
ATOM     18  H5  non d ame     -31.515   6.967  26.566  0.00  0.00     0.163 HD
BRANCH  16  19
ATOM     19  C4  non d ame     -31.618   7.616  23.858  0.00  0.00     0.154 A 
ATOM     20  C1  non d ame     -31.522   9.040  23.753  0.00  0.00    -0.017 A 
ATOM     21  C2  non d ame     -30.459   9.267  22.851  0.00  0.00     0.077 A 
ATOM     22  H1  non d ame     -32.131   9.792  24.254  0.00  0.00     0.091 H 
ATOM     23  O1  non d ame     -30.003   8.104  22.488  0.00  0.00    -0.218 OA
ATOM     24  N1  non d ame     -30.664   7.125  23.063  0.00  0.00    -0.123 NA
BRANCH  21  25
ATOM     25  C3  non d ame     -29.940  10.623  22.392  0.00  0.00    -0.029 C 
ATOM     26  H2  non d ame     -29.051  10.483  21.778  0.00  0.00     0.036 H 
ATOM     27  H3  non d ame     -30.709  11.126  21.805  0.00  0.00     0.036 H 
ATOM     28  H4  non d ame     -29.690  11.231  23.260  0.00  0.00     0.036 H 
ENDBRANCH  21  25
ENDBRANCH  16  19
ENDBRANCH  13  15
BRANCH  13  29
ATOM     29  C8  non d ame     -32.568   5.040  27.985  0.00  0.00    -0.049 C 
ATOM     30  H7  non d ame     -32.690   3.976  27.789  0.00  0.00     0.030 H 
ATOM     31  H8  non d ame     -31.509   5.294  27.963  0.00  0.00     0.030 H 
ATOM     32  H9  non d ame     -32.980   5.278  28.967  0.00  0.00     0.030 H 
ENDBRANCH  13  29
ENDBRANCH  10  13
ENDBRANCH   7   9
BRANCH   7  33
ATOM     33  C11 non d ame     -35.216   7.752  31.068  0.00  0.00    -0.033 C 
ATOM     34  H12 non d ame     -34.454   8.220  31.691  0.00  0.00     0.042 H 
BRANCH  33  35
ATOM     35  C12 non d ame     -36.606   8.234  31.587  0.00  0.00    -0.071 C 
ATOM     36  H13 non d ame     -37.000   8.998  30.915  0.00  0.00     0.028 H 
ATOM     37  H14 non d ame     -37.295   7.390  31.620  0.00  0.00     0.028 H 
ATOM     38  H15 non d ame     -36.495   8.654  32.587  0.00  0.00     0.028 H 
ENDBRANCH  33  35
BRANCH  33  39
ATOM     39  C13 non d ame     -35.066   6.203  31.202  0.00  0.00    -0.071 C 
ATOM     40  H16 non d ame     -35.114   5.923  32.254  0.00  0.00     0.028 H 
ATOM     41  H17 non d ame     -35.873   5.711  30.657  0.00  0.00     0.028 H 
ATOM     42  H18 non d ame     -34.108   5.893  30.787  0.00  0.00     0.028 H 
ENDBRANCH  33  39
ENDBRANCH   7  33
ENDBRANCH   4   7
ENDBRANCH   1   3
BRANCH   1  43
ATOM     43  C15 non d ame     -34.401  12.515  27.099  0.00  0.00     0.240 C 
ATOM     44  O5  non d ame     -34.537  11.965  26.054  0.00  0.00    -0.271 OA
ATOM     45  N6  non d ame     -34.819  13.938  27.248  0.00  0.00    -0.355 N 
ATOM     46  H46 non d ame     -34.713  14.414  28.132  0.00  0.00     0.162 HD
BRANCH  45  47
ATOM     47  C20 non d ame     -35.391  14.658  26.090  0.00  0.00     0.013 C 
ATOM     48  H30 non d ame     -35.585  13.928  25.304  0.00  0.00     0.072 H 
BRANCH  47  49
ATOM     49  C21 non d ame     -34.400  15.691  25.604  0.00  0.00    -0.038 C 
ATOM     50  H31 non d ame     -33.896  15.237  24.750  0.00  0.00     0.036 H 
ATOM     51  H32 non d ame     -34.973  16.610  25.473  0.00  0.00     0.036 H 
BRANCH  49  52
ATOM     52  C22 non d ame     -33.303  16.005  26.644  0.00  0.00     0.018 C 
ATOM     53  H33 non d ame     -33.803  16.543  27.447  0.00  0.00     0.048 H 
ATOM     54  H34 non d ame     -32.810  15.055  26.848  0.00  0.00     0.048 H 
BRANCH  52  55
ATOM     55  C23 non d ame     -32.194  16.958  26.116  0.00  0.00     0.259 C 
ATOM     56  O7  non d ame     -31.346  16.551  25.389  0.00  0.00    -0.265 OA
BRANCH  55  57
ATOM     57  O8  non d ame     -32.195  18.321  26.523  0.00  0.00    -0.317 OA
BRANCH  57  58
ATOM     58  C29 non d ame     -32.973  19.179  25.682  0.00  0.00     0.052 C 
ATOM     59  H47 non d ame     -32.425  20.120  25.634  0.00  0.00     0.082 H 
ATOM     60  H48 non d ame     -33.161  18.610  24.773  0.00  0.00     0.082 H 
BRANCH  58  61
ATOM     61  C35 non d ame     -34.331  19.437  26.388  0.00  0.00    -0.034 A 
ATOM     62  C30 non d ame     -34.402  19.447  27.778  0.00  0.00    -0.075 A 
ATOM     63  C31 non d ame     -35.622  19.678  28.413  0.00  0.00    -0.082 A 
ATOM     64  H49 non d ame     -33.503  19.272  28.370  0.00  0.00     0.084 H 
ATOM     65  C32 non d ame     -36.773  19.899  27.652  0.00  0.00    -0.083 A 
ATOM     66  H50 non d ame     -35.674  19.687  29.502  0.00  0.00     0.083 H 
ATOM     67  C33 non d ame     -36.697  19.884  26.266  0.00  0.00    -0.082 A 
ATOM     68  H51 non d ame     -37.731  20.081  28.141  0.00  0.00     0.083 H 
ATOM     69  C34 non d ame     -35.481  19.655  25.628  0.00  0.00    -0.075 A 
ATOM     70  H52 non d ame     -37.599  20.055  25.675  0.00  0.00     0.083 H 
ATOM     71  H53 non d ame     -35.429  19.647  24.539  0.00  0.00     0.084 H 
ENDBRANCH  58  61
ENDBRANCH  57  58
ENDBRANCH  55  57
ENDBRANCH  52  55
ENDBRANCH  49  52
ENDBRANCH  47  49
BRANCH  47  72
ATOM     72  C24 non d ame     -36.689  15.350  26.502  0.00  0.00    -0.039 C 
ATOM     73  H35 non d ame     -36.818  15.116  27.560  0.00  0.00     0.036 H 
ATOM     74  H36 non d ame     -36.579  16.387  26.184  0.00  0.00     0.036 H 
BRANCH  72  75
ATOM     75  C25 non d ame     -37.954  14.748  25.727  0.00  0.00    -0.001 C 
ATOM     76  C26 non d ame     -37.487  13.476  24.796  0.00  0.00    -0.035 C 
ATOM     77  C27 non d ame     -37.946  13.665  23.535  0.00  0.00     0.085 C 
ATOM     78  H38 non d ame     -36.404  13.478  24.675  0.00  0.00     0.036 H 
ATOM     79  H39 non d ame     -37.997  12.568  25.119  0.00  0.00     0.036 H 
ATOM     80  N5  non d ame     -38.401  15.102  23.443  0.00  0.00    -0.049 N 
ATOM     81  H40 non d ame     -37.082  13.522  22.887  0.00  0.00     0.075 H 
ATOM     82  H41 non d ame     -38.812  13.011  23.440  0.00  0.00     0.075 H 
ATOM     83  C28 non d ame     -38.499  15.636  24.963  0.00  0.00     0.193 C 
ATOM     84  H42 non d ame     -37.664  15.605  22.972  0.00  0.00     0.280 HD
ATOM     85  H43 non d ame     -39.331  15.081  23.048  0.00  0.00     0.280 HD
ATOM     86  H44 non d ame     -39.469  15.746  25.449  0.00  0.00     0.129 H 
ATOM     87  H37 non d ame     -38.807  14.593  26.386  0.00  0.00     0.046 H 
BRANCH  83  88
ATOM     88  O6  non d ame     -37.865  16.910  25.079  0.00  0.00    -0.369 OA
ATOM     89  H45 non d ame     -38.158  17.481  24.364  0.00  0.00     0.212 HD
ENDBRANCH  83  88
ENDBRANCH  72  75
ENDBRANCH  47  72
ENDBRANCH  45  47
ENDBRANCH   1  43
BRANCH   1  90
ATOM     90  C16 non d ame     -32.289  11.651  28.154  0.00  0.00    -0.035 C 
ATOM     91  H21 non d ame     -31.914  11.387  29.141  0.00  0.00     0.037 H 
ATOM     92  H22 non d ame     -32.125  10.979  27.310  0.00  0.00     0.037 H 
BRANCH  90  93
ATOM     93  C17 non d ame     -31.615  13.008  27.775  0.00  0.00    -0.059 C 
ATOM     94  H23 non d ame     -32.386  13.778  27.804  0.00  0.00     0.038 H 
BRANCH  93  95
ATOM     95  C18 non d ame     -30.498  13.415  28.788  0.00  0.00    -0.073 C 
ATOM     96  H24 non d ame     -30.362  14.496  28.766  0.00  0.00     0.028 H 
ATOM     97  H25 non d ame     -30.789  13.108  29.793  0.00  0.00     0.028 H 
ATOM     98  H26 non d ame     -29.563  12.925  28.515  0.00  0.00     0.028 H 
ENDBRANCH  93  95
BRANCH  93  99
ATOM     99  C19 non d ame     -31.066  12.967  26.347  0.00  0.00    -0.073 C 
ATOM    100  H27 non d ame     -31.094  11.941  25.977  0.00  0.00     0.028 H 
ATOM    101  H28 non d ame     -31.676  13.601  25.703  0.00  0.00     0.028 H 
ATOM    102  H29 non d ame     -30.037  13.327  26.342  0.00  0.00     0.028 H 
ENDBRANCH  93  99
ENDBRANCH  90  93
ENDBRANCH   1  90
TORSDOF 26
ENDMDL
