MODEL 1
REMARK VINA RESULT:      -7.0      0.000      0.000
REMARK  26 active torsions:
REMARK  status: ('A' for Active; 'I' for Inactive)
REMARK    1  A    between atoms: C2_2  and  C3_3 
REMARK    2  A    between atoms: C4_6  and  C5_7 
REMARK       I    between atoms: C5_7  and  N2_9 
REMARK    3  A    between atoms: N2_9  and  C6_10 
REMARK    4  A    between atoms: C6_10  and  C7_11 
REMARK    5  A    between atoms: C6_10  and  C8_13 
REMARK       I    between atoms: C7_11  and  N3_14 
REMARK    6  A    between atoms: N3_14  and  C9_15 
REMARK    7  A    between atoms: C9_15  and  C10_16 
REMARK    8  A    between atoms: C9_15  and  C11_18 
REMARK       I    between atoms: C10_16  and  N4_21 
REMARK    9  A    between atoms: C11_18  and  C12_19 
REMARK   10  A    between atoms: C11_18  and  C13_20 
REMARK   11  A    between atoms: N4_21  and  C14_22 
REMARK   12  A    between atoms: C14_22  and  C15_23 
REMARK   13  A    between atoms: C14_22  and  C16_25 
REMARK       I    between atoms: C15_23  and  N6_40 
REMARK   14  A    between atoms: C16_25  and  C17_26 
REMARK   15  A    between atoms: C17_26  and  C18_27 
REMARK   16  A    between atoms: C17_26  and  C19_28 
REMARK   17  A    between atoms: C20_29  and  C21_30 
REMARK   18  A    between atoms: C20_29  and  C24_33 
REMARK   19  A    between atoms: C20_29  and  N6_40 
REMARK   20  A    between atoms: C21_30  and  C22_31 
REMARK   21  A    between atoms: C22_31  and  C23_32 
REMARK   22  A    between atoms: C23_32  and  O8_43 
REMARK   23  A    between atoms: C24_33  and  C25_34 
REMARK   24  A    between atoms: C28_38  and  O6_39 
REMARK   25  A    between atoms: C29_42  and  O8_43 
REMARK   26  A    between atoms: C29_42  and  C35_49 
ROOT
ATOM      1  C14 non d ame     -33.172  10.736  25.856  0.00  0.00     0.089 C 
ATOM      2  H20 non d ame     -33.960  10.751  25.102  0.00  0.00     0.087 H 
ENDROOT
BRANCH   1   3
ATOM      3  N4  non d ame     -32.539   9.426  25.801  0.00  0.00    -0.346 N 
ATOM      4  C10 non d ame     -33.132   8.329  24.956  0.00  0.00     0.241 C 
ATOM      5  O4  non d ame     -34.121   8.521  24.328  0.00  0.00    -0.271 OA
ATOM      6  H19 non d ame     -31.700   9.282  26.345  0.00  0.00     0.163 HD
BRANCH   4   7
ATOM      7  C9  non d ame     -32.462   6.980  24.907  0.00  0.00     0.092 C 
ATOM      8  H11 non d ame     -31.424   7.085  25.222  0.00  0.00     0.088 H 
BRANCH   7   9
ATOM      9  N3  non d ame     -33.114   6.076  25.859  0.00  0.00    -0.346 N 
ATOM     10  C7  non d ame     -32.682   6.043  27.234  0.00  0.00     0.240 C 
ATOM     11  O3  non d ame     -31.810   6.738  27.593  0.00  0.00    -0.271 OA
ATOM     12  H10 non d ame     -33.866   5.469  25.564  0.00  0.00     0.163 HD
BRANCH  10  13
ATOM     13  C6  non d ame     -33.377   5.076  28.242  0.00  0.00     0.086 C 
ATOM     14  H6  non d ame     -32.771   4.881  29.126  0.00  0.00     0.086 H 
BRANCH  13  15
ATOM     15  N2  non d ame     -34.609   5.689  28.710  0.00  0.00    -0.343 N 
ATOM     16  C5  non d ame     -34.968   5.596  30.127  0.00  0.00     0.273 C 
ATOM     17  O2  non d ame     -34.261   5.023  30.881  0.00  0.00    -0.266 OA
ATOM     18  H5  non d ame     -35.209   6.174  28.058  0.00  0.00     0.163 HD
BRANCH  16  19
ATOM     19  C4  non d ame     -36.268   6.240  30.636  0.00  0.00     0.154 A 
ATOM     20  C1  non d ame     -36.585   7.634  30.672  0.00  0.00    -0.017 A 
ATOM     21  C2  non d ame     -37.884   7.697  31.222  0.00  0.00     0.077 A 
ATOM     22  H1  non d ame     -35.967   8.472  30.347  0.00  0.00     0.091 H 
ATOM     23  O1  non d ame     -38.260   6.477  31.469  0.00  0.00    -0.218 OA
ATOM     24  N1  non d ame     -37.333   5.608  31.135  0.00  0.00    -0.123 NA
BRANCH  21  25
ATOM     25  C3  non d ame     -38.695   8.960  31.478  0.00  0.00    -0.029 C 
ATOM     26  H2  non d ame     -38.277   9.784  30.901  0.00  0.00     0.036 H 
ATOM     27  H3  non d ame     -39.730   8.796  31.176  0.00  0.00     0.036 H 
ATOM     28  H4  non d ame     -38.662   9.206  32.539  0.00  0.00     0.036 H 
ENDBRANCH  21  25
ENDBRANCH  16  19
ENDBRANCH  13  15
BRANCH  13  29
ATOM     29  C8  non d ame     -33.678   3.767  27.559  0.00  0.00    -0.049 C 
ATOM     30  H7  non d ame     -33.811   3.935  26.491  0.00  0.00     0.030 H 
ATOM     31  H8  non d ame     -32.851   3.075  27.717  0.00  0.00     0.030 H 
ATOM     32  H9  non d ame     -34.592   3.341  27.976  0.00  0.00     0.030 H 
ENDBRANCH  13  29
ENDBRANCH  10  13
ENDBRANCH   7   9
BRANCH   7  33
ATOM     33  C11 non d ame     -32.583   6.392  23.471  0.00  0.00    -0.033 C 
ATOM     34  H12 non d ame     -33.343   6.969  22.943  0.00  0.00     0.042 H 
BRANCH  33  35
ATOM     35  C12 non d ame     -31.246   6.544  22.680  0.00  0.00    -0.071 C 
ATOM     36  H13 non d ame     -31.053   7.600  22.492  0.00  0.00     0.028 H 
ATOM     37  H14 non d ame     -30.428   6.123  23.265  0.00  0.00     0.028 H 
ATOM     38  H15 non d ame     -31.324   6.016  21.730  0.00  0.00     0.028 H 
ENDBRANCH  33  35
BRANCH  33  39
ATOM     39  C13 non d ame     -33.050   4.903  23.514  0.00  0.00    -0.071 C 
ATOM     40  H16 non d ame     -33.992   4.832  24.059  0.00  0.00     0.028 H 
ATOM     41  H17 non d ame     -33.190   4.535  22.496  0.00  0.00     0.028 H 
ATOM     42  H18 non d ame     -32.294   4.299  24.015  0.00  0.00     0.028 H 
ENDBRANCH  33  39
ENDBRANCH   7  33
ENDBRANCH   4   7
ENDBRANCH   1   3
BRANCH   1  43
ATOM     43  C15 non d ame     -32.088  11.821  25.593  0.00  0.00     0.240 C 
ATOM     44  O5  non d ame     -30.941  11.565  25.769  0.00  0.00    -0.271 OA
ATOM     45  N6  non d ame     -32.479  13.176  25.111  0.00  0.00    -0.355 N 
ATOM     46  H46 non d ame     -33.450  13.404  24.953  0.00  0.00     0.162 HD
BRANCH  45  47
ATOM     47  C20 non d ame     -31.436  14.196  24.865  0.00  0.00     0.013 C 
ATOM     48  H30 non d ame     -30.477  13.683  24.794  0.00  0.00     0.072 H 
BRANCH  47  49
ATOM     49  C21 non d ame     -31.414  15.177  26.016  0.00  0.00    -0.038 C 
ATOM     50  H31 non d ame     -31.334  14.570  26.918  0.00  0.00     0.036 H 
ATOM     51  H32 non d ame     -30.634  15.898  25.772  0.00  0.00     0.036 H 
BRANCH  49  52
ATOM     52  C22 non d ame     -32.727  15.980  26.143  0.00  0.00     0.018 C 
ATOM     53  H33 non d ame     -32.431  17.028  26.161  0.00  0.00     0.048 H 
ATOM     54  H34 non d ame     -33.377  15.610  25.350  0.00  0.00     0.048 H 
BRANCH  52  55
ATOM     55  C23 non d ame     -33.489  15.728  27.474  0.00  0.00     0.259 C 
ATOM     56  O7  non d ame     -33.754  14.620  27.815  0.00  0.00    -0.265 OA
BRANCH  55  57
ATOM     57  O8  non d ame     -33.879  16.837  28.275  0.00  0.00    -0.317 OA
BRANCH  57  58
ATOM     58  C29 non d ame     -33.366  18.093  27.821  0.00  0.00     0.052 C 
ATOM     59  H47 non d ame     -32.923  18.564  28.697  0.00  0.00     0.082 H 
ATOM     60  H48 non d ame     -32.748  17.863  26.953  0.00  0.00     0.082 H 
BRANCH  58  61
ATOM     61  C35 non d ame     -34.567  18.958  27.351  0.00  0.00    -0.034 A 
ATOM     62  C30 non d ame     -35.312  19.677  28.281  0.00  0.00    -0.075 A 
ATOM     63  C31 non d ame     -36.390  20.454  27.860  0.00  0.00    -0.082 A 
ATOM     64  H49 non d ame     -35.052  19.632  29.339  0.00  0.00     0.084 H 
ATOM     65  C32 non d ame     -36.724  20.509  26.504  0.00  0.00    -0.083 A 
ATOM     66  H50 non d ame     -36.971  21.018  28.591  0.00  0.00     0.083 H 
ATOM     67  C33 non d ame     -35.980  19.786  25.581  0.00  0.00    -0.082 A 
ATOM     68  H51 non d ame     -37.565  21.115  26.166  0.00  0.00     0.083 H 
ATOM     69  C34 non d ame     -34.900  19.010  25.997  0.00  0.00    -0.075 A 
ATOM     70  H52 non d ame     -36.244  19.829  24.524  0.00  0.00     0.083 H 
ATOM     71  H53 non d ame     -34.319  18.447  25.266  0.00  0.00     0.084 H 
ENDBRANCH  58  61
ENDBRANCH  57  58
ENDBRANCH  55  57
ENDBRANCH  52  55
ENDBRANCH  49  52
ENDBRANCH  47  49
BRANCH  47  72
ATOM     72  C24 non d ame     -31.738  14.939  23.566  0.00  0.00    -0.039 C 
ATOM     73  H35 non d ame     -32.720  14.585  23.251  0.00  0.00     0.036 H 
ATOM     74  H36 non d ame     -31.586  15.994  23.793  0.00  0.00     0.036 H 
BRANCH  72  75
ATOM     75  C25 non d ame     -30.702  14.552  22.407  0.00  0.00    -0.001 C 
ATOM     76  C26 non d ame     -29.266  14.100  23.068  0.00  0.00    -0.035 C 
ATOM     77  C27 non d ame     -28.271  14.803  22.475  0.00  0.00     0.085 C 
ATOM     78  H38 non d ame     -29.216  14.418  24.109  0.00  0.00     0.036 H 
ATOM     79  H39 non d ame     -29.040  13.066  22.803  0.00  0.00     0.036 H 
ATOM     80  N5  non d ame     -28.924  15.925  21.704  0.00  0.00    -0.049 N 
ATOM     81  H40 non d ame     -27.686  15.225  23.292  0.00  0.00     0.075 H 
ATOM     82  H41 non d ame     -27.806  14.113  21.773  0.00  0.00     0.075 H 
ATOM     83  C28 non d ame     -30.491  15.550  21.616  0.00  0.00     0.193 C 
ATOM     84  H42 non d ame     -28.823  16.756  22.268  0.00  0.00     0.280 HD
ATOM     85  H43 non d ame     -28.533  15.896  20.773  0.00  0.00     0.280 HD
ATOM     86  H44 non d ame     -30.916  15.161  20.690  0.00  0.00     0.129 H 
ATOM     87  H37 non d ame     -31.140  13.882  21.668  0.00  0.00     0.046 H 
BRANCH  83  88
ATOM     88  O6  non d ame     -31.290  16.685  21.956  0.00  0.00    -0.369 OA
ATOM     89  H45 non d ame     -31.368  16.747  22.911  0.00  0.00     0.212 HD
ENDBRANCH  83  88
ENDBRANCH  72  75
ENDBRANCH  47  72
ENDBRANCH  45  47
ENDBRANCH   1  43
BRANCH   1  90
ATOM     90  C16 non d ame     -33.775  10.940  27.236  0.00  0.00    -0.035 C 
ATOM     91  H21 non d ame     -33.777  12.018  27.393  0.00  0.00     0.037 H 
ATOM     92  H22 non d ame     -34.715  10.388  27.225  0.00  0.00     0.037 H 
BRANCH  90  93
ATOM     93  C17 non d ame     -32.917  10.329  28.390  0.00  0.00    -0.059 C 
ATOM     94  H23 non d ame     -32.077   9.805  27.935  0.00  0.00     0.038 H 
BRANCH  93  95
ATOM     95  C18 non d ame     -32.336  11.427  29.337  0.00  0.00    -0.073 C 
ATOM     96  H24 non d ame     -33.090  12.196  29.510  0.00  0.00     0.028 H 
ATOM     97  H25 non d ame     -32.057  10.975  30.289  0.00  0.00     0.028 H 
ATOM     98  H26 non d ame     -31.457  11.876  28.877  0.00  0.00     0.028 H 
ENDBRANCH  93  95
BRANCH  93  99
ATOM     99  C19 non d ame     -33.723   9.297  29.183  0.00  0.00    -0.073 C 
ATOM    100  H27 non d ame     -33.254   8.317  29.086  0.00  0.00     0.028 H 
ATOM    101  H28 non d ame     -33.749   9.584  30.235  0.00  0.00     0.028 H 
ATOM    102  H29 non d ame     -34.740   9.253  28.794  0.00  0.00     0.028 H 
ENDBRANCH  93  99
ENDBRANCH  90  93
ENDBRANCH   1  90
TORSDOF 26
ENDMDL
MODEL 2
REMARK VINA RESULT:      -6.9      2.733      5.351
REMARK  26 active torsions:
REMARK  status: ('A' for Active; 'I' for Inactive)
REMARK    1  A    between atoms: C2_2  and  C3_3 
REMARK    2  A    between atoms: C4_6  and  C5_7 
REMARK       I    between atoms: C5_7  and  N2_9 
REMARK    3  A    between atoms: N2_9  and  C6_10 
REMARK    4  A    between atoms: C6_10  and  C7_11 
REMARK    5  A    between atoms: C6_10  and  C8_13 
REMARK       I    between atoms: C7_11  and  N3_14 
REMARK    6  A    between atoms: N3_14  and  C9_15 
REMARK    7  A    between atoms: C9_15  and  C10_16 
REMARK    8  A    between atoms: C9_15  and  C11_18 
REMARK       I    between atoms: C10_16  and  N4_21 
REMARK    9  A    between atoms: C11_18  and  C12_19 
REMARK   10  A    between atoms: C11_18  and  C13_20 
REMARK   11  A    between atoms: N4_21  and  C14_22 
REMARK   12  A    between atoms: C14_22  and  C15_23 
REMARK   13  A    between atoms: C14_22  and  C16_25 
REMARK       I    between atoms: C15_23  and  N6_40 
REMARK   14  A    between atoms: C16_25  and  C17_26 
REMARK   15  A    between atoms: C17_26  and  C18_27 
REMARK   16  A    between atoms: C17_26  and  C19_28 
REMARK   17  A    between atoms: C20_29  and  C21_30 
REMARK   18  A    between atoms: C20_29  and  C24_33 
REMARK   19  A    between atoms: C20_29  and  N6_40 
REMARK   20  A    between atoms: C21_30  and  C22_31 
REMARK   21  A    between atoms: C22_31  and  C23_32 
REMARK   22  A    between atoms: C23_32  and  O8_43 
REMARK   23  A    between atoms: C24_33  and  C25_34 
REMARK   24  A    between atoms: C28_38  and  O6_39 
REMARK   25  A    between atoms: C29_42  and  O8_43 
REMARK   26  A    between atoms: C29_42  and  C35_49 
ROOT
ATOM      1  C14 non d ame     -32.634   8.713  24.808  0.00  0.00     0.089 C 
ATOM      2  H20 non d ame     -31.588   8.412  24.877  0.00  0.00     0.087 H 
ENDROOT
BRANCH   1   3
ATOM      3  N4  non d ame     -33.447   7.517  24.971  0.00  0.00    -0.346 N 
ATOM      4  C10 non d ame     -32.795   6.185  25.244  0.00  0.00     0.241 C 
ATOM      5  O4  non d ame     -31.614   6.099  25.327  0.00  0.00    -0.271 OA
ATOM      6  H19 non d ame     -34.449   7.610  24.894  0.00  0.00     0.163 HD
BRANCH   4   7
ATOM      7  C9  non d ame     -33.652   4.957  25.415  0.00  0.00     0.092 C 
ATOM      8  H11 non d ame     -33.111   4.223  26.010  0.00  0.00     0.088 H 
BRANCH   7   9
ATOM      9  N3  non d ame     -34.867   5.308  26.157  0.00  0.00    -0.346 N 
ATOM     10  C7  non d ame     -34.987   4.955  27.550  0.00  0.00     0.240 C 
ATOM     11  O3  non d ame     -34.116   4.388  28.089  0.00  0.00    -0.271 OA
ATOM     12  H10 non d ame     -35.626   5.795  25.704  0.00  0.00     0.163 HD
BRANCH  10  13
ATOM     13  C6  non d ame     -36.283   5.327  28.334  0.00  0.00     0.086 C 
ATOM     14  H6  non d ame     -36.548   4.586  29.087  0.00  0.00     0.086 H 
BRANCH  13  15
ATOM     15  N2  non d ame     -36.064   6.578  29.041  0.00  0.00    -0.343 N 
ATOM     16  C5  non d ame     -35.734   6.552  30.468  0.00  0.00     0.273 C 
ATOM     17  O2  non d ame     -35.650   5.520  31.038  0.00  0.00    -0.266 OA
ATOM     18  H5  non d ame     -36.140   7.455  28.547  0.00  0.00     0.163 HD
BRANCH  16  19
ATOM     19  C4  non d ame     -35.499   7.867  31.228  0.00  0.00     0.154 A 
ATOM     20  C1  non d ame     -36.323   9.036  31.209  0.00  0.00    -0.017 A 
ATOM     21  C2  non d ame     -35.673   9.952  32.064  0.00  0.00     0.077 A 
ATOM     22  H1  non d ame     -37.251   9.194  30.659  0.00  0.00     0.091 H 
ATOM     23  O1  non d ame     -34.603   9.369  32.518  0.00  0.00    -0.218 OA
ATOM     24  N1  non d ame     -34.480   8.150  32.043  0.00  0.00    -0.123 NA
BRANCH  21  25
ATOM     25  C3  non d ame     -36.141  11.363  32.396  0.00  0.00    -0.029 C 
ATOM     26  H2  non d ame     -36.103  11.980  31.499  0.00  0.00     0.036 H 
ATOM     27  H3  non d ame     -37.165  11.329  32.768  0.00  0.00     0.036 H 
ATOM     28  H4  non d ame     -35.492  11.792  33.160  0.00  0.00     0.036 H 
ENDBRANCH  21  25
ENDBRANCH  16  19
ENDBRANCH  13  15
BRANCH  13  29
ATOM     29  C8  non d ame     -37.432   5.474  27.370  0.00  0.00    -0.049 C 
ATOM     30  H7  non d ame     -37.918   6.436  27.525  0.00  0.00     0.030 H 
ATOM     31  H8  non d ame     -37.059   5.418  26.347  0.00  0.00     0.030 H 
ATOM     32  H9  non d ame     -38.153   4.672  27.538  0.00  0.00     0.030 H 
ENDBRANCH  13  29
ENDBRANCH  10  13
ENDBRANCH   7   9
BRANCH   7  33
ATOM     33  C11 non d ame     -34.046   4.402  24.014  0.00  0.00    -0.033 C 
ATOM     34  H12 non d ame     -34.970   4.894  23.713  0.00  0.00     0.042 H 
BRANCH  33  35
ATOM     35  C12 non d ame     -32.963   4.744  22.943  0.00  0.00    -0.071 C 
ATOM     36  H13 non d ame     -33.009   4.014  22.135  0.00  0.00     0.028 H 
ATOM     37  H14 non d ame     -33.147   5.741  22.544  0.00  0.00     0.028 H 
ATOM     38  H15 non d ame     -31.975   4.713  23.403  0.00  0.00     0.028 H 
ENDBRANCH  33  35
BRANCH  33  39
ATOM     39  C13 non d ame     -34.315   2.865  24.078  0.00  0.00    -0.071 C 
ATOM     40  H16 non d ame     -33.367   2.333  24.169  0.00  0.00     0.028 H 
ATOM     41  H17 non d ame     -34.943   2.640  24.940  0.00  0.00     0.028 H 
ATOM     42  H18 non d ame     -34.823   2.546  23.168  0.00  0.00     0.028 H 
ENDBRANCH  33  39
ENDBRANCH   7  33
ENDBRANCH   4   7
ENDBRANCH   1   3
BRANCH   1  43
ATOM     43  C15 non d ame     -33.025   9.732  25.918  0.00  0.00     0.240 C 
ATOM     44  O5  non d ame     -33.495   9.343  26.938  0.00  0.00    -0.271 OA
ATOM     45  N6  non d ame     -32.803  11.191  25.713  0.00  0.00    -0.355 N 
ATOM     46  H46 non d ame     -32.400  11.533  24.852  0.00  0.00     0.162 HD
BRANCH  45  47
ATOM     47  C20 non d ame     -33.179  12.146  26.778  0.00  0.00     0.013 C 
ATOM     48  H30 non d ame     -33.771  11.607  27.517  0.00  0.00     0.072 H 
BRANCH  47  49
ATOM     49  C21 non d ame     -33.997  13.268  26.178  0.00  0.00    -0.038 C 
ATOM     50  H31 non d ame     -33.965  13.111  25.100  0.00  0.00     0.036 H 
ATOM     51  H32 non d ame     -34.952  13.248  26.704  0.00  0.00     0.036 H 
BRANCH  49  52
ATOM     52  C22 non d ame     -33.384  14.661  26.437  0.00  0.00     0.018 C 
ATOM     53  H33 non d ame     -33.901  15.053  27.312  0.00  0.00     0.048 H 
ATOM     54  H34 non d ame     -32.305  14.508  26.464  0.00  0.00     0.048 H 
BRANCH  52  55
ATOM     55  C23 non d ame     -33.644  15.681  25.294  0.00  0.00     0.259 C 
ATOM     56  O7  non d ame     -34.749  16.041  25.046  0.00  0.00    -0.265 OA
BRANCH  55  57
ATOM     57  O8  non d ame     -32.545  16.173  24.536  0.00  0.00    -0.317 OA
BRANCH  57  58
ATOM     58  C29 non d ame     -31.267  15.747  25.018  0.00  0.00     0.052 C 
ATOM     59  H47 non d ame     -30.681  16.657  25.144  0.00  0.00     0.082 H 
ATOM     60  H48 non d ame     -31.473  15.107  25.875  0.00  0.00     0.082 H 
BRANCH  58  61
ATOM     61  C35 non d ame     -30.602  14.885  23.912  0.00  0.00    -0.034 A 
ATOM     62  C30 non d ame     -29.779  15.484  22.963  0.00  0.00    -0.075 A 
ATOM     63  C31 non d ame     -29.182  14.710  21.969  0.00  0.00    -0.082 A 
ATOM     64  H49 non d ame     -29.603  16.559  22.996  0.00  0.00     0.084 H 
ATOM     65  C32 non d ame     -29.410  13.332  21.925  0.00  0.00    -0.083 A 
ATOM     66  H50 non d ame     -28.535  15.182  21.227  0.00  0.00     0.083 H 
ATOM     67  C33 non d ame     -30.235  12.740  22.872  0.00  0.00    -0.082 A 
ATOM     68  H51 non d ame     -28.946  12.719  21.151  0.00  0.00     0.083 H 
ATOM     69  C34 non d ame     -30.833  13.509  23.868  0.00  0.00    -0.075 A 
ATOM     70  H52 non d ame     -30.414  11.664  22.833  0.00  0.00     0.083 H 
ATOM     71  H53 non d ame     -31.478  13.036  24.609  0.00  0.00     0.084 H 
ENDBRANCH  58  61
ENDBRANCH  57  58
ENDBRANCH  55  57
ENDBRANCH  52  55
ENDBRANCH  49  52
ENDBRANCH  47  49
BRANCH  47  72
ATOM     72  C24 non d ame     -31.920  12.721  27.423  0.00  0.00    -0.039 C 
ATOM     73  H35 non d ame     -31.129  12.589  26.684  0.00  0.00     0.036 H 
ATOM     74  H36 non d ame     -32.195  13.723  27.754  0.00  0.00     0.036 H 
BRANCH  72  75
ATOM     75  C25 non d ame     -31.491  11.894  28.726  0.00  0.00    -0.001 C 
ATOM     76  C26 non d ame     -32.827  11.468  29.583  0.00  0.00    -0.035 C 
ATOM     77  C27 non d ame     -32.657  11.842  30.874  0.00  0.00     0.085 C 
ATOM     78  H38 non d ame     -33.685  12.057  29.259  0.00  0.00     0.036 H 
ATOM     79  H39 non d ame     -32.904  10.381  29.642  0.00  0.00     0.036 H 
ATOM     80  N5  non d ame     -31.470  12.775  30.909  0.00  0.00    -0.049 N 
ATOM     81  H40 non d ame     -33.556  12.400  31.137  0.00  0.00     0.075 H 
ATOM     82  H41 non d ame     -32.406  10.928  31.411  0.00  0.00     0.075 H 
ATOM     83  C28 non d ame     -30.721  12.594  29.491  0.00  0.00     0.193 C 
ATOM     84  H42 non d ame     -31.843  13.711  30.958  0.00  0.00     0.280 HD
ATOM     85  H43 non d ame     -30.862  12.435  31.641  0.00  0.00     0.280 HD
ATOM     86  H44 non d ame     -29.798  12.017  29.423  0.00  0.00     0.129 H 
ATOM     87  H37 non d ame     -30.776  11.104  28.497  0.00  0.00     0.046 H 
BRANCH  83  88
ATOM     88  O6  non d ame     -30.417  13.871  28.927  0.00  0.00    -0.369 OA
ATOM     89  H45 non d ame     -30.948  14.545  29.357  0.00  0.00     0.212 HD
ENDBRANCH  83  88
ENDBRANCH  72  75
ENDBRANCH  47  72
ENDBRANCH  45  47
ENDBRANCH   1  43
BRANCH   1  90
ATOM     90  C16 non d ame     -32.907   9.318  23.441  0.00  0.00    -0.035 C 
ATOM     91  H21 non d ame     -33.758   8.764  23.046  0.00  0.00     0.037 H 
ATOM     92  H22 non d ame     -32.986  10.392  23.611  0.00  0.00     0.037 H 
BRANCH  90  93
ATOM     93  C17 non d ame     -31.740   9.116  22.423  0.00  0.00    -0.059 C 
ATOM     94  H23 non d ame     -31.725   9.982  21.761  0.00  0.00     0.038 H 
BRANCH  93  95
ATOM     95  C18 non d ame     -30.349   9.033  23.129  0.00  0.00    -0.073 C 
ATOM     96  H24 non d ame     -29.723   9.861  22.798  0.00  0.00     0.028 H 
ATOM     97  H25 non d ame     -30.486   9.091  24.209  0.00  0.00     0.028 H 
ATOM     98  H26 non d ame     -29.868   8.089  22.874  0.00  0.00     0.028 H 
ENDBRANCH  93  95
BRANCH  93  99
ATOM     99  C19 non d ame     -31.982   7.881  21.550  0.00  0.00    -0.073 C 
ATOM    100  H27 non d ame     -31.031   7.530  21.147  0.00  0.00     0.028 H 
ATOM    101  H28 non d ame     -32.433   7.092  22.153  0.00  0.00     0.028 H 
ATOM    102  H29 non d ame     -32.651   8.141  20.731  0.00  0.00     0.028 H 
ENDBRANCH  93  99
ENDBRANCH  90  93
ENDBRANCH   1  90
TORSDOF 26
ENDMDL
MODEL 3
REMARK VINA RESULT:      -6.7      2.384      5.720
REMARK  26 active torsions:
REMARK  status: ('A' for Active; 'I' for Inactive)
REMARK    1  A    between atoms: C2_2  and  C3_3 
REMARK    2  A    between atoms: C4_6  and  C5_7 
REMARK       I    between atoms: C5_7  and  N2_9 
REMARK    3  A    between atoms: N2_9  and  C6_10 
REMARK    4  A    between atoms: C6_10  and  C7_11 
REMARK    5  A    between atoms: C6_10  and  C8_13 
REMARK       I    between atoms: C7_11  and  N3_14 
REMARK    6  A    between atoms: N3_14  and  C9_15 
REMARK    7  A    between atoms: C9_15  and  C10_16 
REMARK    8  A    between atoms: C9_15  and  C11_18 
REMARK       I    between atoms: C10_16  and  N4_21 
REMARK    9  A    between atoms: C11_18  and  C12_19 
REMARK   10  A    between atoms: C11_18  and  C13_20 
REMARK   11  A    between atoms: N4_21  and  C14_22 
REMARK   12  A    between atoms: C14_22  and  C15_23 
REMARK   13  A    between atoms: C14_22  and  C16_25 
REMARK       I    between atoms: C15_23  and  N6_40 
REMARK   14  A    between atoms: C16_25  and  C17_26 
REMARK   15  A    between atoms: C17_26  and  C18_27 
REMARK   16  A    between atoms: C17_26  and  C19_28 
REMARK   17  A    between atoms: C20_29  and  C21_30 
REMARK   18  A    between atoms: C20_29  and  C24_33 
REMARK   19  A    between atoms: C20_29  and  N6_40 
REMARK   20  A    between atoms: C21_30  and  C22_31 
REMARK   21  A    between atoms: C22_31  and  C23_32 
REMARK   22  A    between atoms: C23_32  and  O8_43 
REMARK   23  A    between atoms: C24_33  and  C25_34 
REMARK   24  A    between atoms: C28_38  and  O6_39 
REMARK   25  A    between atoms: C29_42  and  O8_43 
REMARK   26  A    between atoms: C29_42  and  C35_49 
ROOT
ATOM      1  C14 non d ame     -34.337   9.740  29.442  0.00  0.00     0.089 C 
ATOM      2  H20 non d ame     -35.374  10.024  29.259  0.00  0.00     0.087 H 
ENDROOT
BRANCH   1   3
ATOM      3  N4  non d ame     -34.103   8.475  28.761  0.00  0.00    -0.346 N 
ATOM      4  C10 non d ame     -35.263   7.658  28.251  0.00  0.00     0.241 C 
ATOM      5  O4  non d ame     -36.377   8.038  28.402  0.00  0.00    -0.271 OA
ATOM      6  H19 non d ame     -33.148   8.168  28.645  0.00  0.00     0.163 HD
BRANCH   4   7
ATOM      7  C9  non d ame     -35.002   6.354  27.545  0.00  0.00     0.092 C 
ATOM      8  H11 non d ame     -35.920   5.767  27.525  0.00  0.00     0.088 H 
BRANCH   7   9
ATOM      9  N3  non d ame     -34.628   6.618  26.152  0.00  0.00    -0.346 N 
ATOM     10  C7  non d ame     -35.615   6.509  25.107  0.00  0.00     0.240 C 
ATOM     11  O3  non d ame     -36.716   6.209  25.369  0.00  0.00    -0.271 OA
ATOM     12  H10 non d ame     -33.681   6.876  25.911  0.00  0.00     0.163 HD
BRANCH  10  13
ATOM     13  C6  non d ame     -35.210   6.789  23.627  0.00  0.00     0.086 C 
ATOM     14  H6  non d ame     -35.762   7.620  23.188  0.00  0.00     0.086 H 
BRANCH  13  15
ATOM     15  N2  non d ame     -33.804   7.154  23.583  0.00  0.00    -0.343 N 
ATOM     16  C5  non d ame     -33.367   8.239  22.701  0.00  0.00     0.273 C 
ATOM     17  O2  non d ame     -34.154   8.809  22.028  0.00  0.00    -0.266 OA
ATOM     18  H5  non d ame     -33.138   6.660  24.160  0.00  0.00     0.163 HD
BRANCH  16  19
ATOM     19  C4  non d ame     -31.884   8.636  22.646  0.00  0.00     0.154 A 
ATOM     20  C1  non d ame     -30.771   7.786  22.352  0.00  0.00    -0.017 A 
ATOM     21  C2  non d ame     -29.640   8.628  22.429  0.00  0.00     0.077 A 
ATOM     22  H1  non d ame     -30.783   6.721  22.117  0.00  0.00     0.091 H 
ATOM     23  O1  non d ame     -30.064   9.820  22.731  0.00  0.00    -0.218 OA
ATOM     24  N1  non d ame     -31.370   9.850  22.863  0.00  0.00    -0.123 NA
BRANCH  21  25
ATOM     25  C3  non d ame     -28.192   8.217  22.198  0.00  0.00    -0.029 C 
ATOM     26  H2  non d ame     -27.564   9.106  22.154  0.00  0.00     0.036 H 
ATOM     27  H3  non d ame     -27.860   7.580  23.019  0.00  0.00     0.036 H 
ATOM     28  H4  non d ame     -28.114   7.670  21.259  0.00  0.00     0.036 H 
ENDBRANCH  21  25
ENDBRANCH  16  19
ENDBRANCH  13  15
BRANCH  13  29
ATOM     29  C8  non d ame     -35.449   5.554  22.796  0.00  0.00    -0.049 C 
ATOM     30  H7  non d ame     -35.911   4.784  23.412  0.00  0.00     0.030 H 
ATOM     31  H8  non d ame     -36.110   5.797  21.964  0.00  0.00     0.030 H 
ATOM     32  H9  non d ame     -34.497   5.187  22.408  0.00  0.00     0.030 H 
ENDBRANCH  13  29
ENDBRANCH  10  13
ENDBRANCH   7   9
BRANCH   7  33
ATOM     33  C11 non d ame     -33.840   5.601  28.257  0.00  0.00    -0.033 C 
ATOM     34  H12 non d ame     -33.053   6.328  28.459  0.00  0.00     0.042 H 
BRANCH  33  35
ATOM     35  C12 non d ame     -34.300   5.016  29.629  0.00  0.00    -0.071 C 
ATOM     36  H13 non d ame     -33.508   5.152  30.366  0.00  0.00     0.028 H 
ATOM     37  H14 non d ame     -35.199   5.533  29.962  0.00  0.00     0.028 H 
ATOM     38  H15 non d ame     -34.511   3.952  29.517  0.00  0.00     0.028 H 
ENDBRANCH  33  35
BRANCH  33  39
ATOM     39  C13 non d ame     -33.246   4.489  27.336  0.00  0.00    -0.071 C 
ATOM     40  H16 non d ame     -33.188   3.551  27.890  0.00  0.00     0.028 H 
ATOM     41  H17 non d ame     -33.887   4.357  26.464  0.00  0.00     0.028 H 
ATOM     42  H18 non d ame     -32.248   4.780  27.011  0.00  0.00     0.028 H 
ENDBRANCH  33  39
ENDBRANCH   7  33
ENDBRANCH   4   7
ENDBRANCH   1   3
BRANCH   1  43
ATOM     43  C15 non d ame     -33.333  10.793  28.890  0.00  0.00     0.240 C 
ATOM     44  O5  non d ame     -32.285  10.439  28.457  0.00  0.00    -0.271 OA
ATOM     45  N6  non d ame     -33.684  12.241  28.891  0.00  0.00    -0.355 N 
ATOM     46  H46 non d ame     -34.574  12.553  29.252  0.00  0.00     0.162 HD
BRANCH  45  47
ATOM     47  C20 non d ame     -32.719  13.229  28.362  0.00  0.00     0.013 C 
ATOM     48  H30 non d ame     -31.717  12.894  28.629  0.00  0.00     0.072 H 
BRANCH  47  49
ATOM     49  C21 non d ame     -32.996  14.580  28.981  0.00  0.00    -0.038 C 
ATOM     50  H31 non d ame     -33.756  14.405  29.743  0.00  0.00     0.036 H 
ATOM     51  H32 non d ame     -32.021  14.979  29.264  0.00  0.00     0.036 H 
BRANCH  49  52
ATOM     52  C22 non d ame     -33.605  15.586  27.979  0.00  0.00     0.018 C 
ATOM     53  H33 non d ame     -33.321  15.226  26.991  0.00  0.00     0.048 H 
ATOM     54  H34 non d ame     -34.658  15.668  28.248  0.00  0.00     0.048 H 
BRANCH  52  55
ATOM     55  C23 non d ame     -33.019  17.020  28.098  0.00  0.00     0.259 C 
ATOM     56  O7  non d ame     -32.392  17.338  29.056  0.00  0.00    -0.265 OA
BRANCH  55  57
ATOM     57  O8  non d ame     -33.252  17.957  27.052  0.00  0.00    -0.317 OA
BRANCH  57  58
ATOM     58  C29 non d ame     -33.639  19.256  27.510  0.00  0.00     0.052 C 
ATOM     59  H47 non d ame     -33.886  19.136  28.564  0.00  0.00     0.082 H 
ATOM     60  H48 non d ame     -32.834  19.926  27.211  0.00  0.00     0.082 H 
BRANCH  58  61
ATOM     61  C35 non d ame     -34.927  19.667  26.747  0.00  0.00    -0.034 A 
ATOM     62  C30 non d ame     -35.260  19.035  25.553  0.00  0.00    -0.075 A 
ATOM     63  C31 non d ame     -36.417  19.405  24.867  0.00  0.00    -0.082 A 
ATOM     64  H49 non d ame     -34.616  18.253  25.153  0.00  0.00     0.084 H 
ATOM     65  C32 non d ame     -37.241  20.411  25.380  0.00  0.00    -0.083 A 
ATOM     66  H50 non d ame     -36.677  18.907  23.932  0.00  0.00     0.083 H 
ATOM     67  C33 non d ame     -36.901  21.040  26.570  0.00  0.00    -0.082 A 
ATOM     68  H51 non d ame     -38.147  20.705  24.850  0.00  0.00     0.083 H 
ATOM     69  C34 non d ame     -35.748  20.673  27.259  0.00  0.00    -0.075 A 
ATOM     70  H52 non d ame     -37.545  21.827  26.966  0.00  0.00     0.083 H 
ATOM     71  H53 non d ame     -35.489  21.171  28.194  0.00  0.00     0.084 H 
ENDBRANCH  58  61
ENDBRANCH  57  58
ENDBRANCH  55  57
ENDBRANCH  52  55
ENDBRANCH  49  52
ENDBRANCH  47  49
BRANCH  47  72
ATOM     72  C24 non d ame     -32.859  13.325  26.844  0.00  0.00    -0.039 C 
ATOM     73  H35 non d ame     -33.427  12.442  26.549  0.00  0.00     0.036 H 
ATOM     74  H36 non d ame     -33.261  14.320  26.651  0.00  0.00     0.036 H 
BRANCH  72  75
ATOM     75  C25 non d ame     -31.437  13.239  26.111  0.00  0.00    -0.001 C 
ATOM     76  C26 non d ame     -31.237  14.538  25.124  0.00  0.00    -0.035 C 
ATOM     77  C27 non d ame     -30.882  14.101  23.892  0.00  0.00     0.085 C 
ATOM     78  H38 non d ame     -32.194  15.030  24.953  0.00  0.00     0.036 H 
ATOM     79  H39 non d ame     -30.374  15.123  25.445  0.00  0.00     0.036 H 
ATOM     80  N5  non d ame     -31.141  12.613  23.861  0.00  0.00    -0.049 N 
ATOM     81  H40 non d ame     -31.564  14.595  23.200  0.00  0.00     0.075 H 
ATOM     82  H41 non d ame     -29.810  14.276  23.818  0.00  0.00     0.075 H 
ATOM     83  C28 non d ame     -31.344  12.166  25.398  0.00  0.00     0.193 C 
ATOM     84  H42 non d ame     -32.014  12.485  23.371  0.00  0.00     0.280 HD
ATOM     85  H43 non d ame     -30.296  12.185  23.509  0.00  0.00     0.280 HD
ATOM     86  H44 non d ame     -30.549  11.643  25.932  0.00  0.00     0.129 H 
ATOM     87  H37 non d ame     -30.628  13.014  26.805  0.00  0.00     0.046 H 
BRANCH  83  88
ATOM     88  O6  non d ame     -32.498  11.334  25.522  0.00  0.00    -0.369 OA
ATOM     89  H45 non d ame     -32.933  11.511  26.360  0.00  0.00     0.212 HD
ENDBRANCH  83  88
ENDBRANCH  72  75
ENDBRANCH  47  72
ENDBRANCH  45  47
ENDBRANCH   1  43
BRANCH   1  90
ATOM     90  C16 non d ame     -34.111   9.551  30.933  0.00  0.00    -0.035 C 
ATOM     91  H21 non d ame     -33.781   8.519  31.046  0.00  0.00     0.037 H 
ATOM     92  H22 non d ame     -33.455  10.369  31.231  0.00  0.00     0.037 H 
BRANCH  90  93
ATOM     93  C17 non d ame     -35.411   9.694  31.787  0.00  0.00    -0.059 C 
ATOM     94  H23 non d ame     -35.672   8.703  32.160  0.00  0.00     0.038 H 
BRANCH  93  95
ATOM     95  C18 non d ame     -35.207  10.628  33.021  0.00  0.00    -0.073 C 
ATOM     96  H24 non d ame     -36.173  11.008  33.355  0.00  0.00     0.028 H 
ATOM     97  H25 non d ame     -34.740  10.065  33.830  0.00  0.00     0.028 H 
ATOM     98  H26 non d ame     -34.565  11.463  32.743  0.00  0.00     0.028 H 
ENDBRANCH  93  95
BRANCH  93  99
ATOM     99  C19 non d ame     -36.580  10.178  30.925  0.00  0.00    -0.073 C 
ATOM    100  H27 non d ame     -37.497  10.166  31.517  0.00  0.00     0.028 H 
ATOM    101  H28 non d ame     -36.384  11.194  30.583  0.00  0.00     0.028 H 
ATOM    102  H29 non d ame     -36.694   9.520  30.064  0.00  0.00     0.028 H 
ENDBRANCH  93  99
ENDBRANCH  90  93
ENDBRANCH   1  90
TORSDOF 26
ENDMDL
MODEL 4
REMARK VINA RESULT:      -6.7      2.648      8.921
REMARK  26 active torsions:
REMARK  status: ('A' for Active; 'I' for Inactive)
REMARK    1  A    between atoms: C2_2  and  C3_3 
REMARK    2  A    between atoms: C4_6  and  C5_7 
REMARK       I    between atoms: C5_7  and  N2_9 
REMARK    3  A    between atoms: N2_9  and  C6_10 
REMARK    4  A    between atoms: C6_10  and  C7_11 
REMARK    5  A    between atoms: C6_10  and  C8_13 
REMARK       I    between atoms: C7_11  and  N3_14 
REMARK    6  A    between atoms: N3_14  and  C9_15 
REMARK    7  A    between atoms: C9_15  and  C10_16 
REMARK    8  A    between atoms: C9_15  and  C11_18 
REMARK       I    between atoms: C10_16  and  N4_21 
REMARK    9  A    between atoms: C11_18  and  C12_19 
REMARK   10  A    between atoms: C11_18  and  C13_20 
REMARK   11  A    between atoms: N4_21  and  C14_22 
REMARK   12  A    between atoms: C14_22  and  C15_23 
REMARK   13  A    between atoms: C14_22  and  C16_25 
REMARK       I    between atoms: C15_23  and  N6_40 
REMARK   14  A    between atoms: C16_25  and  C17_26 
REMARK   15  A    between atoms: C17_26  and  C18_27 
REMARK   16  A    between atoms: C17_26  and  C19_28 
REMARK   17  A    between atoms: C20_29  and  C21_30 
REMARK   18  A    between atoms: C20_29  and  C24_33 
REMARK   19  A    between atoms: C20_29  and  N6_40 
REMARK   20  A    between atoms: C21_30  and  C22_31 
REMARK   21  A    between atoms: C22_31  and  C23_32 
REMARK   22  A    between atoms: C23_32  and  O8_43 
REMARK   23  A    between atoms: C24_33  and  C25_34 
REMARK   24  A    between atoms: C28_38  and  O6_39 
REMARK   25  A    between atoms: C29_42  and  O8_43 
REMARK   26  A    between atoms: C29_42  and  C35_49 
ROOT
ATOM      1  C14 non d ame     -34.685   6.453  28.941  0.00  0.00     0.089 C 
ATOM      2  H20 non d ame     -34.059   6.394  29.833  0.00  0.00     0.087 H 
ENDROOT
BRANCH   1   3
ATOM      3  N4  non d ame     -35.042   7.851  28.748  0.00  0.00    -0.346 N 
ATOM      4  C10 non d ame     -34.848   8.847  29.862  0.00  0.00     0.241 C 
ATOM      5  O4  non d ame     -34.404   8.502  30.907  0.00  0.00    -0.271 OA
ATOM      6  H19 non d ame     -35.420   8.124  27.852  0.00  0.00     0.163 HD
BRANCH   4   7
ATOM      7  C9  non d ame     -35.218  10.291  29.643  0.00  0.00     0.092 C 
ATOM      8  H11 non d ame     -35.579  10.715  30.580  0.00  0.00     0.088 H 
BRANCH   7   9
ATOM      9  N3  non d ame     -34.025  11.049  29.255  0.00  0.00    -0.346 N 
ATOM     10  C7  non d ame     -33.189  11.645  30.268  0.00  0.00     0.240 C 
ATOM     11  O3  non d ame     -33.462  11.525  31.399  0.00  0.00    -0.271 OA
ATOM     12  H10 non d ame     -33.777  11.162  28.282  0.00  0.00     0.163 HD
BRANCH  10  13
ATOM     13  C6  non d ame     -31.922  12.453  29.849  0.00  0.00     0.086 C 
ATOM     14  H6  non d ame     -31.543  12.165  28.869  0.00  0.00     0.086 H 
BRANCH  13  15
ATOM     15  N2  non d ame     -32.268  13.862  29.763  0.00  0.00    -0.343 N 
ATOM     16  C5  non d ame     -31.732  14.671  28.666  0.00  0.00     0.273 C 
ATOM     17  O2  non d ame     -31.021  14.180  27.860  0.00  0.00    -0.266 OA
ATOM     18  H5  non d ame     -32.874  14.274  30.458  0.00  0.00     0.163 HD
BRANCH  16  19
ATOM     19  C4  non d ame     -32.091  16.162  28.563  0.00  0.00     0.154 A 
ATOM     20  C1  non d ame     -32.637  16.843  27.430  0.00  0.00    -0.017 A 
ATOM     21  C2  non d ame     -32.780  18.185  27.847  0.00  0.00     0.077 A 
ATOM     22  H1  non d ame     -32.891  16.428  26.455  0.00  0.00     0.091 H 
ATOM     23  O1  non d ame     -32.363  18.256  29.077  0.00  0.00    -0.218 OA
ATOM     24  N1  non d ame     -31.956  17.087  29.517  0.00  0.00    -0.123 NA
BRANCH  21  25
ATOM     25  C3  non d ame     -33.323  19.337  27.011  0.00  0.00    -0.029 C 
ATOM     26  H2  non d ame     -34.185  19.775  27.513  0.00  0.00     0.036 H 
ATOM     27  H3  non d ame     -32.550  20.096  26.891  0.00  0.00     0.036 H 
ATOM     28  H4  non d ame     -33.623  18.966  26.032  0.00  0.00     0.036 H 
ENDBRANCH  21  25
ENDBRANCH  16  19
ENDBRANCH  13  15
BRANCH  13  29
ATOM     29  C8  non d ame     -30.833  12.250  30.871  0.00  0.00    -0.049 C 
ATOM     30  H7  non d ame     -30.394  11.261  30.743  0.00  0.00     0.030 H 
ATOM     31  H8  non d ame     -30.062  13.009  30.736  0.00  0.00     0.030 H 
ATOM     32  H9  non d ame     -31.255  12.333  31.873  0.00  0.00     0.030 H 
ENDBRANCH  13  29
ENDBRANCH  10  13
ENDBRANCH   7   9
BRANCH   7  33
ATOM     33  C11 non d ame     -36.281  10.387  28.509  0.00  0.00    -0.033 C 
ATOM     34  H12 non d ame     -36.343   9.408  28.033  0.00  0.00     0.042 H 
BRANCH  33  35
ATOM     35  C12 non d ame     -37.694  10.721  29.081  0.00  0.00    -0.071 C 
ATOM     36  H13 non d ame     -37.602  11.491  29.848  0.00  0.00     0.028 H 
ATOM     37  H14 non d ame     -38.336  11.081  28.279  0.00  0.00     0.028 H 
ATOM     38  H15 non d ame     -38.129   9.823  29.521  0.00  0.00     0.028 H 
ENDBRANCH  33  35
BRANCH  33  39
ATOM     39  C13 non d ame     -35.849  11.424  27.424  0.00  0.00    -0.071 C 
ATOM     40  H16 non d ame     -36.380  12.363  27.587  0.00  0.00     0.028 H 
ATOM     41  H17 non d ame     -34.775  11.597  27.493  0.00  0.00     0.028 H 
ATOM     42  H18 non d ame     -36.091  11.038  26.434  0.00  0.00     0.028 H 
ENDBRANCH  33  39
ENDBRANCH   7  33
ENDBRANCH   4   7
ENDBRANCH   1   3
BRANCH   1  43
ATOM     43  C15 non d ame     -33.942   5.951  27.669  0.00  0.00     0.240 C 
ATOM     44  O5  non d ame     -33.841   4.785  27.465  0.00  0.00    -0.271 OA
ATOM     45  N6  non d ame     -33.364   6.925  26.700  0.00  0.00    -0.355 N 
ATOM     46  H46 non d ame     -33.448   7.919  26.860  0.00  0.00     0.162 HD
BRANCH  45  47
ATOM     47  C20 non d ame     -32.662   6.432  25.496  0.00  0.00     0.013 C 
ATOM     48  H30 non d ame     -31.954   5.666  25.812  0.00  0.00     0.072 H 
BRANCH  47  49
ATOM     49  C21 non d ame     -31.926   7.579  24.841  0.00  0.00    -0.038 C 
ATOM     50  H31 non d ame     -31.027   7.732  25.440  0.00  0.00     0.036 H 
ATOM     51  H32 non d ame     -31.839   7.310  23.788  0.00  0.00     0.036 H 
BRANCH  49  52
ATOM     52  C22 non d ame     -32.716   8.905  24.890  0.00  0.00     0.018 C 
ATOM     53  H33 non d ame     -32.638   9.332  23.892  0.00  0.00     0.048 H 
ATOM     54  H34 non d ame     -33.693   8.650  25.301  0.00  0.00     0.048 H 
BRANCH  52  55
ATOM     55  C23 non d ame     -32.108   9.960  25.856  0.00  0.00     0.259 C 
ATOM     56  O7  non d ame     -32.367   9.935  27.016  0.00  0.00    -0.265 OA
BRANCH  55  57
ATOM     57  O8  non d ame     -31.248  10.967  25.336  0.00  0.00    -0.317 OA
BRANCH  57  58
ATOM     58  C29 non d ame     -31.130  10.953  23.910  0.00  0.00     0.052 C 
ATOM     59  H47 non d ame     -30.354  10.221  23.686  0.00  0.00     0.082 H 
ATOM     60  H48 non d ame     -32.141  10.809  23.531  0.00  0.00     0.082 H 
BRANCH  58  61
ATOM     61  C35 non d ame     -30.631  12.352  23.458  0.00  0.00    -0.034 A 
ATOM     62  C30 non d ame     -29.824  12.472  22.331  0.00  0.00    -0.075 A 
ATOM     63  C31 non d ame     -29.375  13.728  21.925  0.00  0.00    -0.082 A 
ATOM     64  H49 non d ame     -29.541  11.583  21.767  0.00  0.00     0.084 H 
ATOM     65  C32 non d ame     -29.736  14.866  22.650  0.00  0.00    -0.083 A 
ATOM     66  H50 non d ame     -28.744  13.819  21.040  0.00  0.00     0.083 H 
ATOM     67  C33 non d ame     -30.539  14.740  23.776  0.00  0.00    -0.082 A 
ATOM     68  H51 non d ame     -29.391  15.852  22.339  0.00  0.00     0.083 H 
ATOM     69  C34 non d ame     -30.990  13.487  24.185  0.00  0.00    -0.075 A 
ATOM     70  H52 non d ame     -30.817  15.631  24.342  0.00  0.00     0.083 H 
ATOM     71  H53 non d ame     -31.622  13.397  25.069  0.00  0.00     0.084 H 
ENDBRANCH  58  61
ENDBRANCH  57  58
ENDBRANCH  55  57
ENDBRANCH  52  55
ENDBRANCH  49  52
ENDBRANCH  47  49
BRANCH  47  72
ATOM     72  C24 non d ame     -33.673   5.847  24.512  0.00  0.00    -0.039 C 
ATOM     73  H35 non d ame     -34.411   5.331  25.128  0.00  0.00     0.036 H 
ATOM     74  H36 non d ame     -33.979   6.680  23.880  0.00  0.00     0.036 H 
BRANCH  72  75
ATOM     75  C25 non d ame     -33.004   4.749  23.557  0.00  0.00    -0.001 C 
ATOM     76  C26 non d ame     -32.746   5.389  22.065  0.00  0.00    -0.035 C 
ATOM     77  C27 non d ame     -33.276   4.558  21.135  0.00  0.00     0.085 C 
ATOM     78  H38 non d ame     -33.322   6.305  21.945  0.00  0.00     0.036 H 
ATOM     79  H39 non d ame     -31.680   5.382  21.834  0.00  0.00     0.036 H 
ATOM     80  N5  non d ame     -34.157   3.577  21.872  0.00  0.00    -0.049 N 
ATOM     81  H40 non d ame     -33.898   5.189  20.501  0.00  0.00     0.075 H 
ATOM     82  H41 non d ame     -32.429   4.022  20.707  0.00  0.00     0.075 H 
ATOM     83  C28 non d ame     -33.765   3.713  23.432  0.00  0.00     0.193 C 
ATOM     84  H42 non d ame     -35.106   3.898  21.750  0.00  0.00     0.280 HD
ATOM     85  H43 non d ame     -33.889   2.657  21.551  0.00  0.00     0.280 HD
ATOM     86  H44 non d ame     -33.147   2.955  23.915  0.00  0.00     0.129 H 
ATOM     87  H37 non d ame     -32.163   4.245  24.033  0.00  0.00     0.046 H 
BRANCH  83  88
ATOM     88  O6  non d ame     -34.945   3.811  24.230  0.00  0.00    -0.369 OA
ATOM     89  H45 non d ame     -34.859   3.243  25.000  0.00  0.00     0.212 HD
ENDBRANCH  83  88
ENDBRANCH  72  75
ENDBRANCH  47  72
ENDBRANCH  45  47
ENDBRANCH   1  43
BRANCH   1  90
ATOM     90  C16 non d ame     -35.952   5.640  29.147  0.00  0.00    -0.035 C 
ATOM     91  H21 non d ame     -36.751   6.235  28.708  0.00  0.00     0.037 H 
ATOM     92  H22 non d ame     -35.727   4.650  28.749  0.00  0.00     0.037 H 
BRANCH  90  93
ATOM     93  C17 non d ame     -36.329   5.436  30.649  0.00  0.00    -0.059 C 
ATOM     94  H23 non d ame     -36.786   4.451  30.744  0.00  0.00     0.038 H 
BRANCH  93  95
ATOM     95  C18 non d ame     -35.076   5.472  31.581  0.00  0.00    -0.073 C 
ATOM     96  H24 non d ame     -34.291   6.066  31.113  0.00  0.00     0.028 H 
ATOM     97  H25 non d ame     -35.347   5.921  32.537  0.00  0.00     0.028 H 
ATOM     98  H26 non d ame     -34.716   4.457  31.745  0.00  0.00     0.028 H 
ENDBRANCH  93  95
BRANCH  93  99
ATOM     99  C19 non d ame     -37.370   6.466  31.096  0.00  0.00    -0.073 C 
ATOM    100  H27 non d ame     -38.334   6.228  30.644  0.00  0.00     0.028 H 
ATOM    101  H28 non d ame     -37.464   6.442  32.182  0.00  0.00     0.028 H 
ATOM    102  H29 non d ame     -37.056   7.461  30.780  0.00  0.00     0.028 H 
ENDBRANCH  93  99
ENDBRANCH  90  93
ENDBRANCH   1  90
TORSDOF 26
ENDMDL
MODEL 5
REMARK VINA RESULT:      -6.7      2.643      5.244
REMARK  26 active torsions:
REMARK  status: ('A' for Active; 'I' for Inactive)
REMARK    1  A    between atoms: C2_2  and  C3_3 
REMARK    2  A    between atoms: C4_6  and  C5_7 
REMARK       I    between atoms: C5_7  and  N2_9 
REMARK    3  A    between atoms: N2_9  and  C6_10 
REMARK    4  A    between atoms: C6_10  and  C7_11 
REMARK    5  A    between atoms: C6_10  and  C8_13 
REMARK       I    between atoms: C7_11  and  N3_14 
REMARK    6  A    between atoms: N3_14  and  C9_15 
REMARK    7  A    between atoms: C9_15  and  C10_16 
REMARK    8  A    between atoms: C9_15  and  C11_18 
REMARK       I    between atoms: C10_16  and  N4_21 
REMARK    9  A    between atoms: C11_18  and  C12_19 
REMARK   10  A    between atoms: C11_18  and  C13_20 
REMARK   11  A    between atoms: N4_21  and  C14_22 
REMARK   12  A    between atoms: C14_22  and  C15_23 
REMARK   13  A    between atoms: C14_22  and  C16_25 
REMARK       I    between atoms: C15_23  and  N6_40 
REMARK   14  A    between atoms: C16_25  and  C17_26 
REMARK   15  A    between atoms: C17_26  and  C18_27 
REMARK   16  A    between atoms: C17_26  and  C19_28 
REMARK   17  A    between atoms: C20_29  and  C21_30 
REMARK   18  A    between atoms: C20_29  and  C24_33 
REMARK   19  A    between atoms: C20_29  and  N6_40 
REMARK   20  A    between atoms: C21_30  and  C22_31 
REMARK   21  A    between atoms: C22_31  and  C23_32 
REMARK   22  A    between atoms: C23_32  and  O8_43 
REMARK   23  A    between atoms: C24_33  and  C25_34 
REMARK   24  A    between atoms: C28_38  and  O6_39 
REMARK   25  A    between atoms: C29_42  and  O8_43 
REMARK   26  A    between atoms: C29_42  and  C35_49 
ROOT
ATOM      1  C14 non d ame     -32.328   9.487  25.528  0.00  0.00     0.089 C 
ATOM      2  H20 non d ame     -31.465   8.826  25.623  0.00  0.00     0.087 H 
ENDROOT
BRANCH   1   3
ATOM      3  N4  non d ame     -33.381   8.958  26.382  0.00  0.00    -0.346 N 
ATOM      4  C10 non d ame     -33.106   7.794  27.299  0.00  0.00     0.241 C 
ATOM      5  O4  non d ame     -32.028   7.297  27.333  0.00  0.00    -0.271 OA
ATOM      6  H19 non d ame     -34.291   9.393  26.337  0.00  0.00     0.163 HD
BRANCH   4   7
ATOM      7  C9  non d ame     -34.206   7.263  28.180  0.00  0.00     0.092 C 
ATOM      8  H11 non d ame     -33.779   6.588  28.920  0.00  0.00     0.088 H 
BRANCH   7   9
ATOM      9  N3  non d ame     -34.827   8.372  28.911  0.00  0.00    -0.346 N 
ATOM     10  C7  non d ame     -35.190   8.207  30.297  0.00  0.00     0.240 C 
ATOM     11  O3  non d ame     -34.990   7.189  30.839  0.00  0.00    -0.271 OA
ATOM     12  H10 non d ame     -35.006   9.255  28.455  0.00  0.00     0.163 HD
BRANCH  10  13
ATOM     13  C6  non d ame     -35.853   9.390  31.069  0.00  0.00     0.086 C 
ATOM     14  H6  non d ame     -35.179   9.854  31.788  0.00  0.00     0.086 H 
BRANCH  13  15
ATOM     15  N2  non d ame     -36.223  10.425  30.119  0.00  0.00    -0.343 N 
ATOM     16  C5  non d ame     -37.358  10.207  29.219  0.00  0.00     0.273 C 
ATOM     17  O2  non d ame     -37.964   9.193  29.265  0.00  0.00    -0.266 OA
ATOM     18  H5  non d ame     -35.697  11.287  30.084  0.00  0.00     0.163 HD
BRANCH  16  19
ATOM     19  C4  non d ame     -37.761  11.294  28.210  0.00  0.00     0.154 A 
ATOM     20  C1  non d ame     -36.963  11.827  27.149  0.00  0.00    -0.017 A 
ATOM     21  C2  non d ame     -37.787  12.789  26.523  0.00  0.00     0.077 A 
ATOM     22  H1  non d ame     -35.942  11.558  26.876  0.00  0.00     0.091 H 
ATOM     23  O1  non d ame     -38.923  12.797  27.156  0.00  0.00    -0.218 OA
ATOM     24  N1  non d ame     -38.931  11.933  28.145  0.00  0.00    -0.123 NA
BRANCH  21  25
ATOM     25  C3  non d ame     -37.414  13.653  25.326  0.00  0.00    -0.029 C 
ATOM     26  H2  non d ame     -37.304  13.024  24.444  0.00  0.00     0.036 H 
ATOM     27  H3  non d ame     -38.200  14.388  25.150  0.00  0.00     0.036 H 
ATOM     28  H4  non d ame     -36.475  14.167  25.526  0.00  0.00     0.036 H 
ENDBRANCH  21  25
ENDBRANCH  16  19
ENDBRANCH  13  15
BRANCH  13  29
ATOM     29  C8  non d ame     -37.076   8.895  31.797  0.00  0.00    -0.049 C 
ATOM     30  H7  non d ame     -37.152   7.814  31.689  0.00  0.00     0.030 H 
ATOM     31  H8  non d ame     -36.998   9.148  32.854  0.00  0.00     0.030 H 
ATOM     32  H9  non d ame     -37.965   9.365  31.375  0.00  0.00     0.030 H 
ENDBRANCH  13  29
ENDBRANCH  10  13
ENDBRANCH   7   9
BRANCH   7  33
ATOM     33  C11 non d ame     -35.281   6.561  27.298  0.00  0.00    -0.033 C 
ATOM     34  H12 non d ame     -35.834   5.874  27.938  0.00  0.00     0.042 H 
BRANCH  33  35
ATOM     35  C12 non d ame     -36.303   7.590  26.722  0.00  0.00    -0.071 C 
ATOM     36  H13 non d ame     -36.188   8.544  27.238  0.00  0.00     0.028 H 
ATOM     37  H14 non d ame     -36.119   7.729  25.657  0.00  0.00     0.028 H 
ATOM     38  H15 non d ame     -37.317   7.218  26.871  0.00  0.00     0.028 H 
ENDBRANCH  33  35
BRANCH  33  39
ATOM     39  C13 non d ame     -34.613   5.727  26.158  0.00  0.00    -0.071 C 
ATOM     40  H16 non d ame     -35.252   4.883  25.902  0.00  0.00     0.028 H 
ATOM     41  H17 non d ame     -34.473   6.358  25.280  0.00  0.00     0.028 H 
ATOM     42  H18 non d ame     -33.644   5.360  26.497  0.00  0.00     0.028 H 
ENDBRANCH  33  39
ENDBRANCH   7  33
ENDBRANCH   4   7
ENDBRANCH   1   3
BRANCH   1  43
ATOM     43  C15 non d ame     -32.005  10.940  25.982  0.00  0.00     0.240 C 
ATOM     44  O5  non d ame     -31.165  11.131  26.801  0.00  0.00    -0.271 OA
ATOM     45  N6  non d ame     -32.737  12.095  25.388  0.00  0.00    -0.355 N 
ATOM     46  H46 non d ame     -33.450  11.946  24.688  0.00  0.00     0.162 HD
BRANCH  45  47
ATOM     47  C20 non d ame     -32.418  13.470  25.830  0.00  0.00     0.013 C 
ATOM     48  H30 non d ame     -32.418  13.480  26.920  0.00  0.00     0.072 H 
BRANCH  47  49
ATOM     49  C21 non d ame     -33.469  14.421  25.303  0.00  0.00    -0.038 C 
ATOM     50  H31 non d ame     -32.929  15.153  24.702  0.00  0.00     0.036 H 
ATOM     51  H32 non d ame     -34.231  13.791  24.843  0.00  0.00     0.036 H 
BRANCH  49  52
ATOM     52  C22 non d ame     -34.177  15.213  26.425  0.00  0.00     0.018 C 
ATOM     53  H33 non d ame     -34.781  15.964  25.919  0.00  0.00     0.048 H 
ATOM     54  H34 non d ame     -34.654  14.464  27.058  0.00  0.00     0.048 H 
BRANCH  52  55
ATOM     55  C23 non d ame     -33.202  15.995  27.348  0.00  0.00     0.259 C 
ATOM     56  O7  non d ame     -32.524  16.867  26.909  0.00  0.00    -0.265 OA
BRANCH  55  57
ATOM     57  O8  non d ame     -33.118  15.650  28.726  0.00  0.00    -0.317 OA
BRANCH  57  58
ATOM     58  C29 non d ame     -31.822  15.205  29.137  0.00  0.00     0.052 C 
ATOM     59  H47 non d ame     -31.202  15.238  28.242  0.00  0.00     0.082 H 
ATOM     60  H48 non d ame     -31.563  15.811  30.004  0.00  0.00     0.082 H 
BRANCH  58  61
ATOM     61  C35 non d ame     -31.947  13.726  29.594  0.00  0.00    -0.034 A 
ATOM     62  C30 non d ame     -33.029  12.958  29.176  0.00  0.00    -0.075 A 
ATOM     63  C31 non d ame     -33.142  11.630  29.587  0.00  0.00    -0.082 A 
ATOM     64  H49 non d ame     -33.789  13.395  28.529  0.00  0.00     0.084 H 
ATOM     65  C32 non d ame     -32.167  11.072  30.419  0.00  0.00    -0.083 A 
ATOM     66  H50 non d ame     -33.990  11.029  29.256  0.00  0.00     0.083 H 
ATOM     67  C33 non d ame     -31.092  11.844  30.835  0.00  0.00    -0.082 A 
ATOM     68  H51 non d ame     -32.247  10.034  30.743  0.00  0.00     0.083 H 
ATOM     69  C34 non d ame     -30.975  13.171  30.427  0.00  0.00    -0.075 A 
ATOM     70  H52 non d ame     -30.334  11.406  31.487  0.00  0.00     0.083 H 
ATOM     71  H53 non d ame     -30.126  13.770  30.756  0.00  0.00     0.084 H 
ENDBRANCH  58  61
ENDBRANCH  57  58
ENDBRANCH  55  57
ENDBRANCH  52  55
ENDBRANCH  49  52
ENDBRANCH  47  49
BRANCH  47  72
ATOM     72  C24 non d ame     -31.047  13.878  25.296  0.00  0.00    -0.039 C 
ATOM     73  H35 non d ame     -30.743  14.734  25.901  0.00  0.00     0.036 H 
ATOM     74  H36 non d ame     -30.449  12.967  25.303  0.00  0.00     0.036 H 
BRANCH  72  75
ATOM     75  C25 non d ame     -31.127  14.378  23.776  0.00  0.00    -0.001 C 
ATOM     76  C26 non d ame     -30.162  13.444  22.828  0.00  0.00    -0.035 C 
ATOM     77  C27 non d ame     -29.353  14.251  22.099  0.00  0.00     0.085 C 
ATOM     78  H38 non d ame     -29.466  12.877  23.445  0.00  0.00     0.036 H 
ATOM     79  H39 non d ame     -30.760  12.934  22.072  0.00  0.00     0.036 H 
ATOM     80  N5  non d ame     -29.449  15.632  22.702  0.00  0.00    -0.049 N 
ATOM     81  H40 non d ame     -28.345  13.865  22.251  0.00  0.00     0.075 H 
ATOM     82  H41 non d ame     -29.784  14.269  21.099  0.00  0.00     0.075 H 
ATOM     83  C28 non d ame     -30.742  15.606  23.668  0.00  0.00     0.193 C 
ATOM     84  H42 non d ame     -28.624  15.753  23.272  0.00  0.00     0.280 HD
ATOM     85  H43 non d ame     -29.631  16.265  21.936  0.00  0.00     0.280 HD
ATOM     86  H44 non d ame     -31.674  16.079  23.357  0.00  0.00     0.129 H 
ATOM     87  H37 non d ame     -32.154  14.527  23.444  0.00  0.00     0.046 H 
BRANCH  83  88
ATOM     88  O6  non d ame     -30.423  16.185  24.934  0.00  0.00    -0.369 OA
ATOM     89  H45 non d ame     -30.508  17.141  24.880  0.00  0.00     0.212 HD
ENDBRANCH  83  88
ENDBRANCH  72  75
ENDBRANCH  47  72
ENDBRANCH  45  47
ENDBRANCH   1  43
BRANCH   1  90
ATOM     90  C16 non d ame     -32.813   9.497  24.088  0.00  0.00    -0.035 C 
ATOM     91  H21 non d ame     -33.726   8.903  24.087  0.00  0.00     0.037 H 
ATOM     92  H22 non d ame     -32.846  10.549  23.802  0.00  0.00     0.037 H 
BRANCH  90  93
ATOM     93  C17 non d ame     -31.832   8.799  23.092  0.00  0.00    -0.059 C 
ATOM     94  H23 non d ame     -31.365   7.967  23.618  0.00  0.00     0.038 H 
BRANCH  93  95
ATOM     95  C18 non d ame     -32.573   8.219  21.845  0.00  0.00    -0.073 C 
ATOM     96  H24 non d ame     -33.507   7.754  22.160  0.00  0.00     0.028 H 
ATOM     97  H25 non d ame     -32.787   9.024  21.143  0.00  0.00     0.028 H 
ATOM     98  H26 non d ame     -31.941   7.474  21.362  0.00  0.00     0.028 H 
ENDBRANCH  93  95
BRANCH  93  99
ATOM     99  C19 non d ame     -30.714   9.755  22.665  0.00  0.00    -0.073 C 
ATOM    100  H27 non d ame     -30.901  10.100  21.648  0.00  0.00     0.028 H 
ATOM    101  H28 non d ame     -30.689  10.611  23.340  0.00  0.00     0.028 H 
ATOM    102  H29 non d ame     -29.758   9.234  22.703  0.00  0.00     0.028 H 
ENDBRANCH  93  99
ENDBRANCH  90  93
ENDBRANCH   1  90
TORSDOF 26
ENDMDL
MODEL 6
REMARK VINA RESULT:      -6.6      3.208     10.743
REMARK  26 active torsions:
REMARK  status: ('A' for Active; 'I' for Inactive)
REMARK    1  A    between atoms: C2_2  and  C3_3 
REMARK    2  A    between atoms: C4_6  and  C5_7 
REMARK       I    between atoms: C5_7  and  N2_9 
REMARK    3  A    between atoms: N2_9  and  C6_10 
REMARK    4  A    between atoms: C6_10  and  C7_11 
REMARK    5  A    between atoms: C6_10  and  C8_13 
REMARK       I    between atoms: C7_11  and  N3_14 
REMARK    6  A    between atoms: N3_14  and  C9_15 
REMARK    7  A    between atoms: C9_15  and  C10_16 
REMARK    8  A    between atoms: C9_15  and  C11_18 
REMARK       I    between atoms: C10_16  and  N4_21 
REMARK    9  A    between atoms: C11_18  and  C12_19 
REMARK   10  A    between atoms: C11_18  and  C13_20 
REMARK   11  A    between atoms: N4_21  and  C14_22 
REMARK   12  A    between atoms: C14_22  and  C15_23 
REMARK   13  A    between atoms: C14_22  and  C16_25 
REMARK       I    between atoms: C15_23  and  N6_40 
REMARK   14  A    between atoms: C16_25  and  C17_26 
REMARK   15  A    between atoms: C17_26  and  C18_27 
REMARK   16  A    between atoms: C17_26  and  C19_28 
REMARK   17  A    between atoms: C20_29  and  C21_30 
REMARK   18  A    between atoms: C20_29  and  C24_33 
REMARK   19  A    between atoms: C20_29  and  N6_40 
REMARK   20  A    between atoms: C21_30  and  C22_31 
REMARK   21  A    between atoms: C22_31  and  C23_32 
REMARK   22  A    between atoms: C23_32  and  O8_43 
REMARK   23  A    between atoms: C24_33  and  C25_34 
REMARK   24  A    between atoms: C28_38  and  O6_39 
REMARK   25  A    between atoms: C29_42  and  O8_43 
REMARK   26  A    between atoms: C29_42  and  C35_49 
ROOT
ATOM      1  C14 non d ame     -34.870   8.651  31.121  0.00  0.00     0.089 C 
ATOM      2  H20 non d ame     -34.000   8.952  31.705  0.00  0.00     0.087 H 
ENDROOT
BRANCH   1   3
ATOM      3  N4  non d ame     -34.812   9.358  29.851  0.00  0.00    -0.346 N 
ATOM      4  C10 non d ame     -33.640  10.250  29.528  0.00  0.00     0.241 C 
ATOM      5  O4  non d ame     -32.755  10.385  30.308  0.00  0.00    -0.271 OA
ATOM      6  H19 non d ame     -35.576   9.233  29.202  0.00  0.00     0.163 HD
BRANCH   4   7
ATOM      7  C9  non d ame     -33.594  10.972  28.207  0.00  0.00     0.092 C 
ATOM      8  H11 non d ame     -34.367  11.739  28.190  0.00  0.00     0.088 H 
BRANCH   7   9
ATOM      9  N3  non d ame     -32.304  11.653  28.066  0.00  0.00    -0.346 N 
ATOM     10  C7  non d ame     -32.252  13.092  28.002  0.00  0.00     0.240 C 
ATOM     11  O3  non d ame     -33.239  13.719  28.062  0.00  0.00    -0.271 OA
ATOM     12  H10 non d ame     -31.444  11.125  28.012  0.00  0.00     0.163 HD
BRANCH  10  13
ATOM     13  C6  non d ame     -30.876  13.811  27.849  0.00  0.00     0.086 C 
ATOM     14  H6  non d ame     -30.042  13.114  27.774  0.00  0.00     0.086 H 
BRANCH  13  15
ATOM     15  N2  non d ame     -30.882  14.586  26.620  0.00  0.00    -0.343 N 
ATOM     16  C5  non d ame     -31.000  13.897  25.333  0.00  0.00     0.273 C 
ATOM     17  O2  non d ame     -31.086  12.719  25.297  0.00  0.00    -0.266 OA
ATOM     18  H5  non d ame     -30.805  15.593  26.659  0.00  0.00     0.163 HD
BRANCH  16  19
ATOM     19  C4  non d ame     -31.009  14.704  24.025  0.00  0.00     0.154 A 
ATOM     20  C1  non d ame     -30.637  14.244  22.723  0.00  0.00    -0.017 A 
ATOM     21  C2  non d ame     -30.821  15.361  21.877  0.00  0.00     0.077 A 
ATOM     22  H1  non d ame     -30.286  13.253  22.436  0.00  0.00     0.091 H 
ATOM     23  O1  non d ame     -31.251  16.340  22.616  0.00  0.00    -0.218 OA
ATOM     24  N1  non d ame     -31.369  15.982  23.874  0.00  0.00    -0.123 NA
BRANCH  21  25
ATOM     25  C3  non d ame     -30.566  15.407  20.377  0.00  0.00    -0.029 C 
ATOM     26  H2  non d ame     -31.295  16.065  19.904  0.00  0.00     0.036 H 
ATOM     27  H3  non d ame     -29.562  15.787  20.190  0.00  0.00     0.036 H 
ATOM     28  H4  non d ame     -30.658  14.404  19.960  0.00  0.00     0.036 H 
ENDBRANCH  21  25
ENDBRANCH  16  19
ENDBRANCH  13  15
BRANCH  13  29
ATOM     29  C8  non d ame     -30.646  14.719  29.031  0.00  0.00    -0.049 C 
ATOM     30  H7  non d ame     -29.783  15.356  28.838  0.00  0.00     0.030 H 
ATOM     31  H8  non d ame     -31.527  15.340  29.189  0.00  0.00     0.030 H 
ATOM     32  H9  non d ame     -30.461  14.116  29.921  0.00  0.00     0.030 H 
ENDBRANCH  13  29
ENDBRANCH  10  13
ENDBRANCH   7   9
BRANCH   7  33
ATOM     33  C11 non d ame     -33.764   9.944  27.049  0.00  0.00    -0.033 C 
ATOM     34  H12 non d ame     -34.264   9.067  27.459  0.00  0.00     0.042 H 
BRANCH  33  35
ATOM     35  C12 non d ame     -34.670  10.513  25.913  0.00  0.00    -0.071 C 
ATOM     36  H13 non d ame     -35.012   9.696  25.277  0.00  0.00     0.028 H 
ATOM     37  H14 non d ame     -35.531  11.016  26.352  0.00  0.00     0.028 H 
ATOM     38  H15 non d ame     -34.100  11.223  25.315  0.00  0.00     0.028 H 
ENDBRANCH  33  35
BRANCH  33  39
ATOM     39  C13 non d ame     -32.375   9.493  26.494  0.00  0.00    -0.071 C 
ATOM     40  H16 non d ame     -32.057   8.585  27.006  0.00  0.00     0.028 H 
ATOM     41  H17 non d ame     -32.457   9.298  25.424  0.00  0.00     0.028 H 
ATOM     42  H18 non d ame     -31.642  10.281  26.664  0.00  0.00     0.028 H 
ENDBRANCH  33  39
ENDBRANCH   7  33
ENDBRANCH   4   7
ENDBRANCH   1   3
BRANCH   1  43
ATOM     43  C15 non d ame     -34.883   7.121  30.835  0.00  0.00     0.240 C 
ATOM     44  O5  non d ame     -35.094   6.356  31.720  0.00  0.00    -0.271 OA
ATOM     45  N6  non d ame     -34.641   6.610  29.456  0.00  0.00    -0.355 N 
ATOM     46  H46 non d ame     -34.465   7.250  28.695  0.00  0.00     0.162 HD
BRANCH  45  47
ATOM     47  C20 non d ame     -34.657   5.153  29.201  0.00  0.00     0.013 C 
ATOM     48  H30 non d ame     -34.614   4.645  30.164  0.00  0.00     0.072 H 
BRANCH  47  49
ATOM     49  C21 non d ame     -33.456   4.778  28.363  0.00  0.00    -0.038 C 
ATOM     50  H31 non d ame     -32.592   4.894  29.019  0.00  0.00     0.036 H 
ATOM     51  H32 non d ame     -33.688   3.803  27.935  0.00  0.00     0.036 H 
BRANCH  49  52
ATOM     52  C22 non d ame     -33.233   5.737  27.173  0.00  0.00     0.018 C 
ATOM     53  H33 non d ame     -34.005   6.500  27.261  0.00  0.00     0.048 H 
ATOM     54  H34 non d ame     -32.180   6.017  27.213  0.00  0.00     0.048 H 
BRANCH  52  55
ATOM     55  C23 non d ame     -33.445   5.070  25.785  0.00  0.00     0.259 C 
ATOM     56  O7  non d ame     -34.485   4.561  25.513  0.00  0.00    -0.265 OA
BRANCH  55  57
ATOM     57  O8  non d ame     -32.377   5.062  24.845  0.00  0.00    -0.317 OA
BRANCH  57  58
ATOM     58  C29 non d ame     -31.783   6.345  24.627  0.00  0.00     0.052 C 
ATOM     59  H47 non d ame     -32.093   6.961  25.471  0.00  0.00     0.082 H 
ATOM     60  H48 non d ame     -30.725   6.155  24.451  0.00  0.00     0.082 H 
BRANCH  58  61
ATOM     61  C35 non d ame     -32.396   6.943  23.332  0.00  0.00    -0.034 A 
ATOM     62  C30 non d ame     -33.416   7.886  23.416  0.00  0.00    -0.075 A 
ATOM     63  C31 non d ame     -33.967   8.422  22.252  0.00  0.00    -0.082 A 
ATOM     64  H49 non d ame     -33.784   8.204  24.391  0.00  0.00     0.084 H 
ATOM     65  C32 non d ame     -33.495   8.011  21.003  0.00  0.00    -0.083 A 
ATOM     66  H50 non d ame     -34.765   9.163  22.321  0.00  0.00     0.083 H 
ATOM     67  C33 non d ame     -32.480   7.067  20.925  0.00  0.00    -0.082 A 
ATOM     68  H51 non d ame     -33.920   8.426  20.088  0.00  0.00     0.083 H 
ATOM     69  C34 non d ame     -31.926   6.530  22.085  0.00  0.00    -0.075 A 
ATOM     70  H52 non d ame     -32.116   6.746  19.948  0.00  0.00     0.083 H 
ATOM     71  H53 non d ame     -31.128   5.790  22.016  0.00  0.00     0.084 H 
ENDBRANCH  58  61
ENDBRANCH  57  58
ENDBRANCH  55  57
ENDBRANCH  52  55
ENDBRANCH  49  52
ENDBRANCH  47  49
BRANCH  47  72
ATOM     72  C24 non d ame     -35.936   4.773  28.459  0.00  0.00    -0.039 C 
ATOM     73  H35 non d ame     -35.718   4.938  27.403  0.00  0.00     0.036 H 
ATOM     74  H36 non d ame     -36.191   3.774  28.812  0.00  0.00     0.036 H 
BRANCH  72  75
ATOM     75  C25 non d ame     -37.155   5.738  28.846  0.00  0.00    -0.001 C 
ATOM     76  C26 non d ame     -38.448   4.841  29.323  0.00  0.00    -0.035 C 
ATOM     77  C27 non d ame     -39.539   5.241  28.627  0.00  0.00     0.085 C 
ATOM     78  H38 non d ame     -38.317   3.803  29.018  0.00  0.00     0.036 H 
ATOM     79  H39 non d ame     -38.706   5.077  30.357  0.00  0.00     0.036 H 
ATOM     80  N5  non d ame     -39.043   6.100  27.487  0.00  0.00    -0.049 N 
ATOM     81  H40 non d ame     -39.976   4.329  28.221  0.00  0.00     0.075 H 
ATOM     82  H41 non d ame     -40.112   5.861  29.315  0.00  0.00     0.075 H 
ATOM     83  C28 non d ame     -37.511   6.466  27.841  0.00  0.00     0.193 C 
ATOM     84  H42 non d ame     -39.052   5.516  26.664  0.00  0.00     0.280 HD
ATOM     85  H43 non d ame     -39.591   6.948  27.511  0.00  0.00     0.280 HD
ATOM     86  H44 non d ame     -37.252   7.458  28.214  0.00  0.00     0.129 H 
ATOM     87  H37 non d ame     -36.846   6.551  29.502  0.00  0.00     0.046 H 
BRANCH  83  88
ATOM     88  O6  non d ame     -36.678   6.256  26.700  0.00  0.00    -0.369 OA
ATOM     89  H45 non d ame     -37.105   6.621  25.920  0.00  0.00     0.212 HD
ENDBRANCH  83  88
ENDBRANCH  72  75
ENDBRANCH  47  72
ENDBRANCH  45  47
ENDBRANCH   1  43
BRANCH   1  90
ATOM     90  C16 non d ame     -36.143   9.044  31.852  0.00  0.00    -0.035 C 
ATOM     91  H21 non d ame     -36.355   8.217  32.528  0.00  0.00     0.037 H 
ATOM     92  H22 non d ame     -35.950  10.040  32.252  0.00  0.00     0.037 H 
BRANCH  90  93
ATOM     93  C17 non d ame     -37.387   9.177  30.916  0.00  0.00    -0.059 C 
ATOM     94  H23 non d ame     -37.058   8.968  29.898  0.00  0.00     0.038 H 
BRANCH  93  95
ATOM     95  C18 non d ame     -38.508   8.150  31.274  0.00  0.00    -0.073 C 
ATOM     96  H24 non d ame     -38.949   8.413  32.236  0.00  0.00     0.028 H 
ATOM     97  H25 non d ame     -39.279   8.171  30.505  0.00  0.00     0.028 H 
ATOM     98  H26 non d ame     -38.079   7.150  31.333  0.00  0.00     0.028 H 
ENDBRANCH  93  95
BRANCH  93  99
ATOM     99  C19 non d ame     -37.934  10.607  30.933  0.00  0.00    -0.073 C 
ATOM    100  H27 non d ame     -37.334  11.217  31.610  0.00  0.00     0.028 H 
ATOM    101  H28 non d ame     -37.886  11.028  29.928  0.00  0.00     0.028 H 
ATOM    102  H29 non d ame     -38.969  10.597  31.273  0.00  0.00     0.028 H 
ENDBRANCH  93  99
ENDBRANCH  90  93
ENDBRANCH   1  90
TORSDOF 26
ENDMDL
MODEL 7
REMARK VINA RESULT:      -6.5      3.481      7.904
REMARK  26 active torsions:
REMARK  status: ('A' for Active; 'I' for Inactive)
REMARK    1  A    between atoms: C2_2  and  C3_3 
REMARK    2  A    between atoms: C4_6  and  C5_7 
REMARK       I    between atoms: C5_7  and  N2_9 
REMARK    3  A    between atoms: N2_9  and  C6_10 
REMARK    4  A    between atoms: C6_10  and  C7_11 
REMARK    5  A    between atoms: C6_10  and  C8_13 
REMARK       I    between atoms: C7_11  and  N3_14 
REMARK    6  A    between atoms: N3_14  and  C9_15 
REMARK    7  A    between atoms: C9_15  and  C10_16 
REMARK    8  A    between atoms: C9_15  and  C11_18 
REMARK       I    between atoms: C10_16  and  N4_21 
REMARK    9  A    between atoms: C11_18  and  C12_19 
REMARK   10  A    between atoms: C11_18  and  C13_20 
REMARK   11  A    between atoms: N4_21  and  C14_22 
REMARK   12  A    between atoms: C14_22  and  C15_23 
REMARK   13  A    between atoms: C14_22  and  C16_25 
REMARK       I    between atoms: C15_23  and  N6_40 
REMARK   14  A    between atoms: C16_25  and  C17_26 
REMARK   15  A    between atoms: C17_26  and  C18_27 
REMARK   16  A    between atoms: C17_26  and  C19_28 
REMARK   17  A    between atoms: C20_29  and  C21_30 
REMARK   18  A    between atoms: C20_29  and  C24_33 
REMARK   19  A    between atoms: C20_29  and  N6_40 
REMARK   20  A    between atoms: C21_30  and  C22_31 
REMARK   21  A    between atoms: C22_31  and  C23_32 
REMARK   22  A    between atoms: C23_32  and  O8_43 
REMARK   23  A    between atoms: C24_33  and  C25_34 
REMARK   24  A    between atoms: C28_38  and  O6_39 
REMARK   25  A    between atoms: C29_42  and  O8_43 
REMARK   26  A    between atoms: C29_42  and  C35_49 
ROOT
ATOM      1  C14 non d ame     -36.982  14.041  24.663  0.00  0.00     0.089 C 
ATOM      2  H20 non d ame     -36.953  13.949  23.577  0.00  0.00     0.087 H 
ENDROOT
BRANCH   1   3
ATOM      3  N4  non d ame     -36.638  12.742  25.222  0.00  0.00    -0.346 N 
ATOM      4  C10 non d ame     -36.796  11.491  24.396  0.00  0.00     0.241 C 
ATOM      5  O4  non d ame     -37.204  11.553  23.284  0.00  0.00    -0.271 OA
ATOM      6  H19 non d ame     -36.295  12.710  26.172  0.00  0.00     0.163 HD
BRANCH   4   7
ATOM      7  C9  non d ame     -36.430  10.155  24.990  0.00  0.00     0.092 C 
ATOM      8  H11 non d ame     -36.542   9.383  24.230  0.00  0.00     0.088 H 
BRANCH   7   9
ATOM      9  N3  non d ame     -35.020  10.168  25.391  0.00  0.00    -0.346 N 
ATOM     10  C7  non d ame     -34.103   9.206  24.831  0.00  0.00     0.240 C 
ATOM     11  O3  non d ame     -34.483   8.415  24.057  0.00  0.00    -0.271 OA
ATOM     12  H10 non d ame     -34.679  10.844  26.059  0.00  0.00     0.163 HD
BRANCH  10  13
ATOM     13  C6  non d ame     -32.605   9.222  25.265  0.00  0.00     0.086 C 
ATOM     14  H6  non d ame     -32.024   8.423  24.804  0.00  0.00     0.086 H 
BRANCH  13  15
ATOM     15  N2  non d ame     -32.003  10.473  24.836  0.00  0.00    -0.343 N 
ATOM     16  C5  non d ame     -31.186  10.502  23.621  0.00  0.00     0.273 C 
ATOM     17  O2  non d ame     -31.016   9.513  22.997  0.00  0.00    -0.266 OA
ATOM     18  H5  non d ame     -32.151  11.313  25.377  0.00  0.00     0.163 HD
BRANCH  16  19
ATOM     19  C4  non d ame     -30.544  11.819  23.156  0.00  0.00     0.154 A 
ATOM     20  C1  non d ame     -30.768  13.127  23.693  0.00  0.00    -0.017 A 
ATOM     21  C2  non d ame     -29.947  13.980  22.922  0.00  0.00     0.077 A 
ATOM     22  H1  non d ame     -31.424  13.412  24.515  0.00  0.00     0.091 H 
ATOM     23  O1  non d ame     -29.329  13.241  22.050  0.00  0.00    -0.218 OA
ATOM     24  N1  non d ame     -29.661  11.975  22.167  0.00  0.00    -0.123 NA
BRANCH  21  25
ATOM     25  C3  non d ame     -29.811  15.488  23.085  0.00  0.00    -0.029 C 
ATOM     26  H2  non d ame     -29.638  15.727  24.133  0.00  0.00     0.036 H 
ATOM     27  H3  non d ame     -28.970  15.844  22.489  0.00  0.00     0.036 H 
ATOM     28  H4  non d ame     -30.726  15.975  22.748  0.00  0.00     0.036 H 
ENDBRANCH  21  25
ENDBRANCH  16  19
ENDBRANCH  13  15
BRANCH  13  29
ATOM     29  C8  non d ame     -32.510   9.090  26.763  0.00  0.00    -0.049 C 
ATOM     30  H7  non d ame     -33.046   9.912  27.236  0.00  0.00     0.030 H 
ATOM     31  H8  non d ame     -32.953   8.143  27.073  0.00  0.00     0.030 H 
ATOM     32  H9  non d ame     -31.463   9.118  27.065  0.00  0.00     0.030 H 
ENDBRANCH  13  29
ENDBRANCH  10  13
ENDBRANCH   7   9
BRANCH   7  33
ATOM     33  C11 non d ame     -37.320   9.883  26.239  0.00  0.00    -0.033 C 
ATOM     34  H12 non d ame     -37.616  10.848  26.649  0.00  0.00     0.042 H 
BRANCH  33  35
ATOM     35  C12 non d ame     -38.623   9.118  25.851  0.00  0.00    -0.071 C 
ATOM     36  H13 non d ame     -39.444   9.828  25.748  0.00  0.00     0.028 H 
ATOM     37  H14 non d ame     -38.472   8.598  24.906  0.00  0.00     0.028 H 
ATOM     38  H15 non d ame     -38.866   8.395  26.630  0.00  0.00     0.028 H 
ENDBRANCH  33  35
BRANCH  33  39
ATOM     39  C13 non d ame     -36.519   9.116  27.339  0.00  0.00    -0.071 C 
ATOM     40  H16 non d ame     -35.963   8.298  26.880  0.00  0.00     0.028 H 
ATOM     41  H17 non d ame     -35.823   9.800  27.826  0.00  0.00     0.028 H 
ATOM     42  H18 non d ame     -37.210   8.715  28.080  0.00  0.00     0.028 H 
ENDBRANCH  33  39
ENDBRANCH   7  33
ENDBRANCH   4   7
ENDBRANCH   1   3
BRANCH   1  43
ATOM     43  C15 non d ame     -35.963  15.092  25.189  0.00  0.00     0.240 C 
ATOM     44  O5  non d ame     -34.965  15.305  24.580  0.00  0.00    -0.271 OA
ATOM     45  N6  non d ame     -36.236  15.843  26.448  0.00  0.00    -0.355 N 
ATOM     46  H46 non d ame     -37.084  15.674  26.972  0.00  0.00     0.162 HD
BRANCH  45  47
ATOM     47  C20 non d ame     -35.258  16.840  26.934  0.00  0.00     0.013 C 
ATOM     48  H30 non d ame     -34.585  17.077  26.110  0.00  0.00     0.072 H 
BRANCH  47  49
ATOM     49  C21 non d ame     -34.478  16.253  28.088  0.00  0.00    -0.038 C 
ATOM     50  H31 non d ame     -34.814  16.791  28.975  0.00  0.00     0.036 H 
ATOM     51  H32 non d ame     -34.617  15.174  28.019  0.00  0.00     0.036 H 
BRANCH  49  52
ATOM     52  C22 non d ame     -32.958  16.505  27.974  0.00  0.00     0.018 C 
ATOM     53  H33 non d ame     -32.850  17.572  27.784  0.00  0.00     0.048 H 
ATOM     54  H34 non d ame     -32.518  16.062  28.867  0.00  0.00     0.048 H 
BRANCH  52  55
ATOM     55  C23 non d ame     -32.294  15.785  26.768  0.00  0.00     0.259 C 
ATOM     56  O7  non d ame     -31.843  16.413  25.864  0.00  0.00    -0.265 OA
BRANCH  55  57
ATOM     57  O8  non d ame     -32.241  14.363  26.747  0.00  0.00    -0.317 OA
BRANCH  57  58
ATOM     58  C29 non d ame     -31.063  13.815  27.346  0.00  0.00     0.052 C 
ATOM     59  H47 non d ame     -30.604  13.193  26.578  0.00  0.00     0.082 H 
ATOM     60  H48 non d ame     -30.519  14.664  27.758  0.00  0.00     0.082 H 
BRANCH  58  61
ATOM     61  C35 non d ame     -31.505  12.901  28.520  0.00  0.00    -0.034 A 
ATOM     62  C30 non d ame     -32.779  12.341  28.525  0.00  0.00    -0.075 A 
ATOM     63  C31 non d ame     -33.177  11.521  29.580  0.00  0.00    -0.082 A 
ATOM     64  H49 non d ame     -33.467  12.546  27.704  0.00  0.00     0.084 H 
ATOM     65  C32 non d ame     -32.296  11.261  30.633  0.00  0.00    -0.083 A 
ATOM     66  H50 non d ame     -34.176  11.082  29.580  0.00  0.00     0.083 H 
ATOM     67  C33 non d ame     -31.027  11.825  30.625  0.00  0.00    -0.082 A 
ATOM     68  H51 non d ame     -32.598  10.620  31.461  0.00  0.00     0.083 H 
ATOM     69  C34 non d ame     -30.625  12.645  29.573  0.00  0.00    -0.075 A 
ATOM     70  H52 non d ame     -30.342  11.623  31.450  0.00  0.00     0.083 H 
ATOM     71  H53 non d ame     -29.627  13.082  29.573  0.00  0.00     0.084 H 
ENDBRANCH  58  61
ENDBRANCH  57  58
ENDBRANCH  55  57
ENDBRANCH  52  55
ENDBRANCH  49  52
ENDBRANCH  47  49
BRANCH  47  72
ATOM     72  C24 non d ame     -35.990  18.097  27.399  0.00  0.00    -0.039 C 
ATOM     73  H35 non d ame     -37.027  17.959  27.089  0.00  0.00     0.036 H 
ATOM     74  H36 non d ame     -35.747  18.200  28.457  0.00  0.00     0.036 H 
BRANCH  72  75
ATOM     75  C25 non d ame     -35.445  19.408  26.659  0.00  0.00    -0.001 C 
ATOM     76  C26 non d ame     -34.190  19.014  25.673  0.00  0.00    -0.035 C 
ATOM     77  C27 non d ame     -33.147  19.835  25.943  0.00  0.00     0.085 C 
ATOM     78  H38 non d ame     -33.809  18.026  25.929  0.00  0.00     0.036 H 
ATOM     79  H39 non d ame     -34.438  19.250  24.638  0.00  0.00     0.036 H 
ATOM     80  N5  non d ame     -33.463  20.535  27.244  0.00  0.00    -0.049 N 
ATOM     81  H40 non d ame     -32.290  19.178  26.092  0.00  0.00     0.075 H 
ATOM     82  H41 non d ame     -33.138  20.569  25.138  0.00  0.00     0.075 H 
ATOM     83  C28 non d ame     -35.036  20.289  27.510  0.00  0.00     0.193 C 
ATOM     84  H42 non d ame     -32.937  20.057  27.961  0.00  0.00     0.280 HD
ATOM     85  H43 non d ame     -33.314  21.521  27.080  0.00  0.00     0.280 HD
ATOM     86  H44 non d ame     -35.759  21.086  27.332  0.00  0.00     0.129 H 
ATOM     87  H37 non d ame     -36.250  20.001  26.224  0.00  0.00     0.046 H 
BRANCH  83  88
ATOM     88  O6  non d ame     -35.249  19.874  28.860  0.00  0.00    -0.369 OA
ATOM     89  H45 non d ame     -34.573  20.258  29.424  0.00  0.00     0.212 HD
ENDBRANCH  83  88
ENDBRANCH  72  75
ENDBRANCH  47  72
ENDBRANCH  45  47
ENDBRANCH   1  43
BRANCH   1  90
ATOM     90  C16 non d ame     -38.384  14.419  25.111  0.00  0.00    -0.035 C 
ATOM     91  H21 non d ame     -38.699  13.621  25.780  0.00  0.00     0.037 H 
ATOM     92  H22 non d ame     -38.303  15.442  25.480  0.00  0.00     0.037 H 
BRANCH  90  93
ATOM     93  C17 non d ame     -39.426  14.453  23.946  0.00  0.00    -0.059 C 
ATOM     94  H23 non d ame     -39.898  13.472  23.898  0.00  0.00     0.038 H 
BRANCH  93  95
ATOM     95  C18 non d ame     -40.549  15.510  24.190  0.00  0.00    -0.073 C 
ATOM     96  H24 non d ame     -41.521  15.063  23.983  0.00  0.00     0.028 H 
ATOM     97  H25 non d ame     -40.517  15.842  25.228  0.00  0.00     0.028 H 
ATOM     98  H26 non d ame     -40.394  16.364  23.531  0.00  0.00     0.028 H 
ENDBRANCH  93  95
BRANCH  93  99
ATOM     99  C19 non d ame     -38.735  14.693  22.601  0.00  0.00    -0.073 C 
ATOM    100  H27 non d ame     -38.758  13.775  22.012  0.00  0.00     0.028 H 
ATOM    101  H28 non d ame     -39.255  15.484  22.061  0.00  0.00     0.028 H 
ATOM    102  H29 non d ame     -37.700  14.989  22.772  0.00  0.00     0.028 H 
ENDBRANCH  93  99
ENDBRANCH  90  93
ENDBRANCH   1  90
TORSDOF 26
ENDMDL
MODEL 8
REMARK VINA RESULT:      -6.5      3.129      9.300
REMARK  26 active torsions:
REMARK  status: ('A' for Active; 'I' for Inactive)
REMARK    1  A    between atoms: C2_2  and  C3_3 
REMARK    2  A    between atoms: C4_6  and  C5_7 
REMARK       I    between atoms: C5_7  and  N2_9 
REMARK    3  A    between atoms: N2_9  and  C6_10 
REMARK    4  A    between atoms: C6_10  and  C7_11 
REMARK    5  A    between atoms: C6_10  and  C8_13 
REMARK       I    between atoms: C7_11  and  N3_14 
REMARK    6  A    between atoms: N3_14  and  C9_15 
REMARK    7  A    between atoms: C9_15  and  C10_16 
REMARK    8  A    between atoms: C9_15  and  C11_18 
REMARK       I    between atoms: C10_16  and  N4_21 
REMARK    9  A    between atoms: C11_18  and  C12_19 
REMARK   10  A    between atoms: C11_18  and  C13_20 
REMARK   11  A    between atoms: N4_21  and  C14_22 
REMARK   12  A    between atoms: C14_22  and  C15_23 
REMARK   13  A    between atoms: C14_22  and  C16_25 
REMARK       I    between atoms: C15_23  and  N6_40 
REMARK   14  A    between atoms: C16_25  and  C17_26 
REMARK   15  A    between atoms: C17_26  and  C18_27 
REMARK   16  A    between atoms: C17_26  and  C19_28 
REMARK   17  A    between atoms: C20_29  and  C21_30 
REMARK   18  A    between atoms: C20_29  and  C24_33 
REMARK   19  A    between atoms: C20_29  and  N6_40 
REMARK   20  A    between atoms: C21_30  and  C22_31 
REMARK   21  A    between atoms: C22_31  and  C23_32 
REMARK   22  A    between atoms: C23_32  and  O8_43 
REMARK   23  A    between atoms: C24_33  and  C25_34 
REMARK   24  A    between atoms: C28_38  and  O6_39 
REMARK   25  A    between atoms: C29_42  and  O8_43 
REMARK   26  A    between atoms: C29_42  and  C35_49 
ROOT
ATOM      1  C14 non d ame     -35.614   9.645  26.602  0.00  0.00     0.089 C 
ATOM      2  H20 non d ame     -36.628   9.347  26.873  0.00  0.00     0.087 H 
ENDROOT
BRANCH   1   3
ATOM      3  N4  non d ame     -34.815   9.639  27.819  0.00  0.00    -0.346 N 
ATOM      4  C10 non d ame     -35.436  10.014  29.140  0.00  0.00     0.241 C 
ATOM      5  O4  non d ame     -36.582  10.320  29.200  0.00  0.00    -0.271 OA
ATOM      6  H19 non d ame     -33.842   9.379  27.746  0.00  0.00     0.163 HD
BRANCH   4   7
ATOM      7  C9  non d ame     -34.596   9.999  30.390  0.00  0.00     0.092 C 
ATOM      8  H11 non d ame     -33.953   9.119  30.378  0.00  0.00     0.088 H 
BRANCH   7   9
ATOM      9  N3  non d ame     -33.721  11.175  30.406  0.00  0.00    -0.346 N 
ATOM     10  C7  non d ame     -32.533  11.201  29.589  0.00  0.00     0.240 C 
ATOM     11  O3  non d ame     -32.266  10.284  28.913  0.00  0.00    -0.271 OA
ATOM     12  H10 non d ame     -33.939  11.973  30.985  0.00  0.00     0.163 HD
BRANCH  10  13
ATOM     13  C6  non d ame     -31.605  12.455  29.613  0.00  0.00     0.086 C 
ATOM     14  H6  non d ame     -30.806  12.401  28.874  0.00  0.00     0.086 H 
BRANCH  13  15
ATOM     15  N2  non d ame     -32.393  13.632  29.288  0.00  0.00    -0.343 N 
ATOM     16  C5  non d ame     -31.892  14.584  28.295  0.00  0.00     0.273 C 
ATOM     17  O2  non d ame     -30.853  14.396  27.764  0.00  0.00    -0.266 OA
ATOM     18  H5  non d ame     -33.279  13.786  29.748  0.00  0.00     0.163 HD
BRANCH  16  19
ATOM     19  C4  non d ame     -32.716  15.833  27.941  0.00  0.00     0.154 A 
ATOM     20  C1  non d ame     -32.798  16.483  26.670  0.00  0.00    -0.017 A 
ATOM     21  C2  non d ame     -33.677  17.570  26.874  0.00  0.00     0.077 A 
ATOM     22  H1  non d ame     -32.296  16.209  25.742  0.00  0.00     0.091 H 
ATOM     23  O1  non d ame     -34.053  17.537  28.118  0.00  0.00    -0.218 OA
ATOM     24  N1  non d ame     -33.505  16.532  28.762  0.00  0.00    -0.123 NA
BRANCH  21  25
ATOM     25  C3  non d ame     -34.108  18.589  25.828  0.00  0.00    -0.029 C 
ATOM     26  H2  non d ame     -33.525  19.502  25.948  0.00  0.00     0.036 H 
ATOM     27  H3  non d ame     -33.940  18.181  24.831  0.00  0.00     0.036 H 
ATOM     28  H4  non d ame     -35.167  18.815  25.954  0.00  0.00     0.036 H 
ENDBRANCH  21  25
ENDBRANCH  16  19
ENDBRANCH  13  15
BRANCH  13  29
ATOM     29  C8  non d ame     -30.993  12.604  30.982  0.00  0.00    -0.049 C 
ATOM     30  H7  non d ame     -31.313  11.778  31.616  0.00  0.00     0.030 H 
ATOM     31  H8  non d ame     -29.906  12.596  30.897  0.00  0.00     0.030 H 
ATOM     32  H9  non d ame     -31.316  13.548  31.424  0.00  0.00     0.030 H 
ENDBRANCH  13  29
ENDBRANCH  10  13
ENDBRANCH   7   9
BRANCH   7  33
ATOM     33  C11 non d ame     -35.525  10.029  31.639  0.00  0.00    -0.033 C 
ATOM     34  H12 non d ame     -36.548  10.154  31.285  0.00  0.00     0.042 H 
BRANCH  33  35
ATOM     35  C12 non d ame     -35.462   8.683  32.426  0.00  0.00    -0.071 C 
ATOM     36  H13 non d ame     -35.891   8.822  33.419  0.00  0.00     0.028 H 
ATOM     37  H14 non d ame     -36.027   7.921  31.890  0.00  0.00     0.028 H 
ATOM     38  H15 non d ame     -34.424   8.366  32.522  0.00  0.00     0.028 H 
ENDBRANCH  33  35
BRANCH  33  39
ATOM     39  C13 non d ame     -35.181  11.242  32.562  0.00  0.00    -0.071 C 
ATOM     40  H16 non d ame     -34.286  11.740  32.190  0.00  0.00     0.028 H 
ATOM     41  H17 non d ame     -36.015  11.946  32.564  0.00  0.00     0.028 H 
ATOM     42  H18 non d ame     -35.005  10.888  33.577  0.00  0.00     0.028 H 
ENDBRANCH  33  39
ENDBRANCH   7  33
ENDBRANCH   4   7
ENDBRANCH   1   3
BRANCH   1  43
ATOM     43  C15 non d ame     -34.969   8.664  25.581  0.00  0.00     0.240 C 
ATOM     44  O5  non d ame     -35.655   8.090  24.799  0.00  0.00    -0.271 OA
ATOM     45  N6  non d ame     -33.494   8.447  25.573  0.00  0.00    -0.355 N 
ATOM     46  H46 non d ame     -32.900   8.933  26.230  0.00  0.00     0.162 HD
BRANCH  45  47
ATOM     47  C20 non d ame     -32.896   7.512  24.595  0.00  0.00     0.013 C 
ATOM     48  H30 non d ame     -33.704   7.097  23.992  0.00  0.00     0.072 H 
BRANCH  47  49
ATOM     49  C21 non d ame     -32.181   6.405  25.335  0.00  0.00    -0.038 C 
ATOM     50  H31 non d ame     -31.637   5.845  24.574  0.00  0.00     0.036 H 
ATOM     51  H32 non d ame     -31.637   6.895  26.144  0.00  0.00     0.036 H 
BRANCH  49  52
ATOM     52  C22 non d ame     -33.151   5.406  26.003  0.00  0.00     0.018 C 
ATOM     53  H33 non d ame     -34.152   5.761  25.761  0.00  0.00     0.048 H 
ATOM     54  H34 non d ame     -32.828   4.418  25.676  0.00  0.00     0.048 H 
BRANCH  52  55
ATOM     55  C23 non d ame     -33.065   5.393  27.555  0.00  0.00     0.259 C 
ATOM     56  O7  non d ame     -32.155   4.859  28.104  0.00  0.00    -0.265 OA
BRANCH  55  57
ATOM     57  O8  non d ame     -34.094   6.015  28.316  0.00  0.00    -0.317 OA
BRANCH  57  58
ATOM     58  C29 non d ame     -35.396   5.903  27.735  0.00  0.00     0.052 C 
ATOM     59  H47 non d ame     -35.449   6.684  26.977  0.00  0.00     0.082 H 
ATOM     60  H48 non d ame     -35.504   4.858  27.449  0.00  0.00     0.082 H 
BRANCH  58  61
ATOM     61  C35 non d ame     -36.441   6.219  28.839  0.00  0.00    -0.034 A 
ATOM     62  C30 non d ame     -37.518   7.055  28.560  0.00  0.00    -0.075 A 
ATOM     63  C31 non d ame     -38.456   7.339  29.552  0.00  0.00    -0.082 A 
ATOM     64  H49 non d ame     -37.627   7.488  27.566  0.00  0.00     0.084 H 
ATOM     65  C32 non d ame     -38.313   6.784  30.827  0.00  0.00    -0.083 A 
ATOM     66  H50 non d ame     -39.300   7.993  29.330  0.00  0.00     0.083 H 
ATOM     67  C33 non d ame     -37.235   5.954  31.101  0.00  0.00    -0.082 A 
ATOM     68  H51 non d ame     -39.043   7.001  31.608  0.00  0.00     0.083 H 
ATOM     69  C34 non d ame     -36.296   5.666  30.113  0.00  0.00    -0.075 A 
ATOM     70  H52 non d ame     -37.125   5.525  32.098  0.00  0.00     0.083 H 
ATOM     71  H53 non d ame     -35.453   5.012  30.335  0.00  0.00     0.084 H 
ENDBRANCH  58  61
ENDBRANCH  57  58
ENDBRANCH  55  57
ENDBRANCH  52  55
ENDBRANCH  49  52
ENDBRANCH  47  49
BRANCH  47  72
ATOM     72  C24 non d ame     -31.902   8.259  23.708  0.00  0.00    -0.039 C 
ATOM     73  H35 non d ame     -31.863   9.273  24.107  0.00  0.00     0.036 H 
ATOM     74  H36 non d ame     -31.003   7.643  23.697  0.00  0.00     0.036 H 
BRANCH  72  75
ATOM     75  C25 non d ame     -32.420   8.366  22.196  0.00  0.00    -0.001 C 
ATOM     76  C26 non d ame     -33.817   7.516  22.022  0.00  0.00    -0.035 C 
ATOM     77  C27 non d ame     -33.691   6.680  20.964  0.00  0.00     0.085 C 
ATOM     78  H38 non d ame     -33.952   6.840  22.866  0.00  0.00     0.036 H 
ATOM     79  H39 non d ame     -34.627   8.184  21.724  0.00  0.00     0.036 H 
ATOM     80  N5  non d ame     -32.225   6.644  20.602  0.00  0.00    -0.049 N 
ATOM     81  H40 non d ame     -33.992   5.699  21.331  0.00  0.00     0.075 H 
ATOM     82  H41 non d ame     -34.246   7.151  20.153  0.00  0.00     0.075 H 
ATOM     83  C28 non d ame     -31.549   7.893  21.369  0.00  0.00     0.193 C 
ATOM     84  H42 non d ame     -31.856   5.790  20.992  0.00  0.00     0.280 HD
ATOM     85  H43 non d ame     -32.174   6.811  19.607  0.00  0.00     0.280 HD
ATOM     86  H44 non d ame     -31.283   8.799  20.823  0.00  0.00     0.129 H 
ATOM     87  H37 non d ame     -32.415   9.392  21.829  0.00  0.00     0.046 H 
BRANCH  83  88
ATOM     88  O6  non d ame     -30.351   7.477  22.027  0.00  0.00    -0.369 OA
ATOM     89  H45 non d ame     -30.451   7.590  22.976  0.00  0.00     0.212 HD
ENDBRANCH  83  88
ENDBRANCH  72  75
ENDBRANCH  47  72
ENDBRANCH  45  47
ENDBRANCH   1  43
BRANCH   1  90
ATOM     90  C16 non d ame     -35.627  11.050  26.022  0.00  0.00    -0.035 C 
ATOM     91  H21 non d ame     -35.320  10.936  24.984  0.00  0.00     0.037 H 
ATOM     92  H22 non d ame     -36.613  11.450  26.260  0.00  0.00     0.037 H 
BRANCH  90  93
ATOM     93  C17 non d ame     -34.589  12.010  26.685  0.00  0.00    -0.059 C 
ATOM     94  H23 non d ame     -34.345  11.605  27.667  0.00  0.00     0.038 H 
BRANCH  93  95
ATOM     95  C18 non d ame     -33.263  12.102  25.865  0.00  0.00    -0.073 C 
ATOM     96  H24 non d ame     -32.841  13.102  25.966  0.00  0.00     0.028 H 
ATOM     97  H25 non d ame     -32.551  11.369  26.243  0.00  0.00     0.028 H 
ATOM     98  H26 non d ame     -33.471  11.899  24.815  0.00  0.00     0.028 H 
ENDBRANCH  93  95
BRANCH  93  99
ATOM     99  C19 non d ame     -35.191  13.401  26.903  0.00  0.00    -0.073 C 
ATOM    100  H27 non d ame     -35.940  13.352  27.695  0.00  0.00     0.028 H 
ATOM    101  H28 non d ame     -34.404  14.098  27.192  0.00  0.00     0.028 H 
ATOM    102  H29 non d ame     -35.659  13.743  25.981  0.00  0.00     0.028 H 
ENDBRANCH  93  99
ENDBRANCH  90  93
ENDBRANCH   1  90
TORSDOF 26
ENDMDL
MODEL 9
REMARK VINA RESULT:      -6.5      2.957      6.181
REMARK  26 active torsions:
REMARK  status: ('A' for Active; 'I' for Inactive)
REMARK    1  A    between atoms: C2_2  and  C3_3 
REMARK    2  A    between atoms: C4_6  and  C5_7 
REMARK       I    between atoms: C5_7  and  N2_9 
REMARK    3  A    between atoms: N2_9  and  C6_10 
REMARK    4  A    between atoms: C6_10  and  C7_11 
REMARK    5  A    between atoms: C6_10  and  C8_13 
REMARK       I    between atoms: C7_11  and  N3_14 
REMARK    6  A    between atoms: N3_14  and  C9_15 
REMARK    7  A    between atoms: C9_15  and  C10_16 
REMARK    8  A    between atoms: C9_15  and  C11_18 
REMARK       I    between atoms: C10_16  and  N4_21 
REMARK    9  A    between atoms: C11_18  and  C12_19 
REMARK   10  A    between atoms: C11_18  and  C13_20 
REMARK   11  A    between atoms: N4_21  and  C14_22 
REMARK   12  A    between atoms: C14_22  and  C15_23 
REMARK   13  A    between atoms: C14_22  and  C16_25 
REMARK       I    between atoms: C15_23  and  N6_40 
REMARK   14  A    between atoms: C16_25  and  C17_26 
REMARK   15  A    between atoms: C17_26  and  C18_27 
REMARK   16  A    between atoms: C17_26  and  C19_28 
REMARK   17  A    between atoms: C20_29  and  C21_30 
REMARK   18  A    between atoms: C20_29  and  C24_33 
REMARK   19  A    between atoms: C20_29  and  N6_40 
REMARK   20  A    between atoms: C21_30  and  C22_31 
REMARK   21  A    between atoms: C22_31  and  C23_32 
REMARK   22  A    between atoms: C23_32  and  O8_43 
REMARK   23  A    between atoms: C24_33  and  C25_34 
REMARK   24  A    between atoms: C28_38  and  O6_39 
REMARK   25  A    between atoms: C29_42  and  O8_43 
REMARK   26  A    between atoms: C29_42  and  C35_49 
ROOT
ATOM      1  C14 non d ame     -32.295   9.588  25.303  0.00  0.00     0.089 C 
ATOM      2  H20 non d ame     -31.693   8.769  25.696  0.00  0.00     0.087 H 
ENDROOT
BRANCH   1   3
ATOM      3  N4  non d ame     -33.496   9.682  26.120  0.00  0.00    -0.346 N 
ATOM      4  C10 non d ame     -33.525   9.083  27.503  0.00  0.00     0.241 C 
ATOM      5  O4  non d ame     -32.570   8.529  27.937  0.00  0.00    -0.271 OA
ATOM      6  H19 non d ame     -34.299  10.155  25.730  0.00  0.00     0.163 HD
BRANCH   4   7
ATOM      7  C9  non d ame     -34.774   9.193  28.336  0.00  0.00     0.092 C 
ATOM      8  H11 non d ame     -35.056  10.242  28.424  0.00  0.00     0.088 H 
BRANCH   7   9
ATOM      9  N3  non d ame     -35.877   8.504  27.659  0.00  0.00    -0.346 N 
ATOM     10  C7  non d ame     -36.784   9.247  26.819  0.00  0.00     0.240 C 
ATOM     11  O3  non d ame     -36.642  10.400  26.679  0.00  0.00    -0.271 OA
ATOM     12  H10 non d ame     -36.012   7.510  27.772  0.00  0.00     0.163 HD
BRANCH  10  13
ATOM     13  C6  non d ame     -37.957   8.509  26.103  0.00  0.00     0.086 C 
ATOM     14  H6  non d ame     -38.921   8.989  26.269  0.00  0.00     0.086 H 
BRANCH  13  15
ATOM     15  N2  non d ame     -37.723   8.531  24.669  0.00  0.00    -0.343 N 
ATOM     16  C5  non d ame     -36.433   8.080  24.142  0.00  0.00     0.273 C 
ATOM     17  O2  non d ame     -35.589   7.704  24.879  0.00  0.00    -0.266 OA
ATOM     18  H5  non d ame     -38.448   8.856  24.046  0.00  0.00     0.163 HD
BRANCH  16  19
ATOM     19  C4  non d ame     -36.173   8.097  22.627  0.00  0.00     0.154 A 
ATOM     20  C1  non d ame     -35.748   7.001  21.810  0.00  0.00    -0.017 A 
ATOM     21  C2  non d ame     -35.657   7.535  20.506  0.00  0.00     0.077 A 
ATOM     22  H1  non d ame     -35.539   5.977  22.117  0.00  0.00     0.091 H 
ATOM     23  O1  non d ame     -35.993   8.790  20.575  0.00  0.00    -0.218 OA
ATOM     24  N1  non d ame     -36.298   9.141  21.804  0.00  0.00    -0.123 NA
BRANCH  21  25
ATOM     25  C3  non d ame     -35.244   6.781  19.249  0.00  0.00    -0.029 C 
ATOM     26  H2  non d ame     -34.372   6.164  19.466  0.00  0.00     0.036 H 
ATOM     27  H3  non d ame     -36.065   6.143  18.921  0.00  0.00     0.036 H 
ATOM     28  H4  non d ame     -34.999   7.492  18.461  0.00  0.00     0.036 H 
ENDBRANCH  21  25
ENDBRANCH  16  19
ENDBRANCH  13  15
BRANCH  13  29
ATOM     29  C8  non d ame     -38.032   7.085  26.593  0.00  0.00    -0.049 C 
ATOM     30  H7  non d ame     -38.795   6.547  26.032  0.00  0.00     0.030 H 
ATOM     31  H8  non d ame     -37.067   6.600  26.450  0.00  0.00     0.030 H 
ATOM     32  H9  non d ame     -38.289   7.079  27.653  0.00  0.00     0.030 H 
ENDBRANCH  13  29
ENDBRANCH  10  13
ENDBRANCH   7   9
BRANCH   7  33
ATOM     33  C11 non d ame     -34.530   8.533  29.726  0.00  0.00    -0.033 C 
ATOM     34  H12 non d ame     -33.455   8.397  29.840  0.00  0.00     0.042 H 
BRANCH  33  35
ATOM     35  C12 non d ame     -35.012   9.459  30.886  0.00  0.00    -0.071 C 
ATOM     36  H13 non d ame     -34.460  10.399  30.854  0.00  0.00     0.028 H 
ATOM     37  H14 non d ame     -36.077   9.659  30.774  0.00  0.00     0.028 H 
ATOM     38  H15 non d ame     -34.833   8.966  31.842  0.00  0.00     0.028 H 
ENDBRANCH  33  35
BRANCH  33  39
ATOM     39  C13 non d ame     -35.207   7.128  29.804  0.00  0.00    -0.071 C 
ATOM     40  H16 non d ame     -34.439   6.360  29.905  0.00  0.00     0.028 H 
ATOM     41  H17 non d ame     -35.874   7.092  30.666  0.00  0.00     0.028 H 
ATOM     42  H18 non d ame     -35.781   6.949  28.894  0.00  0.00     0.028 H 
ENDBRANCH  33  39
ENDBRANCH   7  33
ENDBRANCH   4   7
ENDBRANCH   1   3
BRANCH   1  43
ATOM     43  C15 non d ame     -31.546  10.951  25.366  0.00  0.00     0.240 C 
ATOM     44  O5  non d ame     -31.044  11.302  26.384  0.00  0.00    -0.271 OA
ATOM     45  N6  non d ame     -31.444  11.812  24.154  0.00  0.00    -0.355 N 
ATOM     46  H46 non d ame     -31.862  11.522  23.281  0.00  0.00     0.162 HD
BRANCH  45  47
ATOM     47  C20 non d ame     -30.728  13.104  24.231  0.00  0.00     0.013 C 
ATOM     48  H30 non d ame     -29.892  12.982  24.919  0.00  0.00     0.072 H 
BRANCH  47  49
ATOM     49  C21 non d ame     -31.670  14.169  24.743  0.00  0.00    -0.038 C 
ATOM     50  H31 non d ame     -31.621  14.980  24.017  0.00  0.00     0.036 H 
ATOM     51  H32 non d ame     -32.616  13.660  24.929  0.00  0.00     0.036 H 
BRANCH  49  52
ATOM     52  C22 non d ame     -31.222  14.765  26.096  0.00  0.00     0.018 C 
ATOM     53  H33 non d ame     -31.275  13.946  26.811  0.00  0.00     0.048 H 
ATOM     54  H34 non d ame     -30.270  15.257  25.899  0.00  0.00     0.048 H 
BRANCH  52  55
ATOM     55  C23 non d ame     -32.171  15.870  26.638  0.00  0.00     0.259 C 
ATOM     56  O7  non d ame     -32.554  16.739  25.924  0.00  0.00    -0.265 OA
BRANCH  55  57
ATOM     57  O8  non d ame     -32.567  15.839  28.004  0.00  0.00    -0.317 OA
BRANCH  57  58
ATOM     58  C29 non d ame     -33.411  14.734  28.341  0.00  0.00     0.052 C 
ATOM     59  H47 non d ame     -34.192  15.144  28.981  0.00  0.00     0.082 H 
ATOM     60  H48 non d ame     -33.672  14.262  27.395  0.00  0.00     0.082 H 
BRANCH  58  61
ATOM     61  C35 non d ame     -32.571  13.728  29.174  0.00  0.00    -0.034 A 
ATOM     62  C30 non d ame     -31.454  14.170  29.877  0.00  0.00    -0.075 A 
ATOM     63  C31 non d ame     -30.698  13.266  30.625  0.00  0.00    -0.082 A 
ATOM     64  H49 non d ame     -31.169  15.221  29.842  0.00  0.00     0.084 H 
ATOM     65  C32 non d ame     -31.063  11.918  30.666  0.00  0.00    -0.083 A 
ATOM     66  H50 non d ame     -29.824  13.615  31.177  0.00  0.00     0.083 H 
ATOM     67  C33 non d ame     -32.176  11.483  29.960  0.00  0.00    -0.082 A 
ATOM     68  H51 non d ame     -30.479  11.206  31.249  0.00  0.00     0.083 H 
ATOM     69  C34 non d ame     -32.934  12.382  29.213  0.00  0.00    -0.075 A 
ATOM     70  H52 non d ame     -32.457  10.429  29.992  0.00  0.00     0.083 H 
ATOM     71  H53 non d ame     -33.808  12.033  28.663  0.00  0.00     0.084 H 
ENDBRANCH  58  61
ENDBRANCH  57  58
ENDBRANCH  55  57
ENDBRANCH  52  55
ENDBRANCH  49  52
ENDBRANCH  47  49
BRANCH  47  72
ATOM     72  C24 non d ame     -30.220  13.495  22.845  0.00  0.00    -0.039 C 
ATOM     73  H35 non d ame     -29.178  13.175  22.817  0.00  0.00     0.036 H 
ATOM     74  H36 non d ame     -30.938  13.072  22.142  0.00  0.00     0.036 H 
BRANCH  72  75
ATOM     75  C25 non d ame     -30.232  15.083  22.635  0.00  0.00    -0.001 C 
ATOM     76  C26 non d ame     -31.216  15.474  21.378  0.00  0.00    -0.035 C 
ATOM     77  C27 non d ame     -30.537  16.277  20.524  0.00  0.00     0.085 C 
ATOM     78  H38 non d ame     -31.429  14.589  20.779  0.00  0.00     0.036 H 
ATOM     79  H39 non d ame     -32.035  16.106  21.724  0.00  0.00     0.036 H 
ATOM     80  N5  non d ame     -29.080  16.204  20.916  0.00  0.00    -0.049 N 
ATOM     81  H40 non d ame     -30.664  15.829  19.539  0.00  0.00     0.075 H 
ATOM     82  H41 non d ame     -30.905  17.284  20.716  0.00  0.00     0.075 H 
ATOM     83  C28 non d ame     -29.048  15.530  22.382  0.00  0.00     0.193 C 
ATOM     84  H42 non d ame     -28.640  15.572  20.262  0.00  0.00     0.280 HD
ATOM     85  H43 non d ame     -28.757  17.158  20.992  0.00  0.00     0.280 HD
ATOM     86  H44 non d ame     -28.874  16.142  23.268  0.00  0.00     0.129 H 
ATOM     87  H37 non d ame     -30.385  15.621  23.570  0.00  0.00     0.046 H 
BRANCH  83  88
ATOM     88  O6  non d ame     -28.060  14.499  22.430  0.00  0.00    -0.369 OA
ATOM     89  H45 non d ame     -28.488  13.652  22.584  0.00  0.00     0.212 HD
ENDBRANCH  83  88
ENDBRANCH  72  75
ENDBRANCH  47  72
ENDBRANCH  45  47
ENDBRANCH   1  43
BRANCH   1  90
ATOM     90  C16 non d ame     -32.693   9.290  23.866  0.00  0.00    -0.035 C 
ATOM     91  H21 non d ame     -33.721   8.937  23.919  0.00  0.00     0.037 H 
ATOM     92  H22 non d ame     -32.454  10.195  23.307  0.00  0.00     0.037 H 
BRANCH  90  93
ATOM     93  C17 non d ame     -31.865   8.137  23.214  0.00  0.00    -0.059 C 
ATOM     94  H23 non d ame     -30.809   8.385  23.325  0.00  0.00     0.038 H 
BRANCH  93  95
ATOM     95  C18 non d ame     -32.109   6.765  23.918  0.00  0.00    -0.073 C 
ATOM     96  H24 non d ame     -31.793   6.829  24.960  0.00  0.00     0.028 H 
ATOM     97  H25 non d ame     -33.169   6.518  23.876  0.00  0.00     0.028 H 
ATOM     98  H26 non d ame     -31.534   5.989  23.412  0.00  0.00     0.028 H 
ENDBRANCH  93  95
BRANCH  93  99
ATOM     99  C19 non d ame     -32.154   8.037  21.713  0.00  0.00    -0.073 C 
ATOM    100  H27 non d ame     -31.952   9.000  21.240  0.00  0.00     0.028 H 
ATOM    101  H28 non d ame     -31.514   7.274  21.269  0.00  0.00     0.028 H 
ATOM    102  H29 non d ame     -33.199   7.769  21.562  0.00  0.00     0.028 H 
ENDBRANCH  93  99
ENDBRANCH  90  93
ENDBRANCH   1  90
TORSDOF 26
ENDMDL
MODEL 10
REMARK VINA RESULT:      -6.3      2.388      4.057
REMARK  26 active torsions:
REMARK  status: ('A' for Active; 'I' for Inactive)
REMARK    1  A    between atoms: C2_2  and  C3_3 
REMARK    2  A    between atoms: C4_6  and  C5_7 
REMARK       I    between atoms: C5_7  and  N2_9 
REMARK    3  A    between atoms: N2_9  and  C6_10 
REMARK    4  A    between atoms: C6_10  and  C7_11 
REMARK    5  A    between atoms: C6_10  and  C8_13 
REMARK       I    between atoms: C7_11  and  N3_14 
REMARK    6  A    between atoms: N3_14  and  C9_15 
REMARK    7  A    between atoms: C9_15  and  C10_16 
REMARK    8  A    between atoms: C9_15  and  C11_18 
REMARK       I    between atoms: C10_16  and  N4_21 
REMARK    9  A    between atoms: C11_18  and  C12_19 
REMARK   10  A    between atoms: C11_18  and  C13_20 
REMARK   11  A    between atoms: N4_21  and  C14_22 
REMARK   12  A    between atoms: C14_22  and  C15_23 
REMARK   13  A    between atoms: C14_22  and  C16_25 
REMARK       I    between atoms: C15_23  and  N6_40 
REMARK   14  A    between atoms: C16_25  and  C17_26 
REMARK   15  A    between atoms: C17_26  and  C18_27 
REMARK   16  A    between atoms: C17_26  and  C19_28 
REMARK   17  A    between atoms: C20_29  and  C21_30 
REMARK   18  A    between atoms: C20_29  and  C24_33 
REMARK   19  A    between atoms: C20_29  and  N6_40 
REMARK   20  A    between atoms: C21_30  and  C22_31 
REMARK   21  A    between atoms: C22_31  and  C23_32 
REMARK   22  A    between atoms: C23_32  and  O8_43 
REMARK   23  A    between atoms: C24_33  and  C25_34 
REMARK   24  A    between atoms: C28_38  and  O6_39 
REMARK   25  A    between atoms: C29_42  and  O8_43 
REMARK   26  A    between atoms: C29_42  and  C35_49 
ROOT
ATOM      1  C14 non d ame     -31.973   8.917  24.453  0.00  0.00     0.089 C 
ATOM      2  H20 non d ame     -30.993   8.446  24.539  0.00  0.00     0.087 H 
ENDROOT
BRANCH   1   3
ATOM      3  N4  non d ame     -32.966   7.854  24.398  0.00  0.00    -0.346 N 
ATOM      4  C10 non d ame     -32.568   6.425  24.663  0.00  0.00     0.241 C 
ATOM      5  O4  non d ame     -31.441   6.152  24.918  0.00  0.00    -0.271 OA
ATOM      6  H19 non d ame     -33.919   8.106  24.177  0.00  0.00     0.163 HD
BRANCH   4   7
ATOM      7  C9  non d ame     -33.609   5.338  24.606  0.00  0.00     0.092 C 
ATOM      8  H11 non d ame     -33.118   4.367  24.667  0.00  0.00     0.088 H 
BRANCH   7   9
ATOM      9  N3  non d ame     -34.496   5.449  25.768  0.00  0.00    -0.346 N 
ATOM     10  C7  non d ame     -34.315   4.572  26.899  0.00  0.00     0.240 C 
ATOM     11  O3  non d ame     -33.462   3.771  26.890  0.00  0.00    -0.271 OA
ATOM     12  H10 non d ame     -35.237   6.134  25.789  0.00  0.00     0.163 HD
BRANCH  10  13
ATOM     13  C6  non d ame     -35.264   4.692  28.131  0.00  0.00     0.086 C 
ATOM     14  H6  non d ame     -34.928   4.100  28.982  0.00  0.00     0.086 H 
BRANCH  13  15
ATOM     15  N2  non d ame     -35.290   6.076  28.574  0.00  0.00    -0.343 N 
ATOM     16  C5  non d ame     -35.189   6.379  30.002  0.00  0.00     0.273 C 
ATOM     17  O2  non d ame     -35.091   5.503  30.789  0.00  0.00    -0.266 OA
ATOM     18  H5  non d ame     -35.377   6.819  27.895  0.00  0.00     0.163 HD
BRANCH  16  19
ATOM     19  C4  non d ame     -35.214   7.839  30.484  0.00  0.00     0.154 A 
ATOM     20  C1  non d ame     -35.163   8.305  31.835  0.00  0.00    -0.017 A 
ATOM     21  C2  non d ame     -35.215   9.713  31.736  0.00  0.00     0.077 A 
ATOM     22  H1  non d ame     -35.097   7.712  32.748  0.00  0.00     0.091 H 
ATOM     23  O1  non d ame     -35.287  10.010  30.473  0.00  0.00    -0.218 OA
ATOM     24  N1  non d ame     -35.288   8.933  29.722  0.00  0.00    -0.123 NA
BRANCH  21  25
ATOM     25  C3  non d ame     -35.190  10.699  32.896  0.00  0.00    -0.029 C 
ATOM     26  H2  non d ame     -35.433  11.697  32.530  0.00  0.00     0.036 H 
ATOM     27  H3  non d ame     -35.925  10.400  33.644  0.00  0.00     0.036 H 
ATOM     28  H4  non d ame     -34.198  10.709  33.345  0.00  0.00     0.036 H 
ENDBRANCH  21  25
ENDBRANCH  16  19
ENDBRANCH  13  15
BRANCH  13  29
ATOM     29  C8  non d ame     -36.652   4.247  27.746  0.00  0.00    -0.049 C 
ATOM     30  H7  non d ame     -37.299   4.273  28.622  0.00  0.00     0.030 H 
ATOM     31  H8  non d ame     -37.049   4.914  26.982  0.00  0.00     0.030 H 
ATOM     32  H9  non d ame     -36.611   3.229  27.355  0.00  0.00     0.030 H 
ENDBRANCH  13  29
ENDBRANCH  10  13
ENDBRANCH   7   9
BRANCH   7  33
ATOM     33  C11 non d ame     -34.446   5.490  23.302  0.00  0.00    -0.033 C 
ATOM     34  H12 non d ame     -34.770   6.529  23.239  0.00  0.00     0.042 H 
BRANCH  33  35
ATOM     35  C12 non d ame     -33.585   5.191  22.036  0.00  0.00    -0.071 C 
ATOM     36  H13 non d ame     -32.566   5.544  22.198  0.00  0.00     0.028 H 
ATOM     37  H14 non d ame     -33.572   4.117  21.850  0.00  0.00     0.028 H 
ATOM     38  H15 non d ame     -34.013   5.704  21.175  0.00  0.00     0.028 H 
ENDBRANCH  33  35
BRANCH  33  39
ATOM     39  C13 non d ame     -35.721   4.589  23.347  0.00  0.00    -0.071 C 
ATOM     40  H16 non d ame     -35.577   3.723  22.700  0.00  0.00     0.028 H 
ATOM     41  H17 non d ame     -35.894   4.254  24.370  0.00  0.00     0.028 H 
ATOM     42  H18 non d ame     -36.583   5.160  23.002  0.00  0.00     0.028 H 
ENDBRANCH  33  39
ENDBRANCH   7  33
ENDBRANCH   4   7
ENDBRANCH   1   3
BRANCH   1  43
ATOM     43  C15 non d ame     -32.294   9.830  25.671  0.00  0.00     0.240 C 
ATOM     44  O5  non d ame     -32.402   9.354  26.755  0.00  0.00    -0.271 OA
ATOM     45  N6  non d ame     -32.455  11.301  25.488  0.00  0.00    -0.355 N 
ATOM     46  H46 non d ame     -32.360  11.718  24.573  0.00  0.00     0.162 HD
BRANCH  45  47
ATOM     47  C20 non d ame     -32.758  12.156  26.657  0.00  0.00     0.013 C 
ATOM     48  H30 non d ame     -33.235  11.532  27.413  0.00  0.00     0.072 H 
BRANCH  47  49
ATOM     49  C21 non d ame     -33.695  13.265  26.235  0.00  0.00    -0.038 C 
ATOM     50  H31 non d ame     -33.286  13.657  25.303  0.00  0.00     0.036 H 
ATOM     51  H32 non d ame     -34.694  12.829  26.251  0.00  0.00     0.036 H 
BRANCH  49  52
ATOM     52  C22 non d ame     -33.717  14.443  27.233  0.00  0.00     0.018 C 
ATOM     53  H33 non d ame     -34.735  14.485  27.617  0.00  0.00     0.048 H 
ATOM     54  H34 non d ame     -32.883  14.267  27.914  0.00  0.00     0.048 H 
BRANCH  52  55
ATOM     55  C23 non d ame     -33.448  15.825  26.576  0.00  0.00     0.259 C 
ATOM     56  O7  non d ame     -33.218  15.905  25.413  0.00  0.00    -0.265 OA
BRANCH  55  57
ATOM     57  O8  non d ame     -33.468  16.997  27.384  0.00  0.00    -0.317 OA
BRANCH  57  58
ATOM     58  C29 non d ame     -33.107  18.192  26.685  0.00  0.00     0.052 C 
ATOM     59  H47 non d ame     -32.434  18.731  27.352  0.00  0.00     0.082 H 
ATOM     60  H48 non d ame     -32.760  17.868  25.705  0.00  0.00     0.082 H 
BRANCH  58  61
ATOM     61  C35 non d ame     -34.393  19.040  26.493  0.00  0.00    -0.034 A 
ATOM     62  C30 non d ame     -34.777  19.953  27.471  0.00  0.00    -0.075 A 
ATOM     63  C31 non d ame     -35.932  20.714  27.299  0.00  0.00    -0.082 A 
ATOM     64  H49 non d ame     -34.175  20.071  28.372  0.00  0.00     0.084 H 
ATOM     65  C32 non d ame     -36.705  20.560  26.144  0.00  0.00    -0.083 A 
ATOM     66  H50 non d ame     -36.230  21.430  28.066  0.00  0.00     0.083 H 
ATOM     67  C33 non d ame     -36.319  19.645  25.174  0.00  0.00    -0.082 A 
ATOM     68  H51 non d ame     -37.609  21.152  26.002  0.00  0.00     0.083 H 
ATOM     69  C34 non d ame     -35.165  18.883  25.341  0.00  0.00    -0.075 A 
ATOM     70  H52 non d ame     -36.926  19.525  24.275  0.00  0.00     0.083 H 
ATOM     71  H53 non d ame     -34.867  18.168  24.574  0.00  0.00     0.084 H 
ENDBRANCH  58  61
ENDBRANCH  57  58
ENDBRANCH  55  57
ENDBRANCH  52  55
ENDBRANCH  49  52
ENDBRANCH  47  49
BRANCH  47  72
ATOM     72  C24 non d ame     -31.466  12.758  27.204  0.00  0.00    -0.039 C 
ATOM     73  H35 non d ame     -30.686  12.453  26.507  0.00  0.00     0.036 H 
ATOM     74  H36 non d ame     -31.680  13.817  27.352  0.00  0.00     0.036 H 
BRANCH  72  75
ATOM     75  C25 non d ame     -31.087  12.148  28.636  0.00  0.00    -0.001 C 
ATOM     76  C26 non d ame     -32.445  11.616  29.395  0.00  0.00    -0.035 C 
ATOM     77  C27 non d ame     -32.485  12.146  30.641  0.00  0.00     0.085 C 
ATOM     78  H38 non d ame     -33.330  12.031  28.913  0.00  0.00     0.036 H 
ATOM     79  H39 non d ame     -32.377  10.543  29.576  0.00  0.00     0.036 H 
ATOM     80  N5  non d ame     -31.452  13.247  30.685  0.00  0.00    -0.049 N 
ATOM     81  H40 non d ame     -33.478  12.585  30.739  0.00  0.00     0.075 H 
ATOM     82  H41 non d ame     -32.177  11.342  31.309  0.00  0.00     0.075 H 
ATOM     83  C28 non d ame     -30.520  13.033  29.385  0.00  0.00     0.193 C 
ATOM     84  H42 non d ame     -31.956  14.115  30.580  0.00  0.00     0.280 HD
ATOM     85  H43 non d ame     -30.896  13.082  31.512  0.00  0.00     0.280 HD
ATOM     86  H44 non d ame     -29.524  12.599  29.484  0.00  0.00     0.129 H 
ATOM     87  H37 non d ame     -30.247  11.457  28.580  0.00  0.00     0.046 H 
BRANCH  83  88
ATOM     88  O6  non d ame     -30.330  14.275  28.705  0.00  0.00    -0.369 OA
ATOM     89  H45 non d ame     -30.172  14.108  27.772  0.00  0.00     0.212 HD
ENDBRANCH  83  88
ENDBRANCH  72  75
ENDBRANCH  47  72
ENDBRANCH  45  47
ENDBRANCH   1  43
BRANCH   1  90
ATOM     90  C16 non d ame     -32.044   9.731  23.171  0.00  0.00    -0.035 C 
ATOM     91  H21 non d ame     -32.702   9.170  22.509  0.00  0.00     0.037 H 
ATOM     92  H22 non d ame     -32.315  10.739  23.485  0.00  0.00     0.037 H 
BRANCH  90  93
ATOM     93  C17 non d ame     -30.674   9.852  22.431  0.00  0.00    -0.059 C 
ATOM     94  H23 non d ame     -30.876   9.843  21.360  0.00  0.00     0.038 H 
BRANCH  93  95
ATOM     95  C18 non d ame     -29.939  11.189  22.765  0.00  0.00    -0.073 C 
ATOM     96  H24 non d ame     -30.443  12.016  22.264  0.00  0.00     0.028 H 
ATOM     97  H25 non d ame     -29.957  11.354  23.842  0.00  0.00     0.028 H 
ATOM     98  H26 non d ame     -28.906  11.132  22.423  0.00  0.00     0.028 H 
ENDBRANCH  93  95
BRANCH  93  99
ATOM     99  C19 non d ame     -29.779   8.648  22.736  0.00  0.00    -0.073 C 
ATOM    100  H27 non d ame     -29.323   8.774  23.719  0.00  0.00     0.028 H 
ATOM    101  H28 non d ame     -30.378   7.737  22.729  0.00  0.00     0.028 H 
ATOM    102  H29 non d ame     -28.997   8.575  21.980  0.00  0.00     0.028 H 
ENDBRANCH  93  99
ENDBRANCH  90  93
ENDBRANCH   1  90
TORSDOF 26
ENDMDL
MODEL 11
REMARK VINA RESULT:      -6.3      2.874     11.674
REMARK  26 active torsions:
REMARK  status: ('A' for Active; 'I' for Inactive)
REMARK    1  A    between atoms: C2_2  and  C3_3 
REMARK    2  A    between atoms: C4_6  and  C5_7 
REMARK       I    between atoms: C5_7  and  N2_9 
REMARK    3  A    between atoms: N2_9  and  C6_10 
REMARK    4  A    between atoms: C6_10  and  C7_11 
REMARK    5  A    between atoms: C6_10  and  C8_13 
REMARK       I    between atoms: C7_11  and  N3_14 
REMARK    6  A    between atoms: N3_14  and  C9_15 
REMARK    7  A    between atoms: C9_15  and  C10_16 
REMARK    8  A    between atoms: C9_15  and  C11_18 
REMARK       I    between atoms: C10_16  and  N4_21 
REMARK    9  A    between atoms: C11_18  and  C12_19 
REMARK   10  A    between atoms: C11_18  and  C13_20 
REMARK   11  A    between atoms: N4_21  and  C14_22 
REMARK   12  A    between atoms: C14_22  and  C15_23 
REMARK   13  A    between atoms: C14_22  and  C16_25 
REMARK       I    between atoms: C15_23  and  N6_40 
REMARK   14  A    between atoms: C16_25  and  C17_26 
REMARK   15  A    between atoms: C17_26  and  C18_27 
REMARK   16  A    between atoms: C17_26  and  C19_28 
REMARK   17  A    between atoms: C20_29  and  C21_30 
REMARK   18  A    between atoms: C20_29  and  C24_33 
REMARK   19  A    between atoms: C20_29  and  N6_40 
REMARK   20  A    between atoms: C21_30  and  C22_31 
REMARK   21  A    between atoms: C22_31  and  C23_32 
REMARK   22  A    between atoms: C23_32  and  O8_43 
REMARK   23  A    between atoms: C24_33  and  C25_34 
REMARK   24  A    between atoms: C28_38  and  O6_39 
REMARK   25  A    between atoms: C29_42  and  O8_43 
REMARK   26  A    between atoms: C29_42  and  C35_49 
ROOT
ATOM      1  C14 non d ame     -32.959   8.015  25.895  0.00  0.00     0.089 C 
ATOM      2  H20 non d ame     -33.942   8.357  25.570  0.00  0.00     0.087 H 
ENDROOT
BRANCH   1   3
ATOM      3  N4  non d ame     -32.470   8.963  26.885  0.00  0.00    -0.346 N 
ATOM      4  C10 non d ame     -33.433   9.856  27.625  0.00  0.00     0.241 C 
ATOM      5  O4  non d ame     -34.598   9.796  27.405  0.00  0.00    -0.271 OA
ATOM      6  H19 non d ame     -31.475   9.001  27.055  0.00  0.00     0.163 HD
BRANCH   4   7
ATOM      7  C9  non d ame     -32.910  10.828  28.650  0.00  0.00     0.092 C 
ATOM      8  H11 non d ame     -31.856  10.625  28.832  0.00  0.00     0.088 H 
BRANCH   7   9
ATOM      9  N3  non d ame     -33.004  12.193  28.122  0.00  0.00    -0.346 N 
ATOM     10  C7  non d ame     -31.978  12.697  27.243  0.00  0.00     0.240 C 
ATOM     11  O3  non d ame     -31.070  12.019  26.951  0.00  0.00    -0.271 OA
ATOM     12  H10 non d ame     -33.781  12.790  28.367  0.00  0.00     0.163 HD
BRANCH  10  13
ATOM     13  C6  non d ame     -32.080  14.151  26.687  0.00  0.00     0.086 C 
ATOM     14  H6  non d ame     -31.469  14.860  27.244  0.00  0.00     0.086 H 
BRANCH  13  15
ATOM     15  N2  non d ame     -31.593  14.168  25.318  0.00  0.00    -0.343 N 
ATOM     16  C5  non d ame     -31.079  15.416  24.750  0.00  0.00     0.273 C 
ATOM     17  O2  non d ame     -31.065  16.403  25.402  0.00  0.00    -0.266 OA
ATOM     18  H5  non d ame     -31.611  13.322  24.767  0.00  0.00     0.163 HD
BRANCH  16  19
ATOM     19  C4  non d ame     -30.560  15.448  23.304  0.00  0.00     0.154 A 
ATOM     20  C1  non d ame     -31.325  15.671  22.116  0.00  0.00    -0.017 A 
ATOM     21  C2  non d ame     -30.386  15.601  21.062  0.00  0.00     0.077 A 
ATOM     22  H1  non d ame     -32.396  15.854  22.031  0.00  0.00     0.091 H 
ATOM     23  O1  non d ame     -29.223  15.368  21.593  0.00  0.00    -0.218 OA
ATOM     24  N1  non d ame     -29.299  15.274  22.901  0.00  0.00    -0.123 NA
BRANCH  21  25
ATOM     25  C3  non d ame     -30.683  15.771  19.578  0.00  0.00    -0.029 C 
ATOM     26  H2  non d ame     -31.680  16.191  19.452  0.00  0.00     0.036 H 
ATOM     27  H3  non d ame     -29.949  16.444  19.135  0.00  0.00     0.036 H 
ATOM     28  H4  non d ame     -30.631  14.802  19.083  0.00  0.00     0.036 H 
ENDBRANCH  21  25
ENDBRANCH  16  19
ENDBRANCH  13  15
BRANCH  13  29
ATOM     29  C8  non d ame     -33.516  14.608  26.730  0.00  0.00    -0.049 C 
ATOM     30  H7  non d ame     -33.923  14.436  27.726  0.00  0.00     0.030 H 
ATOM     31  H8  non d ame     -33.567  15.671  26.497  0.00  0.00     0.030 H 
ATOM     32  H9  non d ame     -34.098  14.047  25.997  0.00  0.00     0.030 H 
ENDBRANCH  13  29
ENDBRANCH  10  13
ENDBRANCH   7   9
BRANCH   7  33
ATOM     33  C11 non d ame     -33.762  10.719  29.949  0.00  0.00    -0.033 C 
ATOM     34  H12 non d ame     -34.733  11.170  29.745  0.00  0.00     0.042 H 
BRANCH  33  35
ATOM     35  C12 non d ame     -34.010   9.229  30.341  0.00  0.00    -0.071 C 
ATOM     36  H13 non d ame     -33.191   8.613  29.967  0.00  0.00     0.028 H 
ATOM     37  H14 non d ame     -34.064   9.142  31.425  0.00  0.00     0.028 H 
ATOM     38  H15 non d ame     -34.948   8.889  29.901  0.00  0.00     0.028 H 
ENDBRANCH  33  35
BRANCH  33  39
ATOM     39  C13 non d ame     -33.098  11.510  31.121  0.00  0.00    -0.071 C 
ATOM     40  H16 non d ame     -33.873  11.893  31.785  0.00  0.00     0.028 H 
ATOM     41  H17 non d ame     -32.435  10.847  31.678  0.00  0.00     0.028 H 
ATOM     42  H18 non d ame     -32.521  12.342  30.717  0.00  0.00     0.028 H 
ENDBRANCH  33  39
ENDBRANCH   7  33
ENDBRANCH   4   7
ENDBRANCH   1   3
BRANCH   1  43
ATOM     43  C15 non d ame     -33.014   6.603  26.546  0.00  0.00     0.240 C 
ATOM     44  O5  non d ame     -32.162   5.809  26.310  0.00  0.00    -0.271 OA
ATOM     45  N6  non d ame     -34.126   6.243  27.472  0.00  0.00    -0.355 N 
ATOM     46  H46 non d ame     -34.854   6.911  27.684  0.00  0.00     0.162 HD
BRANCH  45  47
ATOM     47  C20 non d ame     -34.163   4.897  28.084  0.00  0.00     0.013 C 
ATOM     48  H30 non d ame     -33.135   4.566  28.227  0.00  0.00     0.072 H 
BRANCH  47  49
ATOM     49  C21 non d ame     -34.888   3.947  27.158  0.00  0.00    -0.038 C 
ATOM     50  H31 non d ame     -35.598   3.408  27.786  0.00  0.00     0.036 H 
ATOM     51  H32 non d ame     -35.248   4.560  26.331  0.00  0.00     0.036 H 
BRANCH  49  52
ATOM     52  C22 non d ame     -33.955   2.884  26.540  0.00  0.00     0.018 C 
ATOM     53  H33 non d ame     -32.942   3.237  26.724  0.00  0.00     0.048 H 
ATOM     54  H34 non d ame     -34.283   1.929  26.951  0.00  0.00     0.048 H 
BRANCH  52  55
ATOM     55  C23 non d ame     -34.089   2.754  24.997  0.00  0.00     0.259 C 
ATOM     56  O7  non d ame     -34.632   1.813  24.516  0.00  0.00    -0.265 OA
BRANCH  55  57
ATOM     57  O8  non d ame     -33.541   3.768  24.162  0.00  0.00    -0.317 OA
BRANCH  57  58
ATOM     58  C29 non d ame     -34.522   4.606  23.544  0.00  0.00     0.052 C 
ATOM     59  H47 non d ame     -35.387   3.968  23.368  0.00  0.00     0.082 H 
ATOM     60  H48 non d ame     -34.612   5.481  24.188  0.00  0.00     0.082 H 
BRANCH  58  61
ATOM     61  C35 non d ame     -33.962   5.065  22.171  0.00  0.00    -0.034 A 
ATOM     62  C30 non d ame     -34.733   5.872  21.339  0.00  0.00    -0.075 A 
ATOM     63  C31 non d ame     -34.230   6.283  20.105  0.00  0.00    -0.082 A 
ATOM     64  H49 non d ame     -35.730   6.180  21.653  0.00  0.00     0.084 H 
ATOM     65  C32 non d ame     -32.953   5.884  19.704  0.00  0.00    -0.083 A 
ATOM     66  H50 non d ame     -34.836   6.917  19.456  0.00  0.00     0.083 H 
ATOM     67  C33 non d ame     -32.190   5.077  20.536  0.00  0.00    -0.082 A 
ATOM     68  H51 non d ame     -32.552   6.203  18.741  0.00  0.00     0.083 H 
ATOM     69  C34 non d ame     -32.687   4.664  21.770  0.00  0.00    -0.075 A 
ATOM     70  H52 non d ame     -31.193   4.765  20.218  0.00  0.00     0.083 H 
ATOM     71  H53 non d ame     -32.081   4.031  22.418  0.00  0.00     0.084 H 
ENDBRANCH  58  61
ENDBRANCH  57  58
ENDBRANCH  55  57
ENDBRANCH  52  55
ENDBRANCH  49  52
ENDBRANCH  47  49
BRANCH  47  72
ATOM     72  C24 non d ame     -34.892   4.960  29.424  0.00  0.00    -0.039 C 
ATOM     73  H35 non d ame     -35.542   5.833  29.360  0.00  0.00     0.036 H 
ATOM     74  H36 non d ame     -35.324   3.969  29.566  0.00  0.00     0.036 H 
BRANCH  72  75
ATOM     75  C25 non d ame     -33.879   5.213  30.639  0.00  0.00    -0.001 C 
ATOM     76  C26 non d ame     -32.903   3.904  30.835  0.00  0.00    -0.035 C 
ATOM     77  C27 non d ame     -32.939   3.523  32.135  0.00  0.00     0.085 C 
ATOM     78  H38 non d ame     -33.317   3.046  30.307  0.00  0.00     0.036 H 
ATOM     79  H39 non d ame     -31.861   4.188  30.682  0.00  0.00     0.036 H 
ATOM     80  N5  non d ame     -34.101   4.247  32.774  0.00  0.00    -0.049 N 
ATOM     81  H40 non d ame     -33.151   2.454  32.119  0.00  0.00     0.075 H 
ATOM     82  H41 non d ame     -32.010   3.888  32.571  0.00  0.00     0.075 H 
ATOM     83  C28 non d ame     -34.516   5.417  31.743  0.00  0.00     0.193 C 
ATOM     84  H42 non d ame     -34.858   3.581  32.827  0.00  0.00     0.280 HD
ATOM     85  H43 non d ame     -33.742   4.672  33.617  0.00  0.00     0.280 HD
ATOM     86  H44 non d ame     -34.239   6.453  31.942  0.00  0.00     0.129 H 
ATOM     87  H37 non d ame     -33.396   6.187  30.577  0.00  0.00     0.046 H 
BRANCH  83  88
ATOM     88  O6  non d ame     -35.932   5.429  31.555  0.00  0.00    -0.369 OA
ATOM     89  H45 non d ame     -36.255   6.332  31.611  0.00  0.00     0.212 HD
ENDBRANCH  83  88
ENDBRANCH  72  75
ENDBRANCH  47  72
ENDBRANCH  45  47
ENDBRANCH   1  43
BRANCH   1  90
ATOM     90  C16 non d ame     -32.004   7.995  24.712  0.00  0.00    -0.035 C 
ATOM     91  H21 non d ame     -31.026   8.229  25.127  0.00  0.00     0.037 H 
ATOM     92  H22 non d ame     -32.174   7.036  24.221  0.00  0.00     0.037 H 
BRANCH  90  93
ATOM     93  C17 non d ame     -32.305   9.096  23.646  0.00  0.00    -0.059 C 
ATOM     94  H23 non d ame     -33.332   9.430  23.797  0.00  0.00     0.038 H 
BRANCH  93  95
ATOM     95  C18 non d ame     -31.372  10.339  23.803  0.00  0.00    -0.073 C 
ATOM     96  H24 non d ame     -31.979  11.235  23.938  0.00  0.00     0.028 H 
ATOM     97  H25 non d ame     -30.729  10.203  24.672  0.00  0.00     0.028 H 
ATOM     98  H26 non d ame     -30.758  10.447  22.909  0.00  0.00     0.028 H 
ENDBRANCH  93  95
BRANCH  93  99
ATOM     99  C19 non d ame     -32.217   8.525  22.228  0.00  0.00    -0.073 C 
ATOM    100  H27 non d ame     -32.728   9.193  21.535  0.00  0.00     0.028 H 
ATOM    101  H28 non d ame     -31.170   8.433  21.937  0.00  0.00     0.028 H 
ATOM    102  H29 non d ame     -32.688   7.543  22.202  0.00  0.00     0.028 H 
ENDBRANCH  93  99
ENDBRANCH  90  93
ENDBRANCH   1  90
TORSDOF 26
ENDMDL
MODEL 12
REMARK VINA RESULT:      -6.2      2.568     10.911
REMARK  26 active torsions:
REMARK  status: ('A' for Active; 'I' for Inactive)
REMARK    1  A    between atoms: C2_2  and  C3_3 
REMARK    2  A    between atoms: C4_6  and  C5_7 
REMARK       I    between atoms: C5_7  and  N2_9 
REMARK    3  A    between atoms: N2_9  and  C6_10 
REMARK    4  A    between atoms: C6_10  and  C7_11 
REMARK    5  A    between atoms: C6_10  and  C8_13 
REMARK       I    between atoms: C7_11  and  N3_14 
REMARK    6  A    between atoms: N3_14  and  C9_15 
REMARK    7  A    between atoms: C9_15  and  C10_16 
REMARK    8  A    between atoms: C9_15  and  C11_18 
REMARK       I    between atoms: C10_16  and  N4_21 
REMARK    9  A    between atoms: C11_18  and  C12_19 
REMARK   10  A    between atoms: C11_18  and  C13_20 
REMARK   11  A    between atoms: N4_21  and  C14_22 
REMARK   12  A    between atoms: C14_22  and  C15_23 
REMARK   13  A    between atoms: C14_22  and  C16_25 
REMARK       I    between atoms: C15_23  and  N6_40 
REMARK   14  A    between atoms: C16_25  and  C17_26 
REMARK   15  A    between atoms: C17_26  and  C18_27 
REMARK   16  A    between atoms: C17_26  and  C19_28 
REMARK   17  A    between atoms: C20_29  and  C21_30 
REMARK   18  A    between atoms: C20_29  and  C24_33 
REMARK   19  A    between atoms: C20_29  and  N6_40 
REMARK   20  A    between atoms: C21_30  and  C22_31 
REMARK   21  A    between atoms: C22_31  and  C23_32 
REMARK   22  A    between atoms: C23_32  and  O8_43 
REMARK   23  A    between atoms: C24_33  and  C25_34 
REMARK   24  A    between atoms: C28_38  and  O6_39 
REMARK   25  A    between atoms: C29_42  and  O8_43 
REMARK   26  A    between atoms: C29_42  and  C35_49 
ROOT
ATOM      1  C14 non d ame     -33.814   9.501  25.518  0.00  0.00     0.089 C 
ATOM      2  H20 non d ame     -34.592  10.199  25.204  0.00  0.00     0.087 H 
ENDROOT
BRANCH   1   3
ATOM      3  N4  non d ame     -32.613  10.276  25.788  0.00  0.00    -0.346 N 
ATOM      4  C10 non d ame     -32.707  11.611  26.482  0.00  0.00     0.241 C 
ATOM      5  O4  non d ame     -33.762  12.043  26.813  0.00  0.00    -0.271 OA
ATOM      6  H19 non d ame     -31.725   9.893  25.496  0.00  0.00     0.163 HD
BRANCH   4   7
ATOM      7  C9  non d ame     -31.452  12.398  26.758  0.00  0.00     0.092 C 
ATOM      8  H11 non d ame     -30.584  11.768  26.565  0.00  0.00     0.088 H 
BRANCH   7   9
ATOM      9  N3  non d ame     -31.376  13.536  25.836  0.00  0.00    -0.346 N 
ATOM     10  C7  non d ame     -31.061  13.316  24.446  0.00  0.00     0.240 C 
ATOM     11  O3  non d ame     -30.866  12.231  24.052  0.00  0.00    -0.271 OA
ATOM     12  H10 non d ame     -31.541  14.477  26.162  0.00  0.00     0.163 HD
BRANCH  10  13
ATOM     13  C6  non d ame     -30.978  14.531  23.470  0.00  0.00     0.086 C 
ATOM     14  H6  non d ame     -31.772  14.526  22.723  0.00  0.00     0.086 H 
BRANCH  13  15
ATOM     15  N2  non d ame     -31.131  15.759  24.231  0.00  0.00    -0.343 N 
ATOM     16  C5  non d ame     -32.466  16.179  24.663  0.00  0.00     0.273 C 
ATOM     17  O2  non d ame     -33.411  15.523  24.391  0.00  0.00    -0.266 OA
ATOM     18  H5  non d ame     -30.319  16.315  24.457  0.00  0.00     0.163 HD
BRANCH  16  19
ATOM     19  C4  non d ame     -32.642  17.475  25.470  0.00  0.00     0.154 A 
ATOM     20  C1  non d ame     -32.355  17.676  26.857  0.00  0.00    -0.017 A 
ATOM     21  C2  non d ame     -32.686  19.027  27.104  0.00  0.00     0.077 A 
ATOM     22  H1  non d ame     -31.967  16.953  27.574  0.00  0.00     0.091 H 
ATOM     23  O1  non d ame     -33.110  19.534  25.984  0.00  0.00    -0.218 OA
ATOM     24  N1  non d ame     -33.093  18.647  25.015  0.00  0.00    -0.123 NA
BRANCH  21  25
ATOM     25  C3  non d ame     -32.566  19.756  28.435  0.00  0.00    -0.029 C 
ATOM     26  H2  non d ame     -33.557  20.052  28.778  0.00  0.00     0.036 H 
ATOM     27  H3  non d ame     -32.112  19.094  29.173  0.00  0.00     0.036 H 
ATOM     28  H4  non d ame     -31.945  20.642  28.311  0.00  0.00     0.036 H 
ENDBRANCH  21  25
ENDBRANCH  16  19
ENDBRANCH  13  15
BRANCH  13  29
ATOM     29  C8  non d ame     -29.646  14.522  22.765  0.00  0.00    -0.049 C 
ATOM     30  H7  non d ame     -29.092  15.424  23.021  0.00  0.00     0.030 H 
ATOM     31  H8  non d ame     -29.076  13.646  23.074  0.00  0.00     0.030 H 
ATOM     32  H9  non d ame     -29.806  14.489  21.686  0.00  0.00     0.030 H 
ENDBRANCH  13  29
ENDBRANCH  10  13
ENDBRANCH   7   9
BRANCH   7  33
ATOM     33  C11 non d ame     -31.482  12.923  28.223  0.00  0.00    -0.033 C 
ATOM     34  H12 non d ame     -32.468  13.354  28.398  0.00  0.00     0.042 H 
BRANCH  33  35
ATOM     35  C12 non d ame     -31.290  11.761  29.247  0.00  0.00    -0.071 C 
ATOM     36  H13 non d ame     -31.247  10.811  28.713  0.00  0.00     0.028 H 
ATOM     37  H14 non d ame     -30.362  11.911  29.798  0.00  0.00     0.028 H 
ATOM     38  H15 non d ame     -32.129  11.747  29.943  0.00  0.00     0.028 H 
ENDBRANCH  33  35
BRANCH  33  39
ATOM     39  C13 non d ame     -30.419  14.047  28.436  0.00  0.00    -0.071 C 
ATOM     40  H16 non d ame     -30.220  14.545  27.486  0.00  0.00     0.028 H 
ATOM     41  H17 non d ame     -30.796  14.774  29.156  0.00  0.00     0.028 H 
ATOM     42  H18 non d ame     -29.496  13.608  28.816  0.00  0.00     0.028 H 
ENDBRANCH  33  39
ENDBRANCH   7  33
ENDBRANCH   4   7
ENDBRANCH   1   3
BRANCH   1  43
ATOM     43  C15 non d ame     -34.206   8.729  26.811  0.00  0.00     0.240 C 
ATOM     44  O5  non d ame     -33.411   8.023  27.342  0.00  0.00    -0.271 OA
ATOM     45  N6  non d ame     -35.571   8.878  27.393  0.00  0.00    -0.355 N 
ATOM     46  H46 non d ame     -36.253   9.479  26.954  0.00  0.00     0.162 HD
BRANCH  45  47
ATOM     47  C20 non d ame     -35.927   8.138  28.623  0.00  0.00     0.013 C 
ATOM     48  H30 non d ame     -35.063   7.543  28.918  0.00  0.00     0.072 H 
BRANCH  47  49
ATOM     49  C21 non d ame     -37.105   7.234  28.339  0.00  0.00    -0.038 C 
ATOM     50  H31 non d ame     -37.990   7.805  28.622  0.00  0.00     0.036 H 
ATOM     51  H32 non d ame     -36.978   6.900  27.309  0.00  0.00     0.036 H 
BRANCH  49  52
ATOM     52  C22 non d ame     -37.109   5.961  29.214  0.00  0.00     0.018 C 
ATOM     53  H33 non d ame     -36.128   5.507  29.077  0.00  0.00     0.048 H 
ATOM     54  H34 non d ame     -37.427   6.286  30.204  0.00  0.00     0.048 H 
BRANCH  52  55
ATOM     55  C23 non d ame     -38.142   4.893  28.760  0.00  0.00     0.259 C 
ATOM     56  O7  non d ame     -38.967   4.493  29.517  0.00  0.00    -0.265 OA
BRANCH  55  57
ATOM     57  O8  non d ame     -38.084   4.386  27.432  0.00  0.00    -0.317 OA
BRANCH  57  58
ATOM     58  C29 non d ame     -37.203   3.270  27.273  0.00  0.00     0.052 C 
ATOM     59  H47 non d ame     -37.102   2.830  28.265  0.00  0.00     0.082 H 
ATOM     60  H48 non d ame     -37.616   2.682  26.455  0.00  0.00     0.082 H 
BRANCH  58  61
ATOM     61  C35 non d ame     -35.817   3.813  26.833  0.00  0.00    -0.034 A 
ATOM     62  C30 non d ame     -34.688   3.541  27.600  0.00  0.00    -0.075 A 
ATOM     63  C31 non d ame     -33.443   4.030  27.205  0.00  0.00    -0.082 A 
ATOM     64  H49 non d ame     -34.777   2.947  28.509  0.00  0.00     0.084 H 
ATOM     65  C32 non d ame     -33.330   4.794  26.040  0.00  0.00    -0.083 A 
ATOM     66  H50 non d ame     -32.559   3.814  27.807  0.00  0.00     0.083 H 
ATOM     67  C33 non d ame     -34.460   5.065  25.282  0.00  0.00    -0.082 A 
ATOM     68  H51 non d ame     -32.360   5.179  25.724  0.00  0.00     0.083 H 
ATOM     69  C34 non d ame     -35.706   4.578  25.671  0.00  0.00    -0.075 A 
ATOM     70  H52 non d ame     -34.369   5.664  24.374  0.00  0.00     0.083 H 
ATOM     71  H53 non d ame     -36.588   4.794  25.069  0.00  0.00     0.084 H 
ENDBRANCH  58  61
ENDBRANCH  57  58
ENDBRANCH  55  57
ENDBRANCH  52  55
ENDBRANCH  49  52
ENDBRANCH  47  49
BRANCH  47  72
ATOM     72  C24 non d ame     -36.295   9.123  29.730  0.00  0.00    -0.039 C 
ATOM     73  H35 non d ame     -36.428  10.084  29.230  0.00  0.00     0.036 H 
ATOM     74  H36 non d ame     -37.129   8.665  30.261  0.00  0.00     0.036 H 
BRANCH  72  75
ATOM     75  C25 non d ame     -35.103   9.301  30.785  0.00  0.00    -0.001 C 
ATOM     76  C26 non d ame     -35.716   9.438  32.304  0.00  0.00    -0.035 C 
ATOM     77  C27 non d ame     -35.188  10.538  32.892  0.00  0.00     0.085 C 
ATOM     78  H38 non d ame     -36.782   9.660  32.259  0.00  0.00     0.036 H 
ATOM     79  H39 non d ame     -35.357   8.619  32.929  0.00  0.00     0.036 H 
ATOM     80  N5  non d ame     -34.524  11.344  31.801  0.00  0.00    -0.049 N 
ATOM     81  H40 non d ame     -36.039  11.098  33.281  0.00  0.00     0.075 H 
ATOM     82  H41 non d ame     -34.424  10.166  33.573  0.00  0.00     0.075 H 
ATOM     83  C28 non d ame     -34.406  10.357  30.529  0.00  0.00     0.193 C 
ATOM     84  H42 non d ame     -35.162  12.092  31.570  0.00  0.00     0.280 HD
ATOM     85  H43 non d ame     -33.593  11.557  32.131  0.00  0.00     0.280 HD
ATOM     86  H44 non d ame     -33.449   9.904  30.268  0.00  0.00     0.129 H 
ATOM     87  H37 non d ame     -34.307   8.572  30.636  0.00  0.00     0.046 H 
BRANCH  83  88
ATOM     88  O6  non d ame     -34.850  11.023  29.346  0.00  0.00    -0.369 OA
ATOM     89  H45 non d ame     -34.482  11.910  29.320  0.00  0.00     0.212 HD
ENDBRANCH  83  88
ENDBRANCH  72  75
ENDBRANCH  47  72
ENDBRANCH  45  47
ENDBRANCH   1  43
BRANCH   1  90
ATOM     90  C16 non d ame     -33.528   8.512  24.399  0.00  0.00    -0.035 C 
ATOM     91  H21 non d ame     -33.740   7.531  24.821  0.00  0.00     0.037 H 
ATOM     92  H22 non d ame     -34.097   8.873  23.543  0.00  0.00     0.037 H 
BRANCH  90  93
ATOM     93  C17 non d ame     -32.030   8.486  23.956  0.00  0.00    -0.059 C 
ATOM     94  H23 non d ame     -31.461   9.068  24.681  0.00  0.00     0.038 H 
BRANCH  93  95
ATOM     95  C18 non d ame     -31.444   7.038  23.942  0.00  0.00    -0.073 C 
ATOM     96  H24 non d ame     -30.558   7.010  23.308  0.00  0.00     0.028 H 
ATOM     97  H25 non d ame     -31.173   6.747  24.957  0.00  0.00     0.028 H 
ATOM     98  H26 non d ame     -32.192   6.347  23.553  0.00  0.00     0.028 H 
ENDBRANCH  93  95
BRANCH  93  99
ATOM     99  C19 non d ame     -31.852   9.158  22.592  0.00  0.00    -0.073 C 
ATOM    100  H27 non d ame     -31.605  10.211  22.735  0.00  0.00     0.028 H 
ATOM    101  H28 non d ame     -31.046   8.667  22.046  0.00  0.00     0.028 H 
ATOM    102  H29 non d ame     -32.778   9.076  22.023  0.00  0.00     0.028 H 
ENDBRANCH  93  99
ENDBRANCH  90  93
ENDBRANCH   1  90
TORSDOF 26
ENDMDL
MODEL 13
REMARK VINA RESULT:      -6.2      2.446      7.821
REMARK  26 active torsions:
REMARK  status: ('A' for Active; 'I' for Inactive)
REMARK    1  A    between atoms: C2_2  and  C3_3 
REMARK    2  A    between atoms: C4_6  and  C5_7 
REMARK       I    between atoms: C5_7  and  N2_9 
REMARK    3  A    between atoms: N2_9  and  C6_10 
REMARK    4  A    between atoms: C6_10  and  C7_11 
REMARK    5  A    between atoms: C6_10  and  C8_13 
REMARK       I    between atoms: C7_11  and  N3_14 
REMARK    6  A    between atoms: N3_14  and  C9_15 
REMARK    7  A    between atoms: C9_15  and  C10_16 
REMARK    8  A    between atoms: C9_15  and  C11_18 
REMARK       I    between atoms: C10_16  and  N4_21 
REMARK    9  A    between atoms: C11_18  and  C12_19 
REMARK   10  A    between atoms: C11_18  and  C13_20 
REMARK   11  A    between atoms: N4_21  and  C14_22 
REMARK   12  A    between atoms: C14_22  and  C15_23 
REMARK   13  A    between atoms: C14_22  and  C16_25 
REMARK       I    between atoms: C15_23  and  N6_40 
REMARK   14  A    between atoms: C16_25  and  C17_26 
REMARK   15  A    between atoms: C17_26  and  C18_27 
REMARK   16  A    between atoms: C17_26  and  C19_28 
REMARK   17  A    between atoms: C20_29  and  C21_30 
REMARK   18  A    between atoms: C20_29  and  C24_33 
REMARK   19  A    between atoms: C20_29  and  N6_40 
REMARK   20  A    between atoms: C21_30  and  C22_31 
REMARK   21  A    between atoms: C22_31  and  C23_32 
REMARK   22  A    between atoms: C23_32  and  O8_43 
REMARK   23  A    between atoms: C24_33  and  C25_34 
REMARK   24  A    between atoms: C28_38  and  O6_39 
REMARK   25  A    between atoms: C29_42  and  O8_43 
REMARK   26  A    between atoms: C29_42  and  C35_49 
ROOT
ATOM      1  C14 non d ame     -35.026  10.704  25.630  0.00  0.00     0.089 C 
ATOM      2  H20 non d ame     -34.819  11.358  24.782  0.00  0.00     0.087 H 
ENDROOT
BRANCH   1   3
ATOM      3  N4  non d ame     -34.230   9.498  25.458  0.00  0.00    -0.346 N 
ATOM      4  C10 non d ame     -33.984   8.938  24.080  0.00  0.00     0.241 C 
ATOM      5  O4  non d ame     -34.438   9.474  23.124  0.00  0.00    -0.271 OA
ATOM      6  H19 non d ame     -33.855   9.055  26.284  0.00  0.00     0.163 HD
BRANCH   4   7
ATOM      7  C9  non d ame     -33.154   7.691  23.920  0.00  0.00     0.092 C 
ATOM      8  H11 non d ame     -33.535   7.113  23.079  0.00  0.00     0.088 H 
BRANCH   7   9
ATOM      9  N3  non d ame     -31.771   8.061  23.601  0.00  0.00    -0.346 N 
ATOM     10  C7  non d ame     -31.326   8.067  22.230  0.00  0.00     0.240 C 
ATOM     11  O3  non d ame     -32.066   7.777  21.370  0.00  0.00    -0.271 OA
ATOM     12  H10 non d ame     -31.122   8.312  24.332  0.00  0.00     0.163 HD
BRANCH  10  13
ATOM     13  C6  non d ame     -29.853   8.459  21.896  0.00  0.00     0.086 C 
ATOM     14  H6  non d ame     -29.479   7.968  20.998  0.00  0.00     0.086 H 
BRANCH  13  15
ATOM     15  N2  non d ame     -29.790   9.889  21.645  0.00  0.00    -0.343 N 
ATOM     16  C5  non d ame     -29.965  10.825  22.757  0.00  0.00     0.273 C 
ATOM     17  O2  non d ame     -30.159  10.419  23.850  0.00  0.00    -0.266 OA
ATOM     18  H5  non d ame     -29.626  10.228  20.708  0.00  0.00     0.163 HD
BRANCH  16  19
ATOM     19  C4  non d ame     -29.900  12.340  22.505  0.00  0.00     0.154 A 
ATOM     20  C1  non d ame     -30.677  13.357  23.145  0.00  0.00    -0.017 A 
ATOM     21  C2  non d ame     -30.239  14.568  22.564  0.00  0.00     0.077 A 
ATOM     22  H1  non d ame     -31.440  13.235  23.913  0.00  0.00     0.091 H 
ATOM     23  O1  non d ame     -29.318  14.271  21.695  0.00  0.00    -0.218 OA
ATOM     24  N1  non d ame     -29.103  12.976  21.643  0.00  0.00    -0.123 NA
BRANCH  21  25
ATOM     25  C3  non d ame     -30.750  15.963  22.895  0.00  0.00    -0.029 C 
ATOM     26  H2  non d ame     -31.192  16.410  22.005  0.00  0.00     0.036 H 
ATOM     27  H3  non d ame     -31.505  15.898  23.679  0.00  0.00     0.036 H 
ATOM     28  H4  non d ame     -29.923  16.582  23.239  0.00  0.00     0.036 H 
ENDBRANCH  21  25
ENDBRANCH  16  19
ENDBRANCH  13  15
BRANCH  13  29
ATOM     29  C8  non d ame     -28.959   8.098  23.055  0.00  0.00    -0.049 C 
ATOM     30  H7  non d ame     -29.570   7.823  23.914  0.00  0.00     0.030 H 
ATOM     31  H8  non d ame     -28.325   7.256  22.778  0.00  0.00     0.030 H 
ATOM     32  H9  non d ame     -28.335   8.954  23.313  0.00  0.00     0.030 H 
ENDBRANCH  13  29
ENDBRANCH  10  13
ENDBRANCH   7   9
BRANCH   7  33
ATOM     33  C11 non d ame     -33.177   6.879  25.249  0.00  0.00    -0.033 C 
ATOM     34  H12 non d ame     -33.329   7.586  26.063  0.00  0.00     0.042 H 
BRANCH  33  35
ATOM     35  C12 non d ame     -34.366   5.869  25.276  0.00  0.00    -0.071 C 
ATOM     36  H13 non d ame     -35.207   6.282  24.718  0.00  0.00     0.028 H 
ATOM     37  H14 non d ame     -34.055   4.929  24.821  0.00  0.00     0.028 H 
ATOM     38  H15 non d ame     -34.669   5.691  26.308  0.00  0.00     0.028 H 
ENDBRANCH  33  35
BRANCH  33  39
ATOM     39  C13 non d ame     -31.813   6.156  25.485  0.00  0.00    -0.071 C 
ATOM     40  H16 non d ame     -31.389   5.857  24.527  0.00  0.00     0.028 H 
ATOM     41  H17 non d ame     -31.125   6.833  25.993  0.00  0.00     0.028 H 
ATOM     42  H18 non d ame     -31.972   5.272  26.104  0.00  0.00     0.028 H 
ENDBRANCH  33  39
ENDBRANCH   7  33
ENDBRANCH   4   7
ENDBRANCH   1   3
BRANCH   1  43
ATOM     43  C15 non d ame     -34.639  11.363  26.986  0.00  0.00     0.240 C 
ATOM     44  O5  non d ame     -34.916  12.500  27.190  0.00  0.00    -0.271 OA
ATOM     45  N6  non d ame     -33.934  10.572  28.034  0.00  0.00    -0.355 N 
ATOM     46  H46 non d ame     -33.698   9.602  27.874  0.00  0.00     0.162 HD
BRANCH  45  47
ATOM     47  C20 non d ame     -33.575  11.212  29.318  0.00  0.00     0.013 C 
ATOM     48  H30 non d ame     -34.090  12.171  29.369  0.00  0.00     0.072 H 
BRANCH  47  49
ATOM     49  C21 non d ame     -32.079  11.425  29.369  0.00  0.00    -0.038 C 
ATOM     50  H31 non d ame     -31.738  10.906  30.266  0.00  0.00     0.036 H 
ATOM     51  H32 non d ame     -31.705  11.124  28.390  0.00  0.00     0.036 H 
BRANCH  49  52
ATOM     52  C22 non d ame     -31.690  12.909  29.548  0.00  0.00     0.018 C 
ATOM     53  H33 non d ame     -32.460  13.341  30.186  0.00  0.00     0.048 H 
ATOM     54  H34 non d ame     -30.650  12.904  29.874  0.00  0.00     0.048 H 
BRANCH  52  55
ATOM     55  C23 non d ame     -31.721  13.727  28.227  0.00  0.00     0.259 C 
ATOM     56  O7  non d ame     -31.308  13.256  27.216  0.00  0.00    -0.265 OA
BRANCH  55  57
ATOM     57  O8  non d ame     -32.236  15.053  28.240  0.00  0.00    -0.317 OA
BRANCH  57  58
ATOM     58  C29 non d ame     -32.764  15.486  26.983  0.00  0.00     0.052 C 
ATOM     59  H47 non d ame     -32.054  15.143  26.231  0.00  0.00     0.082 H 
ATOM     60  H48 non d ame     -33.795  15.136  26.960  0.00  0.00     0.082 H 
BRANCH  58  61
ATOM     61  C35 non d ame     -32.774  17.038  26.977  0.00  0.00    -0.034 A 
ATOM     62  C30 non d ame     -32.987  17.728  25.787  0.00  0.00    -0.075 A 
ATOM     63  C31 non d ame     -32.995  19.123  25.782  0.00  0.00    -0.082 A 
ATOM     64  H49 non d ame     -33.146  17.178  24.860  0.00  0.00     0.084 H 
ATOM     65  C32 non d ame     -32.788  19.827  26.971  0.00  0.00    -0.083 A 
ATOM     66  H50 non d ame     -33.164  19.661  24.848  0.00  0.00     0.083 H 
ATOM     67  C33 non d ame     -32.572  19.134  28.154  0.00  0.00    -0.082 A 
ATOM     68  H51 non d ame     -32.794  20.917  26.975  0.00  0.00     0.083 H 
ATOM     69  C34 non d ame     -32.565  17.741  28.165  0.00  0.00    -0.075 A 
ATOM     70  H52 non d ame     -32.408  19.686  29.080  0.00  0.00     0.083 H 
ATOM     71  H53 non d ame     -32.396  17.203  29.098  0.00  0.00     0.084 H 
ENDBRANCH  58  61
ENDBRANCH  57  58
ENDBRANCH  55  57
ENDBRANCH  52  55
ENDBRANCH  49  52
ENDBRANCH  47  49
BRANCH  47  72
ATOM     72  C24 non d ame     -34.003  10.318  30.479  0.00  0.00    -0.039 C 
ATOM     73  H35 non d ame     -33.189   9.604  30.610  0.00  0.00     0.036 H 
ATOM     74  H36 non d ame     -34.266  10.999  31.288  0.00  0.00     0.036 H 
BRANCH  72  75
ATOM     75  C25 non d ame     -35.319   9.475  30.124  0.00  0.00    -0.001 C 
ATOM     76  C26 non d ame     -36.654  10.273  30.654  0.00  0.00    -0.035 C 
ATOM     77  C27 non d ame     -37.408   9.423  31.392  0.00  0.00     0.085 C 
ATOM     78  H38 non d ame     -36.370  11.046  31.368  0.00  0.00     0.036 H 
ATOM     79  H39 non d ame     -37.302  10.521  29.812  0.00  0.00     0.036 H 
ATOM     80  N5  non d ame     -36.549   8.216  31.686  0.00  0.00    -0.049 N 
ATOM     81  H40 non d ame     -37.613   9.949  32.324  0.00  0.00     0.075 H 
ATOM     82  H41 non d ame     -38.230   9.124  30.743  0.00  0.00     0.075 H 
ATOM     83  C28 non d ame     -35.291   8.310  30.680  0.00  0.00     0.193 C 
ATOM     84  H42 non d ame     -36.213   8.328  32.632  0.00  0.00     0.280 HD
ATOM     85  H43 non d ame     -37.101   7.407  31.438  0.00  0.00     0.280 HD
ATOM     86  H44 non d ame     -35.240   7.671  29.797  0.00  0.00     0.129 H 
ATOM     87  H37 non d ame     -35.323   9.133  29.089  0.00  0.00     0.046 H 
BRANCH  83  88
ATOM     88  O6  non d ame     -34.073   8.080  31.390  0.00  0.00    -0.369 OA
ATOM     89  H45 non d ame     -33.430   8.752  31.150  0.00  0.00     0.212 HD
ENDBRANCH  83  88
ENDBRANCH  72  75
ENDBRANCH  47  72
ENDBRANCH  45  47
ENDBRANCH   1  43
BRANCH   1  90
ATOM     90  C16 non d ame     -36.499  10.330  25.645  0.00  0.00    -0.035 C 
ATOM     91  H21 non d ame     -37.026  11.219  25.302  0.00  0.00     0.037 H 
ATOM     92  H22 non d ame     -36.567   9.402  25.078  0.00  0.00     0.037 H 
BRANCH  90  93
ATOM     93  C17 non d ame     -37.050  10.016  27.073  0.00  0.00    -0.059 C 
ATOM     94  H23 non d ame     -36.251  10.215  27.787  0.00  0.00     0.038 H 
BRANCH  93  95
ATOM     95  C18 non d ame     -38.262  10.927  27.451  0.00  0.00    -0.073 C 
ATOM     96  H24 non d ame     -39.116  10.304  27.719  0.00  0.00     0.028 H 
ATOM     97  H25 non d ame     -37.993  11.556  28.299  0.00  0.00     0.028 H 
ATOM     98  H26 non d ame     -38.523  11.556  26.600  0.00  0.00     0.028 H 
ENDBRANCH  93  95
BRANCH  93  99
ATOM     99  C19 non d ame     -37.420   8.536  27.203  0.00  0.00    -0.073 C 
ATOM    100  H27 non d ame     -36.726   8.047  27.888  0.00  0.00     0.028 H 
ATOM    101  H28 non d ame     -38.435   8.447  27.592  0.00  0.00     0.028 H 
ATOM    102  H29 non d ame     -37.363   8.060  26.225  0.00  0.00     0.028 H 
ENDBRANCH  93  99
ENDBRANCH  90  93
ENDBRANCH   1  90
TORSDOF 26
ENDMDL
MODEL 14
REMARK VINA RESULT:      -6.2      2.354      9.927
REMARK  26 active torsions:
REMARK  status: ('A' for Active; 'I' for Inactive)
REMARK    1  A    between atoms: C2_2  and  C3_3 
REMARK    2  A    between atoms: C4_6  and  C5_7 
REMARK       I    between atoms: C5_7  and  N2_9 
REMARK    3  A    between atoms: N2_9  and  C6_10 
REMARK    4  A    between atoms: C6_10  and  C7_11 
REMARK    5  A    between atoms: C6_10  and  C8_13 
REMARK       I    between atoms: C7_11  and  N3_14 
REMARK    6  A    between atoms: N3_14  and  C9_15 
REMARK    7  A    between atoms: C9_15  and  C10_16 
REMARK    8  A    between atoms: C9_15  and  C11_18 
REMARK       I    between atoms: C10_16  and  N4_21 
REMARK    9  A    between atoms: C11_18  and  C12_19 
REMARK   10  A    between atoms: C11_18  and  C13_20 
REMARK   11  A    between atoms: N4_21  and  C14_22 
REMARK   12  A    between atoms: C14_22  and  C15_23 
REMARK   13  A    between atoms: C14_22  and  C16_25 
REMARK       I    between atoms: C15_23  and  N6_40 
REMARK   14  A    between atoms: C16_25  and  C17_26 
REMARK   15  A    between atoms: C17_26  and  C18_27 
REMARK   16  A    between atoms: C17_26  and  C19_28 
REMARK   17  A    between atoms: C20_29  and  C21_30 
REMARK   18  A    between atoms: C20_29  and  C24_33 
REMARK   19  A    between atoms: C20_29  and  N6_40 
REMARK   20  A    between atoms: C21_30  and  C22_31 
REMARK   21  A    between atoms: C22_31  and  C23_32 
REMARK   22  A    between atoms: C23_32  and  O8_43 
REMARK   23  A    between atoms: C24_33  and  C25_34 
REMARK   24  A    between atoms: C28_38  and  O6_39 
REMARK   25  A    between atoms: C29_42  and  O8_43 
REMARK   26  A    between atoms: C29_42  and  C35_49 
ROOT
ATOM      1  C14 non d ame     -35.769  10.084  28.506  0.00  0.00     0.089 C 
ATOM      2  H20 non d ame     -35.809   9.650  29.506  0.00  0.00     0.087 H 
ENDROOT
BRANCH   1   3
ATOM      3  N4  non d ame     -34.568  10.903  28.432  0.00  0.00    -0.346 N 
ATOM      4  C10 non d ame     -33.227  10.323  28.803  0.00  0.00     0.241 C 
ATOM      5  O4  non d ame     -33.138   9.195  29.161  0.00  0.00    -0.271 OA
ATOM      6  H19 non d ame     -34.665  11.861  28.128  0.00  0.00     0.163 HD
BRANCH   4   7
ATOM      7  C9  non d ame     -31.993  11.183  28.716  0.00  0.00     0.092 C 
ATOM      8  H11 non d ame     -31.161  10.581  28.352  0.00  0.00     0.088 H 
BRANCH   7   9
ATOM      9  N3  non d ame     -32.212  12.256  27.740  0.00  0.00    -0.346 N 
ATOM     10  C7  non d ame     -31.677  12.137  26.407  0.00  0.00     0.240 C 
ATOM     11  O3  non d ame     -31.067  11.186  26.102  0.00  0.00    -0.271 OA
ATOM     12  H10 non d ame     -32.735  13.083  27.990  0.00  0.00     0.163 HD
BRANCH  10  13
ATOM     13  C6  non d ame     -31.911  13.283  25.374  0.00  0.00     0.086 C 
ATOM     14  H6  non d ame     -32.849  13.175  24.830  0.00  0.00     0.086 H 
BRANCH  13  15
ATOM     15  N2  non d ame     -31.984  14.549  26.083  0.00  0.00    -0.343 N 
ATOM     16  C5  non d ame     -33.248  15.288  26.111  0.00  0.00     0.273 C 
ATOM     17  O2  non d ame     -34.200  14.858  25.558  0.00  0.00    -0.266 OA
ATOM     18  H5  non d ame     -31.165  14.912  26.550  0.00  0.00     0.163 HD
BRANCH  16  19
ATOM     19  C4  non d ame     -33.339  16.629  26.857  0.00  0.00     0.154 A 
ATOM     20  C1  non d ame     -32.896  17.908  26.395  0.00  0.00    -0.017 A 
ATOM     21  C2  non d ame     -33.206  18.801  27.445  0.00  0.00     0.077 A 
ATOM     22  H1  non d ame     -32.422  18.151  25.444  0.00  0.00     0.091 H 
ATOM     23  O1  non d ame     -33.763  18.107  28.393  0.00  0.00    -0.218 OA
ATOM     24  N1  non d ame     -33.852  16.836  28.073  0.00  0.00    -0.123 NA
BRANCH  21  25
ATOM     25  C3  non d ame     -32.939  20.300  27.462  0.00  0.00    -0.029 C 
ATOM     26  H2  non d ame     -32.713  20.618  28.479  0.00  0.00     0.036 H 
ATOM     27  H3  non d ame     -32.090  20.526  26.816  0.00  0.00     0.036 H 
ATOM     28  H4  non d ame     -33.819  20.831  27.102  0.00  0.00     0.036 H 
ENDBRANCH  21  25
ENDBRANCH  16  19
ENDBRANCH  13  15
BRANCH  13  29
ATOM     29  C8  non d ame     -30.775  13.309  24.383  0.00  0.00    -0.049 C 
ATOM     30  H7  non d ame     -30.467  12.290  24.156  0.00  0.00     0.030 H 
ATOM     31  H8  non d ame     -31.102  13.802  23.468  0.00  0.00     0.030 H 
ATOM     32  H9  non d ame     -29.934  13.857  24.810  0.00  0.00     0.030 H 
ENDBRANCH  13  29
ENDBRANCH  10  13
ENDBRANCH   7   9
BRANCH   7  33
ATOM     33  C11 non d ame     -31.698  11.808  30.112  0.00  0.00    -0.033 C 
ATOM     34  H12 non d ame     -30.938  11.193  30.593  0.00  0.00     0.042 H 
BRANCH  33  35
ATOM     35  C12 non d ame     -31.117  13.250  29.976  0.00  0.00    -0.071 C 
ATOM     36  H13 non d ame     -30.335  13.257  29.216  0.00  0.00     0.028 H 
ATOM     37  H14 non d ame     -31.911  13.937  29.686  0.00  0.00     0.028 H 
ATOM     38  H15 non d ame     -30.695  13.564  30.931  0.00  0.00     0.028 H 
ENDBRANCH  33  35
BRANCH  33  39
ATOM     39  C13 non d ame     -32.974  11.793  31.012  0.00  0.00    -0.071 C 
ATOM     40  H16 non d ame     -32.805  11.144  31.871  0.00  0.00     0.028 H 
ATOM     41  H17 non d ame     -33.188  12.806  31.357  0.00  0.00     0.028 H 
ATOM     42  H18 non d ame     -33.821  11.421  30.436  0.00  0.00     0.028 H 
ENDBRANCH  33  39
ENDBRANCH   7  33
ENDBRANCH   4   7
ENDBRANCH   1   3
BRANCH   1  43
ATOM     43  C15 non d ame     -35.695   8.995  27.397  0.00  0.00     0.240 C 
ATOM     44  O5  non d ame     -36.117   9.229  26.311  0.00  0.00    -0.271 OA
ATOM     45  N6  non d ame     -35.088   7.665  27.686  0.00  0.00    -0.355 N 
ATOM     46  H46 non d ame     -34.722   7.456  28.604  0.00  0.00     0.162 HD
BRANCH  45  47
ATOM     47  C20 non d ame     -35.025   6.641  26.621  0.00  0.00     0.013 C 
ATOM     48  H30 non d ame     -35.616   6.999  25.777  0.00  0.00     0.072 H 
BRANCH  47  49
ATOM     49  C21 non d ame     -35.599   5.342  27.140  0.00  0.00    -0.038 C 
ATOM     50  H31 non d ame     -36.525   5.612  27.648  0.00  0.00     0.036 H 
ATOM     51  H32 non d ame     -35.623   4.668  26.283  0.00  0.00     0.036 H 
BRANCH  49  52
ATOM     52  C22 non d ame     -34.698   4.670  28.199  0.00  0.00     0.018 C 
ATOM     53  H33 non d ame     -35.048   3.642  28.274  0.00  0.00     0.048 H 
ATOM     54  H34 non d ame     -33.674   4.878  27.889  0.00  0.00     0.048 H 
BRANCH  52  55
ATOM     55  C23 non d ame     -34.846   5.278  29.622  0.00  0.00     0.259 C 
ATOM     56  O7  non d ame     -34.063   5.011  30.476  0.00  0.00    -0.265 OA
BRANCH  55  57
ATOM     57  O8  non d ame     -35.938   6.147  29.899  0.00  0.00    -0.317 OA
BRANCH  57  58
ATOM     58  C29 non d ame     -37.061   5.498  30.502  0.00  0.00     0.052 C 
ATOM     59  H47 non d ame     -36.755   4.464  30.659  0.00  0.00     0.082 H 
ATOM     60  H48 non d ame     -37.340   6.119  31.352  0.00  0.00     0.082 H 
BRANCH  58  61
ATOM     61  C35 non d ame     -38.228   5.514  29.479  0.00  0.00    -0.034 A 
ATOM     62  C30 non d ame     -38.618   6.712  28.886  0.00  0.00    -0.075 A 
ATOM     63  C31 non d ame     -39.667   6.727  27.968  0.00  0.00    -0.082 A 
ATOM     64  H49 non d ame     -38.103   7.638  29.142  0.00  0.00     0.084 H 
ATOM     65  C32 non d ame     -40.328   5.539  27.643  0.00  0.00    -0.083 A 
ATOM     66  H50 non d ame     -39.969   7.667  27.504  0.00  0.00     0.083 H 
ATOM     67  C33 non d ame     -39.938   4.348  28.240  0.00  0.00    -0.082 A 
ATOM     68  H51 non d ame     -41.148   5.543  26.925  0.00  0.00     0.083 H 
ATOM     69  C34 non d ame     -38.889   4.328  29.157  0.00  0.00    -0.075 A 
ATOM     70  H52 non d ame     -40.457   3.423  27.986  0.00  0.00     0.083 H 
ATOM     71  H53 non d ame     -38.587   3.388  29.620  0.00  0.00     0.084 H 
ENDBRANCH  58  61
ENDBRANCH  57  58
ENDBRANCH  55  57
ENDBRANCH  52  55
ENDBRANCH  49  52
ENDBRANCH  47  49
BRANCH  47  72
ATOM     72  C24 non d ame     -33.574   6.425  26.197  0.00  0.00    -0.039 C 
ATOM     73  H35 non d ame     -32.975   6.972  26.927  0.00  0.00     0.036 H 
ATOM     74  H36 non d ame     -33.458   5.346  26.097  0.00  0.00     0.036 H 
BRANCH  72  75
ATOM     75  C25 non d ame     -33.273   7.069  24.762  0.00  0.00    -0.001 C 
ATOM     76  C26 non d ame     -32.531   5.964  23.797  0.00  0.00    -0.035 C 
ATOM     77  C27 non d ame     -31.412   6.520  23.275  0.00  0.00     0.085 C 
ATOM     78  H38 non d ame     -32.148   5.139  24.398  0.00  0.00     0.036 H 
ATOM     79  H39 non d ame     -33.147   5.759  22.921  0.00  0.00     0.036 H 
ATOM     80  N5  non d ame     -31.148   7.789  24.050  0.00  0.00    -0.049 N 
ATOM     81  H40 non d ame     -30.612   5.808  23.474  0.00  0.00     0.075 H 
ATOM     82  H41 non d ame     -31.668   6.779  22.248  0.00  0.00     0.075 H 
ATOM     83  C28 non d ame     -32.505   8.102  24.865  0.00  0.00     0.193 C 
ATOM     84  H42 non d ame     -30.418   7.572  24.713  0.00  0.00     0.280 HD
ATOM     85  H43 non d ame     -31.008   8.518  23.365  0.00  0.00     0.280 HD
ATOM     86  H44 non d ame     -33.184   8.887  24.529  0.00  0.00     0.129 H 
ATOM     87  H37 non d ame     -34.140   7.584  24.350  0.00  0.00     0.046 H 
BRANCH  83  88
ATOM     88  O6  non d ame     -32.202   8.416  26.226  0.00  0.00    -0.369 OA
ATOM     89  H45 non d ame     -31.528   9.099  26.255  0.00  0.00     0.212 HD
ENDBRANCH  83  88
ENDBRANCH  72  75
ENDBRANCH  47  72
ENDBRANCH  45  47
ENDBRANCH   1  43
BRANCH   1  90
ATOM     90  C16 non d ame     -36.986  10.965  28.277  0.00  0.00    -0.035 C 
ATOM     91  H21 non d ame     -36.620  11.988  28.352  0.00  0.00     0.037 H 
ATOM     92  H22 non d ame     -37.428  10.610  27.346  0.00  0.00     0.037 H 
BRANCH  90  93
ATOM     93  C17 non d ame     -38.086  10.810  29.376  0.00  0.00    -0.059 C 
ATOM     94  H23 non d ame     -38.255  11.792  29.815  0.00  0.00     0.038 H 
BRANCH  93  95
ATOM     95  C18 non d ame     -39.444  10.314  28.784  0.00  0.00    -0.073 C 
ATOM     96  H24 non d ame     -40.116  10.038  29.596  0.00  0.00     0.028 H 
ATOM     97  H25 non d ame     -39.897  11.112  28.195  0.00  0.00     0.028 H 
ATOM     98  H26 non d ame     -39.269   9.448  28.147  0.00  0.00     0.028 H 
ENDBRANCH  93  95
BRANCH  93  99
ATOM     99  C19 non d ame     -37.612   9.883  30.498  0.00  0.00    -0.073 C 
ATOM    100  H27 non d ame     -38.064  10.194  31.441  0.00  0.00     0.028 H 
ATOM    101  H28 non d ame     -37.908   8.858  30.275  0.00  0.00     0.028 H 
ATOM    102  H29 non d ame     -36.526   9.938  30.580  0.00  0.00     0.028 H 
ENDBRANCH  93  99
ENDBRANCH  90  93
ENDBRANCH   1  90
TORSDOF 26
ENDMDL
