MODEL 1
REMARK VINA RESULT:      -6.9      0.000      0.000
REMARK  26 active torsions:
REMARK  status: ('A' for Active; 'I' for Inactive)
REMARK    1  A    between atoms: C2_2  and  C3_3 
REMARK    2  A    between atoms: C4_6  and  C5_7 
REMARK       I    between atoms: C5_7  and  N2_9 
REMARK    3  A    between atoms: N2_9  and  C6_10 
REMARK    4  A    between atoms: C6_10  and  C7_11 
REMARK    5  A    between atoms: C6_10  and  C8_13 
REMARK       I    between atoms: C7_11  and  N3_14 
REMARK    6  A    between atoms: N3_14  and  C9_15 
REMARK    7  A    between atoms: C9_15  and  C10_16 
REMARK    8  A    between atoms: C9_15  and  C11_18 
REMARK       I    between atoms: C10_16  and  N4_21 
REMARK    9  A    between atoms: C11_18  and  C12_19 
REMARK   10  A    between atoms: C11_18  and  C13_20 
REMARK   11  A    between atoms: N4_21  and  C14_22 
REMARK   12  A    between atoms: C14_22  and  C15_23 
REMARK   13  A    between atoms: C14_22  and  C16_25 
REMARK       I    between atoms: C15_23  and  N6_40 
REMARK   14  A    between atoms: C16_25  and  C17_26 
REMARK   15  A    between atoms: C17_26  and  C18_27 
REMARK   16  A    between atoms: C17_26  and  C19_28 
REMARK   17  A    between atoms: C20_29  and  C21_30 
REMARK   18  A    between atoms: C20_29  and  C24_33 
REMARK   19  A    between atoms: C20_29  and  N6_40 
REMARK   20  A    between atoms: C21_30  and  C22_31 
REMARK   21  A    between atoms: C22_31  and  C23_32 
REMARK   22  A    between atoms: C23_32  and  O8_43 
REMARK   23  A    between atoms: C24_33  and  C25_34 
REMARK   24  A    between atoms: C28_38  and  O6_39 
REMARK   25  A    between atoms: C29_42  and  O8_43 
REMARK   26  A    between atoms: C29_42  and  C35_49 
ROOT
ATOM      1  C14 non d ame     -33.182  10.773  25.918  0.00  0.00     0.089 C 
ATOM      2  H20 non d ame     -33.891  10.869  25.096  0.00  0.00     0.087 H 
ENDROOT
BRANCH   1   3
ATOM      3  N4  non d ame     -32.725   9.392  25.944  0.00  0.00    -0.346 N 
ATOM      4  C10 non d ame     -32.765   8.552  24.693  0.00  0.00     0.241 C 
ATOM      5  O4  non d ame     -33.171   9.009  23.676  0.00  0.00    -0.271 OA
ATOM      6  H19 non d ame     -32.387   9.021  26.821  0.00  0.00     0.163 HD
BRANCH   4   7
ATOM      7  C9  non d ame     -32.285   7.125  24.738  0.00  0.00     0.092 C 
ATOM      8  H11 non d ame     -31.281   7.097  25.160  0.00  0.00     0.088 H 
BRANCH   7   9
ATOM      9  N3  non d ame     -33.151   6.345  25.627  0.00  0.00    -0.346 N 
ATOM     10  C7  non d ame     -32.772   6.139  27.003  0.00  0.00     0.240 C 
ATOM     11  O3  non d ame     -31.774   6.594  27.412  0.00  0.00    -0.271 OA
ATOM     12  H10 non d ame     -34.015   5.946  25.288  0.00  0.00     0.163 HD
BRANCH  10  13
ATOM     13  C6  non d ame     -33.697   5.305  27.944  0.00  0.00     0.086 C 
ATOM     14  H6  non d ame     -33.181   4.462  28.403  0.00  0.00     0.086 H 
BRANCH  13  15
ATOM     15  N2  non d ame     -34.153   6.155  29.031  0.00  0.00    -0.343 N 
ATOM     16  C5  non d ame     -34.809   7.428  28.726  0.00  0.00     0.273 C 
ATOM     17  O2  non d ame     -34.963   7.762  27.603  0.00  0.00    -0.266 OA
ATOM     18  H5  non d ame     -34.014   5.864  29.989  0.00  0.00     0.163 HD
BRANCH  16  19
ATOM     19  C4  non d ame     -35.297   8.336  29.867  0.00  0.00     0.154 A 
ATOM     20  C1  non d ame     -34.502   9.203  30.681  0.00  0.00    -0.017 A 
ATOM     21  C2  non d ame     -35.419   9.807  31.570  0.00  0.00     0.077 A 
ATOM     22  H1  non d ame     -33.426   9.368  30.635  0.00  0.00     0.091 H 
ATOM     23  O1  non d ame     -36.599   9.337  31.289  0.00  0.00    -0.218 OA
ATOM     24  N1  non d ame     -36.553   8.476  30.298  0.00  0.00    -0.123 NA
BRANCH  21  25
ATOM     25  C3  non d ame     -35.088  10.823  32.655  0.00  0.00    -0.029 C 
ATOM     26  H2  non d ame     -34.883  10.302  33.590  0.00  0.00     0.036 H 
ATOM     27  H3  non d ame     -34.209  11.396  32.360  0.00  0.00     0.036 H 
ATOM     28  H4  non d ame     -35.932  11.498  32.792  0.00  0.00     0.036 H 
ENDBRANCH  21  25
ENDBRANCH  16  19
ENDBRANCH  13  15
BRANCH  13  29
ATOM     29  C8  non d ame     -34.877   4.787  27.163  0.00  0.00    -0.049 C 
ATOM     30  H7  non d ame     -34.691   3.757  26.862  0.00  0.00     0.030 H 
ATOM     31  H8  non d ame     -35.771   4.827  27.786  0.00  0.00     0.030 H 
ATOM     32  H9  non d ame     -35.025   5.404  26.275  0.00  0.00     0.030 H 
ENDBRANCH  13  29
ENDBRANCH  10  13
ENDBRANCH   7   9
BRANCH   7  33
ATOM     33  C11 non d ame     -32.335   6.516  23.305  0.00  0.00    -0.033 C 
ATOM     34  H12 non d ame     -32.996   7.141  22.706  0.00  0.00     0.042 H 
BRANCH  33  35
ATOM     35  C12 non d ame     -30.928   6.539  22.630  0.00  0.00    -0.071 C 
ATOM     36  H13 non d ame     -30.769   5.604  22.091  0.00  0.00     0.028 H 
ATOM     37  H14 non d ame     -30.873   7.374  21.932  0.00  0.00     0.028 H 
ATOM     38  H15 non d ame     -30.160   6.651  23.394  0.00  0.00     0.028 H 
ENDBRANCH  33  35
BRANCH  33  39
ATOM     39  C13 non d ame     -32.928   5.072  23.332  0.00  0.00    -0.071 C 
ATOM     40  H16 non d ame     -32.957   4.672  22.318  0.00  0.00     0.028 H 
ATOM     41  H17 non d ame     -32.304   4.433  23.957  0.00  0.00     0.028 H 
ATOM     42  H18 non d ame     -33.939   5.101  23.739  0.00  0.00     0.028 H 
ENDBRANCH  33  39
ENDBRANCH   7  33
ENDBRANCH   4   7
ENDBRANCH   1   3
BRANCH   1  43
ATOM     43  C15 non d ame     -31.945  11.700  25.735  0.00  0.00     0.240 C 
ATOM     44  O5  non d ame     -30.893  11.376  26.184  0.00  0.00    -0.271 OA
ATOM     45  N6  non d ame     -32.069  12.986  24.992  0.00  0.00    -0.355 N 
ATOM     46  H46 non d ame     -32.957  13.269  24.602  0.00  0.00     0.162 HD
BRANCH  45  47
ATOM     47  C20 non d ame     -30.884  13.854  24.827  0.00  0.00     0.013 C 
ATOM     48  H30 non d ame     -30.081  13.445  25.440  0.00  0.00     0.072 H 
BRANCH  47  49
ATOM     49  C21 non d ame     -31.222  15.255  25.283  0.00  0.00    -0.038 C 
ATOM     50  H31 non d ame     -30.500  15.493  26.064  0.00  0.00     0.036 H 
ATOM     51  H32 non d ame     -31.262  15.859  24.376  0.00  0.00     0.036 H 
BRANCH  49  52
ATOM     52  C22 non d ame     -32.619  15.352  25.934  0.00  0.00     0.018 C 
ATOM     53  H33 non d ame     -33.279  15.743  25.161  0.00  0.00     0.048 H 
ATOM     54  H34 non d ame     -32.810  14.371  26.370  0.00  0.00     0.048 H 
BRANCH  52  55
ATOM     55  C23 non d ame     -32.692  16.364  27.111  0.00  0.00     0.259 C 
ATOM     56  O7  non d ame     -32.700  17.534  26.900  0.00  0.00    -0.265 OA
BRANCH  55  57
ATOM     57  O8  non d ame     -32.736  15.878  28.447  0.00  0.00    -0.317 OA
BRANCH  57  58
ATOM     58  C29 non d ame     -33.395  14.616  28.587  0.00  0.00     0.052 C 
ATOM     59  H47 non d ame     -34.231  14.794  29.263  0.00  0.00     0.082 H 
ATOM     60  H48 non d ame     -33.579  14.265  27.572  0.00  0.00     0.082 H 
BRANCH  58  61
ATOM     61  C35 non d ame     -32.409  13.634  29.273  0.00  0.00    -0.034 A 
ATOM     62  C30 non d ame     -31.068  13.620  28.900  0.00  0.00    -0.075 A 
ATOM     63  C31 non d ame     -30.181  12.737  29.516  0.00  0.00    -0.082 A 
ATOM     64  H49 non d ame     -30.712  14.299  28.125  0.00  0.00     0.084 H 
ATOM     65  C32 non d ame     -30.640  11.866  30.507  0.00  0.00    -0.083 A 
ATOM     66  H50 non d ame     -29.131  12.730  29.223  0.00  0.00     0.083 H 
ATOM     67  C33 non d ame     -31.979  11.881  30.873  0.00  0.00    -0.082 A 
ATOM     68  H51 non d ame     -29.953  11.173  30.994  0.00  0.00     0.083 H 
ATOM     69  C34 non d ame     -32.868  12.762  30.261  0.00  0.00    -0.075 A 
ATOM     70  H52 non d ame     -32.334  11.197  31.645  0.00  0.00     0.083 H 
ATOM     71  H53 non d ame     -33.918  12.769  30.555  0.00  0.00     0.084 H 
ENDBRANCH  58  61
ENDBRANCH  57  58
ENDBRANCH  55  57
ENDBRANCH  52  55
ENDBRANCH  49  52
ENDBRANCH  47  49
BRANCH  47  72
ATOM     72  C24 non d ame     -30.466  13.883  23.358  0.00  0.00    -0.039 C 
ATOM     73  H35 non d ame     -29.526  13.331  23.314  0.00  0.00     0.036 H 
ATOM     74  H36 non d ame     -31.333  13.525  22.802  0.00  0.00     0.036 H 
BRANCH  72  75
ATOM     75  C25 non d ame     -30.164  15.374  22.856  0.00  0.00    -0.001 C 
ATOM     76  C26 non d ame     -31.304  15.839  21.766  0.00  0.00    -0.035 C 
ATOM     77  C27 non d ame     -30.683  16.310  20.658  0.00  0.00     0.085 C 
ATOM     78  H38 non d ame     -31.850  14.969  21.402  0.00  0.00     0.036 H 
ATOM     79  H39 non d ame     -31.848  16.706  22.141  0.00  0.00     0.036 H 
ATOM     80  N5  non d ame     -29.231  15.905  20.761  0.00  0.00    -0.049 N 
ATOM     81  H40 non d ame     -31.141  15.782  19.822  0.00  0.00     0.075 H 
ATOM     82  H41 non d ame     -30.754  17.394  20.723  0.00  0.00     0.075 H 
ATOM     83  C28 non d ame     -29.004  15.451  22.293  0.00  0.00     0.193 C 
ATOM     84  H42 non d ame     -29.117  15.097  20.166  0.00  0.00     0.280 HD
ATOM     85  H43 non d ame     -28.690  16.740  20.589  0.00  0.00     0.280 HD
ATOM     86  H44 non d ame     -28.488  16.108  22.994  0.00  0.00     0.129 H 
ATOM     87  H37 non d ame     -29.961  16.054  23.682  0.00  0.00     0.046 H 
BRANCH  83  88
ATOM     88  O6  non d ame     -28.298  14.210  22.341  0.00  0.00    -0.369 OA
ATOM     89  H45 non d ame     -28.441  13.729  21.522  0.00  0.00     0.212 HD
ENDBRANCH  83  88
ENDBRANCH  72  75
ENDBRANCH  47  72
ENDBRANCH  45  47
ENDBRANCH   1  43
BRANCH   1  90
ATOM     90  C16 non d ame     -33.871  11.095  27.234  0.00  0.00    -0.035 C 
ATOM     91  H21 non d ame     -34.104  10.130  27.681  0.00  0.00     0.037 H 
ATOM     92  H22 non d ame     -33.204  11.788  27.747  0.00  0.00     0.037 H 
BRANCH  90  93
ATOM     93  C17 non d ame     -35.233  11.840  27.061  0.00  0.00    -0.059 C 
ATOM     94  H23 non d ame     -35.127  12.830  27.504  0.00  0.00     0.038 H 
BRANCH  93  95
ATOM     95  C18 non d ame     -35.614  12.031  25.558  0.00  0.00    -0.073 C 
ATOM     96  H24 non d ame     -36.528  11.477  25.341  0.00  0.00     0.028 H 
ATOM     97  H25 non d ame     -35.776  13.089  25.356  0.00  0.00     0.028 H 
ATOM     98  H26 non d ame     -34.806  11.659  24.928  0.00  0.00     0.028 H 
ENDBRANCH  93  95
BRANCH  93  99
ATOM     99  C19 non d ame     -36.351  11.118  27.818  0.00  0.00    -0.073 C 
ATOM    100  H27 non d ame     -36.233  10.040  27.699  0.00  0.00     0.028 H 
ATOM    101  H28 non d ame     -36.298  11.374  28.877  0.00  0.00     0.028 H 
ATOM    102  H29 non d ame     -37.318  11.425  27.419  0.00  0.00     0.028 H 
ENDBRANCH  93  99
ENDBRANCH  90  93
ENDBRANCH   1  90
TORSDOF 26
ENDMDL
MODEL 2
REMARK VINA RESULT:      -6.7      2.237      5.529
REMARK  26 active torsions:
REMARK  status: ('A' for Active; 'I' for Inactive)
REMARK    1  A    between atoms: C2_2  and  C3_3 
REMARK    2  A    between atoms: C4_6  and  C5_7 
REMARK       I    between atoms: C5_7  and  N2_9 
REMARK    3  A    between atoms: N2_9  and  C6_10 
REMARK    4  A    between atoms: C6_10  and  C7_11 
REMARK    5  A    between atoms: C6_10  and  C8_13 
REMARK       I    between atoms: C7_11  and  N3_14 
REMARK    6  A    between atoms: N3_14  and  C9_15 
REMARK    7  A    between atoms: C9_15  and  C10_16 
REMARK    8  A    between atoms: C9_15  and  C11_18 
REMARK       I    between atoms: C10_16  and  N4_21 
REMARK    9  A    between atoms: C11_18  and  C12_19 
REMARK   10  A    between atoms: C11_18  and  C13_20 
REMARK   11  A    between atoms: N4_21  and  C14_22 
REMARK   12  A    between atoms: C14_22  and  C15_23 
REMARK   13  A    between atoms: C14_22  and  C16_25 
REMARK       I    between atoms: C15_23  and  N6_40 
REMARK   14  A    between atoms: C16_25  and  C17_26 
REMARK   15  A    between atoms: C17_26  and  C18_27 
REMARK   16  A    between atoms: C17_26  and  C19_28 
REMARK   17  A    between atoms: C20_29  and  C21_30 
REMARK   18  A    between atoms: C20_29  and  C24_33 
REMARK   19  A    between atoms: C20_29  and  N6_40 
REMARK   20  A    between atoms: C21_30  and  C22_31 
REMARK   21  A    between atoms: C22_31  and  C23_32 
REMARK   22  A    between atoms: C23_32  and  O8_43 
REMARK   23  A    between atoms: C24_33  and  C25_34 
REMARK   24  A    between atoms: C28_38  and  O6_39 
REMARK   25  A    between atoms: C29_42  and  O8_43 
REMARK   26  A    between atoms: C29_42  and  C35_49 
ROOT
ATOM      1  C14 non d ame     -30.844  14.615  23.911  0.00  0.00     0.089 C 
ATOM      2  H20 non d ame     -29.755  14.657  23.884  0.00  0.00     0.087 H 
ENDROOT
BRANCH   1   3
ATOM      3  N4  non d ame     -31.222  13.244  24.223  0.00  0.00    -0.346 N 
ATOM      4  C10 non d ame     -30.624  12.095  23.452  0.00  0.00     0.241 C 
ATOM      5  O4  non d ame     -29.842  12.297  22.582  0.00  0.00    -0.271 OA
ATOM      6  H19 non d ame     -31.891  13.093  24.964  0.00  0.00     0.163 HD
BRANCH   4   7
ATOM      7  C9  non d ame     -31.022  10.683  23.791  0.00  0.00     0.092 C 
ATOM      8  H11 non d ame     -30.472  10.357  24.673  0.00  0.00     0.088 H 
BRANCH   7   9
ATOM      9  N3  non d ame     -32.448  10.645  24.131  0.00  0.00    -0.346 N 
ATOM     10  C7  non d ame     -32.872  10.900  25.486  0.00  0.00     0.240 C 
ATOM     11  O3  non d ame     -32.080  11.137  26.314  0.00  0.00    -0.271 OA
ATOM     12  H10 non d ame     -33.142  10.441  23.427  0.00  0.00     0.163 HD
BRANCH  10  13
ATOM     13  C6  non d ame     -34.390  10.855  25.843  0.00  0.00     0.086 C 
ATOM     14  H6  non d ame     -35.016  10.594  24.990  0.00  0.00     0.086 H 
BRANCH  13  15
ATOM     15  N2  non d ame     -34.608   9.829  26.849  0.00  0.00    -0.343 N 
ATOM     16  C5  non d ame     -34.537   8.418  26.466  0.00  0.00     0.273 C 
ATOM     17  O2  non d ame     -34.306   8.117  25.347  0.00  0.00    -0.266 OA
ATOM     18  H5  non d ame     -34.808  10.095  27.803  0.00  0.00     0.163 HD
BRANCH  16  19
ATOM     19  C4  non d ame     -34.765   7.322  27.520  0.00  0.00     0.154 A 
ATOM     20  C1  non d ame     -33.777   6.477  28.116  0.00  0.00    -0.017 A 
ATOM     21  C2  non d ame     -34.495   5.653  29.011  0.00  0.00     0.077 A 
ATOM     22  H1  non d ame     -32.703   6.464  27.930  0.00  0.00     0.091 H 
ATOM     23  O1  non d ame     -35.748   5.994  28.931  0.00  0.00    -0.218 OA
ATOM     24  N1  non d ame     -35.930   6.966  28.067  0.00  0.00    -0.123 NA
BRANCH  21  25
ATOM     25  C3  non d ame     -33.911   4.567  29.904  0.00  0.00    -0.029 C 
ATOM     26  H2  non d ame     -34.563   4.414  30.764  0.00  0.00     0.036 H 
ATOM     27  H3  non d ame     -33.830   3.637  29.341  0.00  0.00     0.036 H 
ATOM     28  H4  non d ame     -32.923   4.871  30.248  0.00  0.00     0.036 H 
ENDBRANCH  21  25
ENDBRANCH  16  19
ENDBRANCH  13  15
BRANCH  13  29
ATOM     29  C8  non d ame     -34.824  12.198  26.372  0.00  0.00    -0.049 C 
ATOM     30  H7  non d ame     -34.516  12.980  25.679  0.00  0.00     0.030 H 
ATOM     31  H8  non d ame     -35.909  12.214  26.478  0.00  0.00     0.030 H 
ATOM     32  H9  non d ame     -34.361  12.373  27.345  0.00  0.00     0.030 H 
ENDBRANCH  13  29
ENDBRANCH  10  13
ENDBRANCH   7   9
BRANCH   7  33
ATOM     33  C11 non d ame     -30.761   9.762  22.563  0.00  0.00    -0.033 C 
ATOM     34  H12 non d ame     -30.681  10.401  21.684  0.00  0.00     0.042 H 
BRANCH  33  35
ATOM     35  C12 non d ame     -29.411   8.992  22.707  0.00  0.00    -0.071 C 
ATOM     36  H13 non d ame     -28.590   9.707  22.771  0.00  0.00     0.028 H 
ATOM     37  H14 non d ame     -29.434   8.384  23.611  0.00  0.00     0.028 H 
ATOM     38  H15 non d ame     -29.265   8.349  21.840  0.00  0.00     0.028 H 
ENDBRANCH  33  35
BRANCH  33  39
ATOM     39  C13 non d ame     -31.953   8.778  22.338  0.00  0.00    -0.071 C 
ATOM     40  H16 non d ame     -32.158   8.693  21.271  0.00  0.00     0.028 H 
ATOM     41  H17 non d ame     -31.696   7.796  22.738  0.00  0.00     0.028 H 
ATOM     42  H18 non d ame     -32.838   9.156  22.849  0.00  0.00     0.028 H 
ENDBRANCH  33  39
ENDBRANCH   7  33
ENDBRANCH   4   7
ENDBRANCH   1   3
BRANCH   1  43
ATOM     43  C15 non d ame     -31.441  15.553  25.000  0.00  0.00     0.240 C 
ATOM     44  O5  non d ame     -31.561  16.714  24.778  0.00  0.00    -0.271 OA
ATOM     45  N6  non d ame     -31.873  15.001  26.315  0.00  0.00    -0.355 N 
ATOM     46  H46 non d ame     -31.780  14.015  26.514  0.00  0.00     0.162 HD
BRANCH  45  47
ATOM     47  C20 non d ame     -32.439  15.906  27.339  0.00  0.00     0.013 C 
ATOM     48  H30 non d ame     -31.966  16.881  27.222  0.00  0.00     0.072 H 
BRANCH  47  49
ATOM     49  C21 non d ame     -32.146  15.351  28.715  0.00  0.00    -0.038 C 
ATOM     50  H31 non d ame     -31.065  15.217  28.754  0.00  0.00     0.036 H 
ATOM     51  H32 non d ame     -32.638  16.026  29.415  0.00  0.00     0.036 H 
BRANCH  49  52
ATOM     52  C22 non d ame     -32.769  13.956  28.943  0.00  0.00     0.018 C 
ATOM     53  H33 non d ame     -33.392  14.053  29.831  0.00  0.00     0.048 H 
ATOM     54  H34 non d ame     -33.217  13.674  27.990  0.00  0.00     0.048 H 
BRANCH  52  55
ATOM     55  C23 non d ame     -31.726  12.851  29.269  0.00  0.00     0.259 C 
ATOM     56  O7  non d ame     -30.686  12.816  28.695  0.00  0.00    -0.265 OA
BRANCH  55  57
ATOM     57  O8  non d ame     -32.034  11.871  30.253  0.00  0.00    -0.317 OA
BRANCH  57  58
ATOM     58  C29 non d ame     -32.723  10.727  29.741  0.00  0.00     0.052 C 
ATOM     59  H47 non d ame     -33.257  11.075  28.857  0.00  0.00     0.082 H 
ATOM     60  H48 non d ame     -31.970   9.945  29.650  0.00  0.00     0.082 H 
BRANCH  58  61
ATOM     61  C35 non d ame     -33.766  10.281  30.801  0.00  0.00    -0.034 A 
ATOM     62  C30 non d ame     -34.181  11.173  31.786  0.00  0.00    -0.075 A 
ATOM     63  C31 non d ame     -35.117  10.773  32.739  0.00  0.00    -0.082 A 
ATOM     64  H49 non d ame     -33.773  12.183  31.812  0.00  0.00     0.084 H 
ATOM     65  C32 non d ame     -35.637   9.476  32.706  0.00  0.00    -0.083 A 
ATOM     66  H50 non d ame     -35.442  11.474  33.509  0.00  0.00     0.083 H 
ATOM     67  C33 non d ame     -35.216   8.590  31.724  0.00  0.00    -0.082 A 
ATOM     68  H51 non d ame     -36.370   9.156  33.447  0.00  0.00     0.083 H 
ATOM     69  C34 non d ame     -34.282   8.985  30.768  0.00  0.00    -0.075 A 
ATOM     70  H52 non d ame     -35.622   7.577  31.702  0.00  0.00     0.083 H 
ATOM     71  H53 non d ame     -33.958   8.284  29.999  0.00  0.00     0.084 H 
ENDBRANCH  58  61
ENDBRANCH  57  58
ENDBRANCH  55  57
ENDBRANCH  52  55
ENDBRANCH  49  52
ENDBRANCH  47  49
BRANCH  47  72
ATOM     72  C24 non d ame     -33.950  16.022  27.146  0.00  0.00    -0.039 C 
ATOM     73  H35 non d ame     -34.115  15.898  26.075  0.00  0.00     0.036 H 
ATOM     74  H36 non d ame     -34.388  15.315  27.850  0.00  0.00     0.036 H 
BRANCH  72  75
ATOM     75  C25 non d ame     -34.488  17.478  27.542  0.00  0.00    -0.001 C 
ATOM     76  C26 non d ame     -35.928  17.349  28.323  0.00  0.00    -0.035 C 
ATOM     77  C27 non d ame     -36.824  18.173  27.728  0.00  0.00     0.085 C 
ATOM     78  H38 non d ame     -36.351  16.357  28.167  0.00  0.00     0.036 H 
ATOM     79  H39 non d ame     -35.844  17.752  29.333  0.00  0.00     0.036 H 
ATOM     80  N5  non d ame     -36.219  18.605  26.413  0.00  0.00    -0.049 N 
ATOM     81  H40 non d ame     -37.701  17.556  27.532  0.00  0.00     0.075 H 
ATOM     82  H41 non d ame     -36.903  19.039  28.384  0.00  0.00     0.075 H 
ATOM     83  C28 non d ame     -34.655  18.215  26.494  0.00  0.00     0.193 C 
ATOM     84  H42 non d ame     -36.655  18.039  25.699  0.00  0.00     0.280 HD
ATOM     85  H43 non d ame     -36.299  19.611  26.380  0.00  0.00     0.280 HD
ATOM     86  H44 non d ame     -33.902  18.984  26.671  0.00  0.00     0.129 H 
ATOM     87  H37 non d ame     -33.719  18.087  28.016  0.00  0.00     0.046 H 
BRANCH  83  88
ATOM     88  O6  non d ame     -34.250  17.550  25.297  0.00  0.00    -0.369 OA
ATOM     89  H45 non d ame     -34.877  17.742  24.596  0.00  0.00     0.212 HD
ENDBRANCH  83  88
ENDBRANCH  72  75
ENDBRANCH  47  72
ENDBRANCH  45  47
ENDBRANCH   1  43
BRANCH   1  90
ATOM     90  C16 non d ame     -31.408  14.988  22.550  0.00  0.00    -0.035 C 
ATOM     91  H21 non d ame     -31.611  14.041  22.052  0.00  0.00     0.037 H 
ATOM     92  H22 non d ame     -32.223  15.683  22.756  0.00  0.00     0.037 H 
BRANCH  90  93
ATOM     93  C17 non d ame     -30.394  15.754  21.641  0.00  0.00    -0.059 C 
ATOM     94  H23 non d ame     -30.595  16.820  21.747  0.00  0.00     0.038 H 
BRANCH  93  95
ATOM     95  C18 non d ame     -28.913  15.505  22.070  0.00  0.00    -0.073 C 
ATOM     96  H24 non d ame     -28.284  15.434  21.183  0.00  0.00     0.028 H 
ATOM     97  H25 non d ame     -28.570  16.332  22.691  0.00  0.00     0.028 H 
ATOM     98  H26 non d ame     -28.850  14.575  22.635  0.00  0.00     0.028 H 
ENDBRANCH  93  95
BRANCH  93  99
ATOM     99  C19 non d ame     -30.601  15.396  20.167  0.00  0.00    -0.073 C 
ATOM    100  H27 non d ame     -30.054  14.482  19.935  0.00  0.00     0.028 H 
ATOM    101  H28 non d ame     -31.663  15.241  19.976  0.00  0.00     0.028 H 
ATOM    102  H29 non d ame     -30.234  16.209  19.541  0.00  0.00     0.028 H 
ENDBRANCH  93  99
ENDBRANCH  90  93
ENDBRANCH   1  90
TORSDOF 26
ENDMDL
MODEL 3
REMARK VINA RESULT:      -6.6      3.400      8.260
REMARK  26 active torsions:
REMARK  status: ('A' for Active; 'I' for Inactive)
REMARK    1  A    between atoms: C2_2  and  C3_3 
REMARK    2  A    between atoms: C4_6  and  C5_7 
REMARK       I    between atoms: C5_7  and  N2_9 
REMARK    3  A    between atoms: N2_9  and  C6_10 
REMARK    4  A    between atoms: C6_10  and  C7_11 
REMARK    5  A    between atoms: C6_10  and  C8_13 
REMARK       I    between atoms: C7_11  and  N3_14 
REMARK    6  A    between atoms: N3_14  and  C9_15 
REMARK    7  A    between atoms: C9_15  and  C10_16 
REMARK    8  A    between atoms: C9_15  and  C11_18 
REMARK       I    between atoms: C10_16  and  N4_21 
REMARK    9  A    between atoms: C11_18  and  C12_19 
REMARK   10  A    between atoms: C11_18  and  C13_20 
REMARK   11  A    between atoms: N4_21  and  C14_22 
REMARK   12  A    between atoms: C14_22  and  C15_23 
REMARK   13  A    between atoms: C14_22  and  C16_25 
REMARK       I    between atoms: C15_23  and  N6_40 
REMARK   14  A    between atoms: C16_25  and  C17_26 
REMARK   15  A    between atoms: C17_26  and  C18_27 
REMARK   16  A    between atoms: C17_26  and  C19_28 
REMARK   17  A    between atoms: C20_29  and  C21_30 
REMARK   18  A    between atoms: C20_29  and  C24_33 
REMARK   19  A    between atoms: C20_29  and  N6_40 
REMARK   20  A    between atoms: C21_30  and  C22_31 
REMARK   21  A    between atoms: C22_31  and  C23_32 
REMARK   22  A    between atoms: C23_32  and  O8_43 
REMARK   23  A    between atoms: C24_33  and  C25_34 
REMARK   24  A    between atoms: C28_38  and  O6_39 
REMARK   25  A    between atoms: C29_42  and  O8_43 
REMARK   26  A    between atoms: C29_42  and  C35_49 
ROOT
ATOM      1  C14 non d ame     -36.411  15.670  26.285  0.00  0.00     0.089 C 
ATOM      2  H20 non d ame     -37.129  16.154  26.947  0.00  0.00     0.087 H 
ENDROOT
BRANCH   1   3
ATOM      3  N4  non d ame     -35.086  15.875  26.849  0.00  0.00    -0.346 N 
ATOM      4  C10 non d ame     -34.781  17.117  27.647  0.00  0.00     0.241 C 
ATOM      5  O4  non d ame     -35.619  17.940  27.821  0.00  0.00    -0.271 OA
ATOM      6  H19 non d ame     -34.386  15.164  26.688  0.00  0.00     0.163 HD
BRANCH   4   7
ATOM      7  C9  non d ame     -33.405  17.311  28.228  0.00  0.00     0.092 C 
ATOM      8  H11 non d ame     -33.492  17.775  29.210  0.00  0.00     0.088 H 
BRANCH   7   9
ATOM      9  N3  non d ame     -32.767  16.005  28.422  0.00  0.00    -0.346 N 
ATOM     10  C7  non d ame     -31.836  15.811  29.505  0.00  0.00     0.240 C 
ATOM     11  O3  non d ame     -31.587  16.696  30.231  0.00  0.00    -0.271 OA
ATOM     12  H10 non d ame     -32.971  15.233  27.802  0.00  0.00     0.163 HD
BRANCH  10  13
ATOM     13  C6  non d ame     -31.158  14.420  29.704  0.00  0.00     0.086 C 
ATOM     14  H6  non d ame     -30.530  14.381  30.594  0.00  0.00     0.086 H 
BRANCH  13  15
ATOM     15  N2  non d ame     -32.190  13.413  29.879  0.00  0.00    -0.343 N 
ATOM     16  C5  non d ame     -31.879  12.179  30.602  0.00  0.00     0.273 C 
ATOM     17  O2  non d ame     -30.794  12.004  31.038  0.00  0.00    -0.266 OA
ATOM     18  H5  non d ame     -33.114  13.569  29.501  0.00  0.00     0.163 HD
BRANCH  16  19
ATOM     19  C4  non d ame     -32.962  11.105  30.795  0.00  0.00     0.154 A 
ATOM     20  C1  non d ame     -34.040  11.123  31.735  0.00  0.00    -0.017 A 
ATOM     21  C2  non d ame     -34.741   9.918  31.508  0.00  0.00     0.077 A 
ATOM     22  H1  non d ame     -34.278  11.893  32.469  0.00  0.00     0.091 H 
ATOM     23  O1  non d ame     -34.130   9.289  30.547  0.00  0.00    -0.218 OA
ATOM     24  N1  non d ame     -33.088   9.962  30.115  0.00  0.00    -0.123 NA
BRANCH  21  25
ATOM     25  C3  non d ame     -35.983   9.443  32.249  0.00  0.00    -0.029 C 
ATOM     26  H2  non d ame     -36.512  10.303  32.660  0.00  0.00     0.036 H 
ATOM     27  H3  non d ame     -36.639   8.913  31.558  0.00  0.00     0.036 H 
ATOM     28  H4  non d ame     -35.691   8.775  33.059  0.00  0.00     0.036 H 
ENDBRANCH  21  25
ENDBRANCH  16  19
ENDBRANCH  13  15
BRANCH  13  29
ATOM     29  C8  non d ame     -30.314  14.093  28.499  0.00  0.00    -0.049 C 
ATOM     30  H7  non d ame     -30.858  13.408  27.849  0.00  0.00     0.030 H 
ATOM     31  H8  non d ame     -30.088  15.008  27.953  0.00  0.00     0.030 H 
ATOM     32  H9  non d ame     -29.384  13.624  28.823  0.00  0.00     0.030 H 
ENDBRANCH  13  29
ENDBRANCH  10  13
ENDBRANCH   7   9
BRANCH   7  33
ATOM     33  C11 non d ame     -32.545  18.165  27.250  0.00  0.00    -0.033 C 
ATOM     34  H12 non d ame     -31.513  17.827  27.339  0.00  0.00     0.042 H 
BRANCH  33  35
ATOM     35  C12 non d ame     -32.985  17.945  25.769  0.00  0.00    -0.071 C 
ATOM     36  H13 non d ame     -32.858  16.895  25.504  0.00  0.00     0.028 H 
ATOM     37  H14 non d ame     -34.032  18.225  25.655  0.00  0.00     0.028 H 
ATOM     38  H15 non d ame     -32.370  18.561  25.112  0.00  0.00     0.028 H 
ENDBRANCH  33  35
BRANCH  33  39
ATOM     39  C13 non d ame     -32.594  19.677  27.638  0.00  0.00    -0.071 C 
ATOM     40  H16 non d ame     -33.364  20.178  27.051  0.00  0.00     0.028 H 
ATOM     41  H17 non d ame     -32.823  19.774  28.699  0.00  0.00     0.028 H 
ATOM     42  H18 non d ame     -31.626  20.136  27.434  0.00  0.00     0.028 H 
ENDBRANCH  33  39
ENDBRANCH   7  33
ENDBRANCH   4   7
ENDBRANCH   1   3
BRANCH   1  43
ATOM     43  C15 non d ame     -36.666  14.140  26.162  0.00  0.00     0.240 C 
ATOM     44  O5  non d ame     -37.319  13.720  25.263  0.00  0.00    -0.271 OA
ATOM     45  N6  non d ame     -36.087  13.197  27.161  0.00  0.00    -0.355 N 
ATOM     46  H46 non d ame     -35.526  13.542  27.927  0.00  0.00     0.162 HD
BRANCH  45  47
ATOM     47  C20 non d ame     -36.338  11.745  27.029  0.00  0.00     0.013 C 
ATOM     48  H30 non d ame     -36.406  11.513  25.967  0.00  0.00     0.072 H 
BRANCH  47  49
ATOM     49  C21 non d ame     -37.637  11.398  27.720  0.00  0.00    -0.038 C 
ATOM     50  H31 non d ame     -38.006  12.333  28.142  0.00  0.00     0.036 H 
ATOM     51  H32 non d ame     -38.231  10.863  26.978  0.00  0.00     0.036 H 
BRANCH  49  52
ATOM     52  C22 non d ame     -37.445  10.428  28.906  0.00  0.00     0.018 C 
ATOM     53  H33 non d ame     -36.373  10.245  28.966  0.00  0.00     0.048 H 
ATOM     54  H34 non d ame     -37.969  10.884  29.747  0.00  0.00     0.048 H 
BRANCH  52  55
ATOM     55  C23 non d ame     -38.106   9.038  28.692  0.00  0.00     0.259 C 
ATOM     56  O7  non d ame     -38.843   8.856  27.777  0.00  0.00    -0.265 OA
BRANCH  55  57
ATOM     57  O8  non d ame     -37.832   7.987  29.611  0.00  0.00    -0.317 OA
BRANCH  57  58
ATOM     58  C29 non d ame     -37.588   6.721  28.992  0.00  0.00     0.052 C 
ATOM     59  H47 non d ame     -38.454   6.104  29.231  0.00  0.00     0.082 H 
ATOM     60  H48 non d ame     -37.346   6.942  27.953  0.00  0.00     0.082 H 
BRANCH  58  61
ATOM     61  C35 non d ame     -36.338   6.093  29.664  0.00  0.00    -0.034 A 
ATOM     62  C30 non d ame     -36.229   6.075  31.051  0.00  0.00    -0.075 A 
ATOM     63  C31 non d ame     -35.105   5.511  31.655  0.00  0.00    -0.082 A 
ATOM     64  H49 non d ame     -37.021   6.502  31.665  0.00  0.00     0.084 H 
ATOM     65  C32 non d ame     -34.088   4.966  30.866  0.00  0.00    -0.083 A 
ATOM     66  H50 non d ame     -35.023   5.497  32.743  0.00  0.00     0.083 H 
ATOM     67  C33 non d ame     -34.200   4.991  29.483  0.00  0.00    -0.082 A 
ATOM     68  H51 non d ame     -33.207   4.523  31.331  0.00  0.00     0.083 H 
ATOM     69  C34 non d ame     -35.322   5.551  28.875  0.00  0.00    -0.075 A 
ATOM     70  H52 non d ame     -33.404   4.567  28.870  0.00  0.00     0.083 H 
ATOM     71  H53 non d ame     -35.404   5.565  27.788  0.00  0.00     0.084 H 
ENDBRANCH  58  61
ENDBRANCH  57  58
ENDBRANCH  55  57
ENDBRANCH  52  55
ENDBRANCH  49  52
ENDBRANCH  47  49
BRANCH  47  72
ATOM     72  C24 non d ame     -35.193  10.964  27.671  0.00  0.00    -0.039 C 
ATOM     73  H35 non d ame     -34.542  11.717  28.116  0.00  0.00     0.036 H 
ATOM     74  H36 non d ame     -35.672  10.215  28.303  0.00  0.00     0.036 H 
BRANCH  72  75
ATOM     75  C25 non d ame     -34.327  10.176  26.578  0.00  0.00    -0.001 C 
ATOM     76  C26 non d ame     -34.222   8.587  26.987  0.00  0.00    -0.035 C 
ATOM     77  C27 non d ame     -32.919   8.216  26.965  0.00  0.00     0.085 C 
ATOM     78  H38 non d ame     -34.508   8.449  28.030  0.00  0.00     0.036 H 
ATOM     79  H39 non d ame     -34.676   7.970  26.212  0.00  0.00     0.036 H 
ATOM     80  N5  non d ame     -32.100   9.483  26.898  0.00  0.00    -0.049 N 
ATOM     81  H40 non d ame     -32.739   7.726  27.922  0.00  0.00     0.075 H 
ATOM     82  H41 non d ame     -32.790   7.661  26.036  0.00  0.00     0.075 H 
ATOM     83  C28 non d ame     -33.132  10.657  26.494  0.00  0.00     0.193 C 
ATOM     84  H42 non d ame     -31.766   9.657  27.835  0.00  0.00     0.280 HD
ATOM     85  H43 non d ame     -31.442   9.358  26.142  0.00  0.00     0.280 HD
ATOM     86  H44 non d ame     -33.149  11.053  25.478  0.00  0.00     0.129 H 
ATOM     87  H37 non d ame     -34.639  10.406  25.560  0.00  0.00     0.046 H 
BRANCH  83  88
ATOM     88  O6  non d ame     -32.946  11.791  27.344  0.00  0.00    -0.369 OA
ATOM     89  H45 non d ame     -33.768  12.284  27.405  0.00  0.00     0.212 HD
ENDBRANCH  83  88
ENDBRANCH  72  75
ENDBRANCH  47  72
ENDBRANCH  45  47
ENDBRANCH   1  43
BRANCH   1  90
ATOM     90  C16 non d ame     -36.469  16.310  24.907  0.00  0.00    -0.035 C 
ATOM     91  H21 non d ame     -35.498  16.780  24.766  0.00  0.00     0.037 H 
ATOM     92  H22 non d ame     -36.794  15.516  24.234  0.00  0.00     0.037 H 
BRANCH  90  93
ATOM     93  C17 non d ame     -37.531  17.449  24.790  0.00  0.00    -0.059 C 
ATOM     94  H23 non d ame     -38.066  17.308  23.851  0.00  0.00     0.038 H 
BRANCH  93  95
ATOM     95  C18 non d ame     -38.580  17.399  25.947  0.00  0.00    -0.073 C 
ATOM     96  H24 non d ame     -39.479  17.936  25.647  0.00  0.00     0.028 H 
ATOM     97  H25 non d ame     -38.833  16.361  26.163  0.00  0.00     0.028 H 
ATOM     98  H26 non d ame     -38.160  17.864  26.839  0.00  0.00     0.028 H 
ENDBRANCH  93  95
BRANCH  93  99
ATOM     99  C19 non d ame     -36.856  18.822  24.728  0.00  0.00    -0.073 C 
ATOM    100  H27 non d ame     -35.780  18.692  24.600  0.00  0.00     0.028 H 
ATOM    101  H28 non d ame     -37.255  19.386  23.885  0.00  0.00     0.028 H 
ATOM    102  H29 non d ame     -37.049  19.365  25.652  0.00  0.00     0.028 H 
ENDBRANCH  93  99
ENDBRANCH  90  93
ENDBRANCH   1  90
TORSDOF 26
ENDMDL
MODEL 4
REMARK VINA RESULT:      -6.6      2.196      9.292
REMARK  26 active torsions:
REMARK  status: ('A' for Active; 'I' for Inactive)
REMARK    1  A    between atoms: C2_2  and  C3_3 
REMARK    2  A    between atoms: C4_6  and  C5_7 
REMARK       I    between atoms: C5_7  and  N2_9 
REMARK    3  A    between atoms: N2_9  and  C6_10 
REMARK    4  A    between atoms: C6_10  and  C7_11 
REMARK    5  A    between atoms: C6_10  and  C8_13 
REMARK       I    between atoms: C7_11  and  N3_14 
REMARK    6  A    between atoms: N3_14  and  C9_15 
REMARK    7  A    between atoms: C9_15  and  C10_16 
REMARK    8  A    between atoms: C9_15  and  C11_18 
REMARK       I    between atoms: C10_16  and  N4_21 
REMARK    9  A    between atoms: C11_18  and  C12_19 
REMARK   10  A    between atoms: C11_18  and  C13_20 
REMARK   11  A    between atoms: N4_21  and  C14_22 
REMARK   12  A    between atoms: C14_22  and  C15_23 
REMARK   13  A    between atoms: C14_22  and  C16_25 
REMARK       I    between atoms: C15_23  and  N6_40 
REMARK   14  A    between atoms: C16_25  and  C17_26 
REMARK   15  A    between atoms: C17_26  and  C18_27 
REMARK   16  A    between atoms: C17_26  and  C19_28 
REMARK   17  A    between atoms: C20_29  and  C21_30 
REMARK   18  A    between atoms: C20_29  and  C24_33 
REMARK   19  A    between atoms: C20_29  and  N6_40 
REMARK   20  A    between atoms: C21_30  and  C22_31 
REMARK   21  A    between atoms: C22_31  and  C23_32 
REMARK   22  A    between atoms: C23_32  and  O8_43 
REMARK   23  A    between atoms: C24_33  and  C25_34 
REMARK   24  A    between atoms: C28_38  and  O6_39 
REMARK   25  A    between atoms: C29_42  and  O8_43 
REMARK   26  A    between atoms: C29_42  and  C35_49 
ROOT
ATOM      1  C14 non d ame     -35.085   8.263  30.891  0.00  0.00     0.089 C 
ATOM      2  H20 non d ame     -34.890   8.530  31.930  0.00  0.00     0.087 H 
ENDROOT
BRANCH   1   3
ATOM      3  N4  non d ame     -34.221   9.085  30.058  0.00  0.00    -0.346 N 
ATOM      4  C10 non d ame     -33.596  10.339  30.613  0.00  0.00     0.241 C 
ATOM      5  O4  non d ame     -33.804  10.669  31.734  0.00  0.00    -0.271 OA
ATOM      6  H19 non d ame     -34.058   8.789  29.106  0.00  0.00     0.163 HD
BRANCH   4   7
ATOM      7  C9  non d ame     -32.700  11.176  29.737  0.00  0.00     0.092 C 
ATOM      8  H11 non d ame     -32.013  10.523  29.199  0.00  0.00     0.088 H 
BRANCH   7   9
ATOM      9  N3  non d ame     -33.509  11.874  28.734  0.00  0.00    -0.346 N 
ATOM     10  C7  non d ame     -33.647  11.324  27.409  0.00  0.00     0.240 C 
ATOM     11  O3  non d ame     -33.112  10.320  27.131  0.00  0.00    -0.271 OA
ATOM     12  H10 non d ame     -33.975  12.742  28.959  0.00  0.00     0.163 HD
BRANCH  10  13
ATOM     13  C6  non d ame     -34.507  12.073  26.345  0.00  0.00     0.086 C 
ATOM     14  H6  non d ame     -35.122  12.861  26.779  0.00  0.00     0.086 H 
BRANCH  13  15
ATOM     15  N2  non d ame     -33.621  12.716  25.389  0.00  0.00    -0.343 N 
ATOM     16  C5  non d ame     -32.968  13.978  25.745  0.00  0.00     0.273 C 
ATOM     17  O2  non d ame     -33.165  14.469  26.802  0.00  0.00    -0.266 OA
ATOM     18  H5  non d ame     -33.461  12.291  24.487  0.00  0.00     0.163 HD
BRANCH  16  19
ATOM     19  C4  non d ame     -32.028  14.668  24.744  0.00  0.00     0.154 A 
ATOM     20  C1  non d ame     -30.727  14.233  24.338  0.00  0.00    -0.017 A 
ATOM     21  C2  non d ame     -30.291  15.207  23.413  0.00  0.00     0.077 A 
ATOM     22  H1  non d ame     -30.184  13.346  24.664  0.00  0.00     0.091 H 
ATOM     23  O1  non d ame     -31.237  16.092  23.307  0.00  0.00    -0.218 OA
ATOM     24  N1  non d ame     -32.262  15.799  24.074  0.00  0.00    -0.123 NA
BRANCH  21  25
ATOM     25  C3  non d ame     -28.959  15.217  22.676  0.00  0.00    -0.029 C 
ATOM     26  H2  non d ame     -28.299  15.959  23.126  0.00  0.00     0.036 H 
ATOM     27  H3  non d ame     -28.496  14.232  22.747  0.00  0.00     0.036 H 
ATOM     28  H4  non d ame     -29.124  15.466  21.628  0.00  0.00     0.036 H 
ENDBRANCH  21  25
ENDBRANCH  16  19
ENDBRANCH  13  15
BRANCH  13  29
ATOM     29  C8  non d ame     -35.404  11.090  25.637  0.00  0.00    -0.049 C 
ATOM     30  H7  non d ame     -34.983  10.850  24.662  0.00  0.00     0.030 H 
ATOM     31  H8  non d ame     -35.486  10.180  26.231  0.00  0.00     0.030 H 
ATOM     32  H9  non d ame     -36.394  11.530  25.508  0.00  0.00     0.030 H 
ENDBRANCH  13  29
ENDBRANCH  10  13
ENDBRANCH   7   9
BRANCH   7  33
ATOM     33  C11 non d ame     -31.949  12.222  30.614  0.00  0.00    -0.033 C 
ATOM     34  H12 non d ame     -32.488  12.308  31.557  0.00  0.00     0.042 H 
BRANCH  33  35
ATOM     35  C12 non d ame     -30.499  11.750  30.944  0.00  0.00    -0.071 C 
ATOM     36  H13 non d ame     -30.540  10.830  31.528  0.00  0.00     0.028 H 
ATOM     37  H14 non d ame     -29.956  11.568  30.017  0.00  0.00     0.028 H 
ATOM     38  H15 non d ame     -29.988  12.521  31.520  0.00  0.00     0.028 H 
ENDBRANCH  33  35
BRANCH  33  39
ATOM     39  C13 non d ame     -31.946  13.626  29.929  0.00  0.00    -0.071 C 
ATOM     40  H16 non d ame     -32.063  13.505  28.852  0.00  0.00     0.028 H 
ATOM     41  H17 non d ame     -32.770  14.223  30.320  0.00  0.00     0.028 H 
ATOM     42  H18 non d ame     -31.003  14.130  30.138  0.00  0.00     0.028 H 
ENDBRANCH  33  39
ENDBRANCH   7  33
ENDBRANCH   4   7
ENDBRANCH   1   3
BRANCH   1  43
ATOM     43  C15 non d ame     -34.775   6.766  30.602  0.00  0.00     0.240 C 
ATOM     44  O5  non d ame     -34.851   5.967  31.478  0.00  0.00    -0.271 OA
ATOM     45  N6  non d ame     -34.392   6.327  29.230  0.00  0.00    -0.355 N 
ATOM     46  H46 non d ame     -34.329   6.997  28.476  0.00  0.00     0.162 HD
BRANCH  45  47
ATOM     47  C20 non d ame     -34.101   4.901  28.971  0.00  0.00     0.013 C 
ATOM     48  H30 non d ame     -34.141   4.373  29.924  0.00  0.00     0.072 H 
BRANCH  47  49
ATOM     49  C21 non d ame     -32.722   4.773  28.365  0.00  0.00    -0.038 C 
ATOM     50  H31 non d ame     -32.150   5.616  28.756  0.00  0.00     0.036 H 
ATOM     51  H32 non d ame     -32.402   3.753  28.575  0.00  0.00     0.036 H 
BRANCH  49  52
ATOM     52  C22 non d ame     -32.726   4.923  26.828  0.00  0.00     0.018 C 
ATOM     53  H33 non d ame     -32.050   4.155  26.455  0.00  0.00     0.048 H 
ATOM     54  H34 non d ame     -33.776   4.914  26.534  0.00  0.00     0.048 H 
BRANCH  52  55
ATOM     55  C23 non d ame     -32.153   6.278  26.329  0.00  0.00     0.259 C 
ATOM     56  O7  non d ame     -32.149   7.230  27.042  0.00  0.00    -0.265 OA
BRANCH  55  57
ATOM     57  O8  non d ame     -31.644   6.374  25.004  0.00  0.00    -0.317 OA
BRANCH  57  58
ATOM     58  C29 non d ame     -32.468   7.137  24.117  0.00  0.00     0.052 C 
ATOM     59  H47 non d ame     -32.683   6.479  23.275  0.00  0.00     0.082 H 
ATOM     60  H48 non d ame     -33.282   7.523  24.729  0.00  0.00     0.082 H 
BRANCH  58  61
ATOM     61  C35 non d ame     -31.631   8.338  23.602  0.00  0.00    -0.034 A 
ATOM     62  C30 non d ame     -31.916   9.626  24.045  0.00  0.00    -0.075 A 
ATOM     63  C31 non d ame     -31.165  10.706  23.582  0.00  0.00    -0.082 A 
ATOM     64  H49 non d ame     -32.728   9.790  24.754  0.00  0.00     0.084 H 
ATOM     65  C32 non d ame     -30.127  10.494  22.671  0.00  0.00    -0.083 A 
ATOM     66  H50 non d ame     -31.390  11.714  23.933  0.00  0.00     0.083 H 
ATOM     67  C33 non d ame     -29.850   9.208  22.229  0.00  0.00    -0.082 A 
ATOM     68  H51 non d ame     -29.534  11.333  22.304  0.00  0.00     0.083 H 
ATOM     69  C34 non d ame     -30.596   8.126  22.690  0.00  0.00    -0.075 A 
ATOM     70  H52 non d ame     -29.040   9.046  21.515  0.00  0.00     0.083 H 
ATOM     71  H53 non d ame     -30.371   7.118  22.340  0.00  0.00     0.084 H 
ENDBRANCH  58  61
ENDBRANCH  57  58
ENDBRANCH  55  57
ENDBRANCH  52  55
ENDBRANCH  49  52
ENDBRANCH  47  49
BRANCH  47  72
ATOM     72  C24 non d ame     -35.138   4.329  28.006  0.00  0.00    -0.039 C 
ATOM     73  H35 non d ame     -34.617   4.220  27.054  0.00  0.00     0.036 H 
ATOM     74  H36 non d ame     -35.548   3.452  28.506  0.00  0.00     0.036 H 
BRANCH  72  75
ATOM     75  C25 non d ame     -36.351   5.348  27.767  0.00  0.00    -0.001 C 
ATOM     76  C26 non d ame     -37.584   5.000  28.798  0.00  0.00    -0.035 C 
ATOM     77  C27 non d ame     -38.731   4.887  28.085  0.00  0.00     0.085 C 
ATOM     78  H38 non d ame     -37.449   4.006  29.222  0.00  0.00     0.036 H 
ATOM     79  H39 non d ame     -37.775   5.851  29.454  0.00  0.00     0.036 H 
ATOM     80  N5  non d ame     -38.338   4.801  26.629  0.00  0.00    -0.049 N 
ATOM     81  H40 non d ame     -39.171   3.939  28.391  0.00  0.00     0.075 H 
ATOM     82  H41 non d ame     -39.270   5.818  28.253  0.00  0.00     0.075 H 
ATOM     83  C28 non d ame     -36.795   5.270  26.557  0.00  0.00     0.193 C 
ATOM     84  H42 non d ame     -38.389   3.825  26.377  0.00  0.00     0.280 HD
ATOM     85  H43 non d ame     -38.904   5.481  26.141  0.00  0.00     0.280 HD
ATOM     86  H44 non d ame     -36.535   6.263  26.187  0.00  0.00     0.129 H 
ATOM     87  H37 non d ame     -36.017   6.384  27.725  0.00  0.00     0.046 H 
BRANCH  83  88
ATOM     88  O6  non d ame     -36.038   4.356  25.763  0.00  0.00    -0.369 OA
ATOM     89  H45 non d ame     -35.661   4.820  25.011  0.00  0.00     0.212 HD
ENDBRANCH  83  88
ENDBRANCH  72  75
ENDBRANCH  47  72
ENDBRANCH  45  47
ENDBRANCH   1  43
BRANCH   1  90
ATOM     90  C16 non d ame     -36.536   8.560  30.548  0.00  0.00    -0.035 C 
ATOM     91  H21 non d ame     -36.964   7.603  30.253  0.00  0.00     0.037 H 
ATOM     92  H22 non d ame     -36.934   9.093  31.411  0.00  0.00     0.037 H 
BRANCH  90  93
ATOM     93  C17 non d ame     -36.706   9.514  29.323  0.00  0.00    -0.059 C 
ATOM     94  H23 non d ame     -35.734   9.960  29.114  0.00  0.00     0.038 H 
BRANCH  93  95
ATOM     95  C18 non d ame     -37.165   8.751  28.040  0.00  0.00    -0.073 C 
ATOM     96  H24 non d ame     -36.537   9.043  27.198  0.00  0.00     0.028 H 
ATOM     97  H25 non d ame     -37.073   7.677  28.203  0.00  0.00     0.028 H 
ATOM     98  H26 non d ame     -38.204   8.998  27.821  0.00  0.00     0.028 H 
ENDBRANCH  93  95
BRANCH  93  99
ATOM     99  C19 non d ame     -37.671  10.657  29.650  0.00  0.00    -0.073 C 
ATOM    100  H27 non d ame     -37.313  11.578  29.189  0.00  0.00     0.028 H 
ATOM    101  H28 non d ame     -38.662  10.420  29.262  0.00  0.00     0.028 H 
ATOM    102  H29 non d ame     -37.726  10.789  30.730  0.00  0.00     0.028 H 
ENDBRANCH  93  99
ENDBRANCH  90  93
ENDBRANCH   1  90
TORSDOF 26
ENDMDL
MODEL 5
REMARK VINA RESULT:      -6.6      2.060      8.515
REMARK  26 active torsions:
REMARK  status: ('A' for Active; 'I' for Inactive)
REMARK    1  A    between atoms: C2_2  and  C3_3 
REMARK    2  A    between atoms: C4_6  and  C5_7 
REMARK       I    between atoms: C5_7  and  N2_9 
REMARK    3  A    between atoms: N2_9  and  C6_10 
REMARK    4  A    between atoms: C6_10  and  C7_11 
REMARK    5  A    between atoms: C6_10  and  C8_13 
REMARK       I    between atoms: C7_11  and  N3_14 
REMARK    6  A    between atoms: N3_14  and  C9_15 
REMARK    7  A    between atoms: C9_15  and  C10_16 
REMARK    8  A    between atoms: C9_15  and  C11_18 
REMARK       I    between atoms: C10_16  and  N4_21 
REMARK    9  A    between atoms: C11_18  and  C12_19 
REMARK   10  A    between atoms: C11_18  and  C13_20 
REMARK   11  A    between atoms: N4_21  and  C14_22 
REMARK   12  A    between atoms: C14_22  and  C15_23 
REMARK   13  A    between atoms: C14_22  and  C16_25 
REMARK       I    between atoms: C15_23  and  N6_40 
REMARK   14  A    between atoms: C16_25  and  C17_26 
REMARK   15  A    between atoms: C17_26  and  C18_27 
REMARK   16  A    between atoms: C17_26  and  C19_28 
REMARK   17  A    between atoms: C20_29  and  C21_30 
REMARK   18  A    between atoms: C20_29  and  C24_33 
REMARK   19  A    between atoms: C20_29  and  N6_40 
REMARK   20  A    between atoms: C21_30  and  C22_31 
REMARK   21  A    between atoms: C22_31  and  C23_32 
REMARK   22  A    between atoms: C23_32  and  O8_43 
REMARK   23  A    between atoms: C24_33  and  C25_34 
REMARK   24  A    between atoms: C28_38  and  O6_39 
REMARK   25  A    between atoms: C29_42  and  O8_43 
REMARK   26  A    between atoms: C29_42  and  C35_49 
ROOT
ATOM      1  C14 non d ame     -35.764   9.345  26.437  0.00  0.00     0.089 C 
ATOM      2  H20 non d ame     -36.010   8.553  27.144  0.00  0.00     0.087 H 
ENDROOT
BRANCH   1   3
ATOM      3  N4  non d ame     -34.786  10.214  27.075  0.00  0.00    -0.346 N 
ATOM      4  C10 non d ame     -33.690   9.629  27.929  0.00  0.00     0.241 C 
ATOM      5  O4  non d ame     -33.615   8.456  28.091  0.00  0.00    -0.271 OA
ATOM      6  H19 non d ame     -34.868  11.210  26.928  0.00  0.00     0.163 HD
BRANCH   4   7
ATOM      7  C9  non d ame     -32.684  10.543  28.579  0.00  0.00     0.092 C 
ATOM      8  H11 non d ame     -31.679  10.229  28.296  0.00  0.00     0.088 H 
BRANCH   7   9
ATOM      9  N3  non d ame     -32.868  11.908  28.078  0.00  0.00    -0.346 N 
ATOM     10  C7  non d ame     -31.942  12.454  27.117  0.00  0.00     0.240 C 
ATOM     11  O3  non d ame     -31.042  11.810  26.737  0.00  0.00    -0.271 OA
ATOM     12  H10 non d ame     -33.639  12.477  28.399  0.00  0.00     0.163 HD
BRANCH  10  13
ATOM     13  C6  non d ame     -32.141  13.909  26.590  0.00  0.00     0.086 C 
ATOM     14  H6  non d ame     -31.603  14.650  27.183  0.00  0.00     0.086 H 
BRANCH  13  15
ATOM     15  N2  non d ame     -31.615  13.998  25.238  0.00  0.00    -0.343 N 
ATOM     16  C5  non d ame     -31.089  15.274  24.751  0.00  0.00     0.273 C 
ATOM     17  O2  non d ame     -31.096  16.225  25.452  0.00  0.00    -0.266 OA
ATOM     18  H5  non d ame     -31.616  13.181  24.644  0.00  0.00     0.163 HD
BRANCH  16  19
ATOM     19  C4  non d ame     -30.530  15.381  23.323  0.00  0.00     0.154 A 
ATOM     20  C1  non d ame     -31.275  15.542  22.112  0.00  0.00    -0.017 A 
ATOM     21  C2  non d ame     -30.301  15.586  21.090  0.00  0.00     0.077 A 
ATOM     22  H1  non d ame     -32.356  15.617  21.994  0.00  0.00     0.091 H 
ATOM     23  O1  non d ame     -29.137  15.464  21.657  0.00  0.00    -0.218 OA
ATOM     24  N1  non d ame     -29.245  15.343  22.961  0.00  0.00    -0.123 NA
BRANCH  21  25
ATOM     25  C3  non d ame     -30.565  15.747  19.599  0.00  0.00    -0.029 C 
ATOM     26  H2  non d ame     -29.622  15.904  19.077  0.00  0.00     0.036 H 
ATOM     27  H3  non d ame     -31.045  14.846  19.215  0.00  0.00     0.036 H 
ATOM     28  H4  non d ame     -31.218  16.604  19.435  0.00  0.00     0.036 H 
ENDBRANCH  21  25
ENDBRANCH  16  19
ENDBRANCH  13  15
BRANCH  13  29
ATOM     29  C8  non d ame     -33.609  14.253  26.598  0.00  0.00    -0.049 C 
ATOM     30  H7  non d ame     -33.897  14.640  25.622  0.00  0.00     0.030 H 
ATOM     31  H8  non d ame     -34.190  13.358  26.819  0.00  0.00     0.030 H 
ATOM     32  H9  non d ame     -33.801  15.009  27.360  0.00  0.00     0.030 H 
ENDBRANCH  13  29
ENDBRANCH  10  13
ENDBRANCH   7   9
BRANCH   7  33
ATOM     33  C11 non d ame     -32.890  10.527  30.122  0.00  0.00    -0.033 C 
ATOM     34  H12 non d ame     -32.368   9.655  30.515  0.00  0.00     0.042 H 
BRANCH  33  35
ATOM     35  C12 non d ame     -32.264  11.790  30.791  0.00  0.00    -0.071 C 
ATOM     36  H13 non d ame     -32.688  12.688  30.341  0.00  0.00     0.028 H 
ATOM     37  H14 non d ame     -32.482  11.782  31.859  0.00  0.00     0.028 H 
ATOM     38  H15 non d ame     -31.185  11.784  30.640  0.00  0.00     0.028 H 
ENDBRANCH  33  35
BRANCH  33  39
ATOM     39  C13 non d ame     -34.404  10.386  30.482  0.00  0.00    -0.071 C 
ATOM     40  H16 non d ame     -34.681   9.332  30.481  0.00  0.00     0.028 H 
ATOM     41  H17 non d ame     -34.584  10.810  31.471  0.00  0.00     0.028 H 
ATOM     42  H18 non d ame     -35.004  10.920  29.746  0.00  0.00     0.028 H 
ENDBRANCH  33  39
ENDBRANCH   7  33
ENDBRANCH   4   7
ENDBRANCH   1   3
BRANCH   1  43
ATOM     43  C15 non d ame     -35.146   8.787  25.122  0.00  0.00     0.240 C 
ATOM     44  O5  non d ame     -35.386   9.317  24.086  0.00  0.00    -0.271 OA
ATOM     45  N6  non d ame     -34.248   7.598  25.157  0.00  0.00    -0.355 N 
ATOM     46  H46 non d ame     -34.034   7.142  26.032  0.00  0.00     0.162 HD
BRANCH  45  47
ATOM     47  C20 non d ame     -33.669   7.080  23.898  0.00  0.00     0.013 C 
ATOM     48  H30 non d ame     -34.161   7.589  23.069  0.00  0.00     0.072 H 
BRANCH  47  49
ATOM     49  C21 non d ame     -33.914   5.591  23.810  0.00  0.00    -0.038 C 
ATOM     50  H31 non d ame     -34.896   5.427  24.255  0.00  0.00     0.036 H 
ATOM     51  H32 non d ame     -33.737   5.325  22.767  0.00  0.00     0.036 H 
BRANCH  49  52
ATOM     52  C22 non d ame     -32.911   4.768  24.647  0.00  0.00     0.018 C 
ATOM     53  H33 non d ame     -32.665   3.897  24.041  0.00  0.00     0.048 H 
ATOM     54  H34 non d ame     -32.128   5.468  24.940  0.00  0.00     0.048 H 
BRANCH  52  55
ATOM     55  C23 non d ame     -33.506   4.214  25.971  0.00  0.00     0.259 C 
ATOM     56  O7  non d ame     -33.542   3.043  26.173  0.00  0.00    -0.265 OA
BRANCH  55  57
ATOM     57  O8  non d ame     -34.023   5.123  26.937  0.00  0.00    -0.317 OA
BRANCH  57  58
ATOM     58  C29 non d ame     -33.640   4.823  28.282  0.00  0.00     0.052 C 
ATOM     59  H47 non d ame     -33.502   3.743  28.316  0.00  0.00     0.082 H 
ATOM     60  H48 non d ame     -32.806   5.487  28.507  0.00  0.00     0.082 H 
BRANCH  58  61
ATOM     61  C35 non d ame     -34.826   5.196  29.212  0.00  0.00    -0.034 A 
ATOM     62  C30 non d ame     -34.603   5.427  30.566  0.00  0.00    -0.075 A 
ATOM     63  C31 non d ame     -35.668   5.761  31.401  0.00  0.00    -0.082 A 
ATOM     64  H49 non d ame     -33.595   5.344  30.973  0.00  0.00     0.084 H 
ATOM     65  C32 non d ame     -36.960   5.864  30.878  0.00  0.00    -0.083 A 
ATOM     66  H50 non d ame     -35.490   5.943  32.462  0.00  0.00     0.083 H 
ATOM     67  C33 non d ame     -37.177   5.629  29.527  0.00  0.00    -0.082 A 
ATOM     68  H51 non d ame     -37.798   6.126  31.524  0.00  0.00     0.083 H 
ATOM     69  C34 non d ame     -36.116   5.296  28.688  0.00  0.00    -0.075 A 
ATOM     70  H52 non d ame     -38.187   5.708  29.122  0.00  0.00     0.083 H 
ATOM     71  H53 non d ame     -36.294   5.115  27.628  0.00  0.00     0.084 H 
ENDBRANCH  58  61
ENDBRANCH  57  58
ENDBRANCH  55  57
ENDBRANCH  52  55
ENDBRANCH  49  52
ENDBRANCH  47  49
BRANCH  47  72
ATOM     72  C24 non d ame     -32.167   7.353  23.871  0.00  0.00    -0.039 C 
ATOM     73  H35 non d ame     -31.882   7.507  24.912  0.00  0.00     0.036 H 
ATOM     74  H36 non d ame     -31.732   6.530  23.303  0.00  0.00     0.036 H 
BRANCH  72  75
ATOM     75  C25 non d ame     -31.824   8.705  23.082  0.00  0.00    -0.001 C 
ATOM     76  C26 non d ame     -30.577   8.445  22.043  0.00  0.00    -0.035 C 
ATOM     77  C27 non d ame     -29.632   9.395  22.247  0.00  0.00     0.085 C 
ATOM     78  H38 non d ame     -30.064   7.518  22.297  0.00  0.00     0.036 H 
ATOM     79  H39 non d ame     -30.900   8.625  21.017  0.00  0.00     0.036 H 
ATOM     80  N5  non d ame     -29.972  10.080  23.550  0.00  0.00    -0.049 N 
ATOM     81  H40 non d ame     -28.694   8.852  22.365  0.00  0.00     0.075 H 
ATOM     82  H41 non d ame     -29.752  10.105  21.431  0.00  0.00     0.075 H 
ATOM     83  C28 non d ame     -31.488   9.649  23.897  0.00  0.00     0.193 C 
ATOM     84  H42 non d ame     -29.358   9.687  24.248  0.00  0.00     0.280 HD
ATOM     85  H43 non d ame     -29.954  11.073  23.362  0.00  0.00     0.280 HD
ATOM     86  H44 non d ame     -32.311  10.347  23.741  0.00  0.00     0.129 H 
ATOM     87  H37 non d ame     -32.715   9.184  22.678  0.00  0.00     0.046 H 
BRANCH  83  88
ATOM     88  O6  non d ame     -31.584   9.242  25.263  0.00  0.00    -0.369 OA
ATOM     89  H45 non d ame     -30.956   9.741  25.791  0.00  0.00     0.212 HD
ENDBRANCH  83  88
ENDBRANCH  72  75
ENDBRANCH  47  72
ENDBRANCH  45  47
ENDBRANCH   1  43
BRANCH   1  90
ATOM     90  C16 non d ame     -37.010  10.152  26.114  0.00  0.00    -0.035 C 
ATOM     91  H21 non d ame     -37.184  10.000  25.050  0.00  0.00     0.037 H 
ATOM     92  H22 non d ame     -37.757   9.833  26.840  0.00  0.00     0.037 H 
BRANCH  90  93
ATOM     93  C17 non d ame     -36.829  11.691  26.314  0.00  0.00    -0.059 C 
ATOM     94  H23 non d ame     -35.930  11.842  26.911  0.00  0.00     0.038 H 
BRANCH  93  95
ATOM     95  C18 non d ame     -36.633  12.443  24.959  0.00  0.00    -0.073 C 
ATOM     96  H24 non d ame     -35.600  12.780  24.876  0.00  0.00     0.028 H 
ATOM     97  H25 non d ame     -36.862  11.770  24.133  0.00  0.00     0.028 H 
ATOM     98  H26 non d ame     -37.300  13.304  24.922  0.00  0.00     0.028 H 
ENDBRANCH  93  95
BRANCH  93  99
ATOM     99  C19 non d ame     -38.002  12.282  27.100  0.00  0.00    -0.073 C 
ATOM    100  H27 non d ame     -38.917  11.745  26.846  0.00  0.00     0.028 H 
ATOM    101  H28 non d ame     -37.811  12.185  28.169  0.00  0.00     0.028 H 
ATOM    102  H29 non d ame     -38.117  13.336  26.846  0.00  0.00     0.028 H 
ENDBRANCH  93  99
ENDBRANCH  90  93
ENDBRANCH   1  90
TORSDOF 26
ENDMDL
MODEL 6
REMARK VINA RESULT:      -6.6      2.821      6.098
REMARK  26 active torsions:
REMARK  status: ('A' for Active; 'I' for Inactive)
REMARK    1  A    between atoms: C2_2  and  C3_3 
REMARK    2  A    between atoms: C4_6  and  C5_7 
REMARK       I    between atoms: C5_7  and  N2_9 
REMARK    3  A    between atoms: N2_9  and  C6_10 
REMARK    4  A    between atoms: C6_10  and  C7_11 
REMARK    5  A    between atoms: C6_10  and  C8_13 
REMARK       I    between atoms: C7_11  and  N3_14 
REMARK    6  A    between atoms: N3_14  and  C9_15 
REMARK    7  A    between atoms: C9_15  and  C10_16 
REMARK    8  A    between atoms: C9_15  and  C11_18 
REMARK       I    between atoms: C10_16  and  N4_21 
REMARK    9  A    between atoms: C11_18  and  C12_19 
REMARK   10  A    between atoms: C11_18  and  C13_20 
REMARK   11  A    between atoms: N4_21  and  C14_22 
REMARK   12  A    between atoms: C14_22  and  C15_23 
REMARK   13  A    between atoms: C14_22  and  C16_25 
REMARK       I    between atoms: C15_23  and  N6_40 
REMARK   14  A    between atoms: C16_25  and  C17_26 
REMARK   15  A    between atoms: C17_26  and  C18_27 
REMARK   16  A    between atoms: C17_26  and  C19_28 
REMARK   17  A    between atoms: C20_29  and  C21_30 
REMARK   18  A    between atoms: C20_29  and  C24_33 
REMARK   19  A    between atoms: C20_29  and  N6_40 
REMARK   20  A    between atoms: C21_30  and  C22_31 
REMARK   21  A    between atoms: C22_31  and  C23_32 
REMARK   22  A    between atoms: C23_32  and  O8_43 
REMARK   23  A    between atoms: C24_33  and  C25_34 
REMARK   24  A    between atoms: C28_38  and  O6_39 
REMARK   25  A    between atoms: C29_42  and  O8_43 
REMARK   26  A    between atoms: C29_42  and  C35_49 
ROOT
ATOM      1  C14 non d ame     -35.613  12.384  26.629  0.00  0.00     0.089 C 
ATOM      2  H20 non d ame     -36.217  11.984  25.814  0.00  0.00     0.087 H 
ENDROOT
BRANCH   1   3
ATOM      3  N4  non d ame     -36.080  11.769  27.863  0.00  0.00    -0.346 N 
ATOM      4  C10 non d ame     -37.325  10.920  27.867  0.00  0.00     0.241 C 
ATOM      5  O4  non d ame     -37.937  10.746  26.865  0.00  0.00    -0.271 OA
ATOM      6  H19 non d ame     -35.546  11.931  28.705  0.00  0.00     0.163 HD
BRANCH   4   7
ATOM      7  C9  non d ame     -37.792  10.288  29.152  0.00  0.00     0.092 C 
ATOM      8  H11 non d ame     -37.813   9.205  29.032  0.00  0.00     0.088 H 
BRANCH   7   9
ATOM      9  N3  non d ame     -36.833  10.587  30.221  0.00  0.00    -0.346 N 
ATOM     10  C7  non d ame     -35.800   9.637  30.549  0.00  0.00     0.240 C 
ATOM     11  O3  non d ame     -35.725   8.626  29.964  0.00  0.00    -0.271 OA
ATOM     12  H10 non d ame     -36.887  11.455  30.735  0.00  0.00     0.163 HD
BRANCH  10  13
ATOM     13  C6  non d ame     -34.785   9.959  31.689  0.00  0.00     0.086 C 
ATOM     14  H6  non d ame     -33.983   9.224  31.760  0.00  0.00     0.086 H 
BRANCH  13  15
ATOM     15  N2  non d ame     -34.153  11.238  31.410  0.00  0.00    -0.343 N 
ATOM     16  C5  non d ame     -33.017  11.296  30.488  0.00  0.00     0.273 C 
ATOM     17  O2  non d ame     -32.616  10.307  29.978  0.00  0.00    -0.266 OA
ATOM     18  H5  non d ame     -34.500  12.077  31.853  0.00  0.00     0.163 HD
BRANCH  16  19
ATOM     19  C4  non d ame     -32.340  12.641  30.184  0.00  0.00     0.154 A 
ATOM     20  C1  non d ame     -32.899  13.750  29.473  0.00  0.00    -0.017 A 
ATOM     21  C2  non d ame     -31.881  14.729  29.468  0.00  0.00     0.077 A 
ATOM     22  H1  non d ame     -33.892  13.831  29.030  0.00  0.00     0.091 H 
ATOM     23  O1  non d ame     -30.862  14.232  30.105  0.00  0.00    -0.218 OA
ATOM     24  N1  non d ame     -31.106  13.015  30.532  0.00  0.00    -0.123 NA
BRANCH  21  25
ATOM     25  C3  non d ame     -31.964  16.112  28.835  0.00  0.00    -0.029 C 
ATOM     26  H2  non d ame     -31.656  16.053  27.792  0.00  0.00     0.036 H 
ATOM     27  H3  non d ame     -32.990  16.476  28.890  0.00  0.00     0.036 H 
ATOM     28  H4  non d ame     -31.306  16.797  29.370  0.00  0.00     0.036 H 
ENDBRANCH  21  25
ENDBRANCH  16  19
ENDBRANCH  13  15
BRANCH  13  29
ATOM     29  C8  non d ame     -35.510  10.018  33.009  0.00  0.00    -0.049 C 
ATOM     30  H7  non d ame     -35.581   9.016  33.431  0.00  0.00     0.030 H 
ATOM     31  H8  non d ame     -34.962  10.662  33.697  0.00  0.00     0.030 H 
ATOM     32  H9  non d ame     -36.513  10.419  32.856  0.00  0.00     0.030 H 
ENDBRANCH  13  29
ENDBRANCH  10  13
ENDBRANCH   7   9
BRANCH   7  33
ATOM     33  C11 non d ame     -39.187  10.863  29.535  0.00  0.00    -0.033 C 
ATOM     34  H12 non d ame     -39.371  11.730  28.901  0.00  0.00     0.042 H 
BRANCH  33  35
ATOM     35  C12 non d ame     -40.323   9.829  29.257  0.00  0.00    -0.071 C 
ATOM     36  H13 non d ame     -40.813  10.072  28.314  0.00  0.00     0.028 H 
ATOM     37  H14 non d ame     -39.897   8.828  29.197  0.00  0.00     0.028 H 
ATOM     38  H15 non d ame     -41.054   9.865  30.065  0.00  0.00     0.028 H 
ENDBRANCH  33  35
BRANCH  33  39
ATOM     39  C13 non d ame     -39.207  11.339  31.023  0.00  0.00    -0.071 C 
ATOM     40  H16 non d ame     -39.026  12.413  31.063  0.00  0.00     0.028 H 
ATOM     41  H17 non d ame     -40.179  11.116  31.464  0.00  0.00     0.028 H 
ATOM     42  H18 non d ame     -38.429  10.819  31.582  0.00  0.00     0.028 H 
ENDBRANCH  33  39
ENDBRANCH   7  33
ENDBRANCH   4   7
ENDBRANCH   1   3
BRANCH   1  43
ATOM     43  C15 non d ame     -34.102  12.056  26.453  0.00  0.00     0.240 C 
ATOM     44  O5  non d ame     -33.644  11.086  26.966  0.00  0.00    -0.271 OA
ATOM     45  N6  non d ame     -33.227  12.946  25.638  0.00  0.00    -0.355 N 
ATOM     46  H46 non d ame     -33.606  13.770  25.193  0.00  0.00     0.162 HD
BRANCH  45  47
ATOM     47  C20 non d ame     -31.793  12.620  25.480  0.00  0.00     0.013 C 
ATOM     48  H30 non d ame     -31.524  11.909  26.262  0.00  0.00     0.072 H 
BRANCH  47  49
ATOM     49  C21 non d ame     -30.974  13.882  25.623  0.00  0.00    -0.038 C 
ATOM     50  H31 non d ame     -31.636  14.611  26.092  0.00  0.00     0.036 H 
ATOM     51  H32 non d ame     -30.054  13.581  26.123  0.00  0.00     0.036 H 
BRANCH  49  52
ATOM     52  C22 non d ame     -30.556  14.483  24.263  0.00  0.00     0.018 C 
ATOM     53  H33 non d ame     -29.486  14.670  24.340  0.00  0.00     0.048 H 
ATOM     54  H34 non d ame     -30.937  13.795  23.508  0.00  0.00     0.048 H 
BRANCH  52  55
ATOM     55  C23 non d ame     -31.211  15.858  23.958  0.00  0.00     0.259 C 
ATOM     56  O7  non d ame     -31.261  16.269  22.844  0.00  0.00    -0.265 OA
BRANCH  55  57
ATOM     57  O8  non d ame     -31.739  16.631  25.030  0.00  0.00    -0.317 OA
BRANCH  57  58
ATOM     58  C29 non d ame     -33.169  16.676  25.066  0.00  0.00     0.052 C 
ATOM     59  H47 non d ame     -33.479  17.019  24.079  0.00  0.00     0.082 H 
ATOM     60  H48 non d ame     -33.486  15.699  25.429  0.00  0.00     0.082 H 
BRANCH  58  61
ATOM     61  C35 non d ame     -33.587  17.745  26.112  0.00  0.00    -0.034 A 
ATOM     62  C30 non d ame     -32.820  18.895  26.276  0.00  0.00    -0.075 A 
ATOM     63  C31 non d ame     -33.196  19.855  27.216  0.00  0.00    -0.082 A 
ATOM     64  H49 non d ame     -31.926  19.044  25.671  0.00  0.00     0.084 H 
ATOM     65  C32 non d ame     -34.341  19.661  27.992  0.00  0.00    -0.083 A 
ATOM     66  H50 non d ame     -32.594  20.756  27.341  0.00  0.00     0.083 H 
ATOM     67  C33 non d ame     -35.100  18.510  27.827  0.00  0.00    -0.082 A 
ATOM     68  H51 non d ame     -34.642  20.407  28.728  0.00  0.00     0.083 H 
ATOM     69  C34 non d ame     -34.730  17.549  26.888  0.00  0.00    -0.075 A 
ATOM     70  H52 non d ame     -35.992  18.361  28.437  0.00  0.00     0.083 H 
ATOM     71  H53 non d ame     -35.332  16.649  26.763  0.00  0.00     0.084 H 
ENDBRANCH  58  61
ENDBRANCH  57  58
ENDBRANCH  55  57
ENDBRANCH  52  55
ENDBRANCH  49  52
ENDBRANCH  47  49
BRANCH  47  72
ATOM     72  C24 non d ame     -31.552  12.008  24.102  0.00  0.00    -0.039 C 
ATOM     73  H35 non d ame     -32.539  11.923  23.646  0.00  0.00     0.036 H 
ATOM     74  H36 non d ame     -30.789  12.632  23.637  0.00  0.00     0.036 H 
BRANCH  72  75
ATOM     75  C25 non d ame     -30.951  10.526  24.208  0.00  0.00    -0.001 C 
ATOM     76  C26 non d ame     -29.854  10.281  23.009  0.00  0.00    -0.035 C 
ATOM     77  C27 non d ame     -30.165   9.132  22.360  0.00  0.00     0.085 C 
ATOM     78  H38 non d ame     -29.963  11.044  22.239  0.00  0.00     0.036 H 
ATOM     79  H39 non d ame     -28.872  10.074  23.436  0.00  0.00     0.036 H 
ATOM     80  N5  non d ame     -31.559   8.745  22.794  0.00  0.00    -0.049 N 
ATOM     81  H40 non d ame     -30.181   9.391  21.301  0.00  0.00     0.075 H 
ATOM     82  H41 non d ame     -29.459   8.389  22.729  0.00  0.00     0.075 H 
ATOM     83  C28 non d ame     -31.881   9.637  24.100  0.00  0.00     0.193 C 
ATOM     84  H42 non d ame     -32.179   9.028  22.050  0.00  0.00     0.280 HD
ATOM     85  H43 non d ame     -31.511   7.774  23.071  0.00  0.00     0.280 HD
ATOM     86  H44 non d ame     -31.846   9.193  25.096  0.00  0.00     0.129 H 
ATOM     87  H37 non d ame     -30.641  10.278  25.222  0.00  0.00     0.046 H 
BRANCH  83  88
ATOM     88  O6  non d ame     -33.179  10.224  23.988  0.00  0.00    -0.369 OA
ATOM     89  H45 non d ame     -33.184  11.076  24.431  0.00  0.00     0.212 HD
ENDBRANCH  83  88
ENDBRANCH  72  75
ENDBRANCH  47  72
ENDBRANCH  45  47
ENDBRANCH   1  43
BRANCH   1  90
ATOM     90  C16 non d ame     -35.802  13.889  26.720  0.00  0.00    -0.035 C 
ATOM     91  H21 non d ame     -36.140  14.076  27.738  0.00  0.00     0.037 H 
ATOM     92  H22 non d ame     -34.863  14.319  26.369  0.00  0.00     0.037 H 
BRANCH  90  93
ATOM     93  C17 non d ame     -36.919  14.438  25.777  0.00  0.00    -0.059 C 
ATOM     94  H23 non d ame     -37.615  13.622  25.580  0.00  0.00     0.038 H 
BRANCH  93  95
ATOM     95  C18 non d ame     -37.726  15.603  26.435  0.00  0.00    -0.073 C 
ATOM     96  H24 non d ame     -38.637  15.206  26.884  0.00  0.00     0.028 H 
ATOM     97  H25 non d ame     -37.118  16.076  27.206  0.00  0.00     0.028 H 
ATOM     98  H26 non d ame     -37.987  16.339  25.675  0.00  0.00     0.028 H 
ENDBRANCH  93  95
BRANCH  93  99
ATOM     99  C19 non d ame     -36.334  14.874  24.431  0.00  0.00    -0.073 C 
ATOM    100  H27 non d ame     -36.352  14.032  23.738  0.00  0.00     0.028 H 
ATOM    101  H28 non d ame     -36.928  15.692  24.023  0.00  0.00     0.028 H 
ATOM    102  H29 non d ame     -35.306  15.207  24.572  0.00  0.00     0.028 H 
ENDBRANCH  93  99
ENDBRANCH  90  93
ENDBRANCH   1  90
TORSDOF 26
ENDMDL
MODEL 7
REMARK VINA RESULT:      -6.5      2.298      7.424
REMARK  26 active torsions:
REMARK  status: ('A' for Active; 'I' for Inactive)
REMARK    1  A    between atoms: C2_2  and  C3_3 
REMARK    2  A    between atoms: C4_6  and  C5_7 
REMARK       I    between atoms: C5_7  and  N2_9 
REMARK    3  A    between atoms: N2_9  and  C6_10 
REMARK    4  A    between atoms: C6_10  and  C7_11 
REMARK    5  A    between atoms: C6_10  and  C8_13 
REMARK       I    between atoms: C7_11  and  N3_14 
REMARK    6  A    between atoms: N3_14  and  C9_15 
REMARK    7  A    between atoms: C9_15  and  C10_16 
REMARK    8  A    between atoms: C9_15  and  C11_18 
REMARK       I    between atoms: C10_16  and  N4_21 
REMARK    9  A    between atoms: C11_18  and  C12_19 
REMARK   10  A    between atoms: C11_18  and  C13_20 
REMARK   11  A    between atoms: N4_21  and  C14_22 
REMARK   12  A    between atoms: C14_22  and  C15_23 
REMARK   13  A    between atoms: C14_22  and  C16_25 
REMARK       I    between atoms: C15_23  and  N6_40 
REMARK   14  A    between atoms: C16_25  and  C17_26 
REMARK   15  A    between atoms: C17_26  and  C18_27 
REMARK   16  A    between atoms: C17_26  and  C19_28 
REMARK   17  A    between atoms: C20_29  and  C21_30 
REMARK   18  A    between atoms: C20_29  and  C24_33 
REMARK   19  A    between atoms: C20_29  and  N6_40 
REMARK   20  A    between atoms: C21_30  and  C22_31 
REMARK   21  A    between atoms: C22_31  and  C23_32 
REMARK   22  A    between atoms: C23_32  and  O8_43 
REMARK   23  A    between atoms: C24_33  and  C25_34 
REMARK   24  A    between atoms: C28_38  and  O6_39 
REMARK   25  A    between atoms: C29_42  and  O8_43 
REMARK   26  A    between atoms: C29_42  and  C35_49 
ROOT
ATOM      1  C14 non d ame     -33.907   7.021  27.700  0.00  0.00     0.089 C 
ATOM      2  H20 non d ame     -33.500   6.534  28.586  0.00  0.00     0.087 H 
ENDROOT
BRANCH   1   3
ATOM      3  N4  non d ame     -34.416   8.322  28.110  0.00  0.00    -0.346 N 
ATOM      4  C10 non d ame     -34.868   8.549  29.530  0.00  0.00     0.241 C 
ATOM      5  O4  non d ame     -34.816   7.670  30.326  0.00  0.00    -0.271 OA
ATOM      6  H19 non d ame     -34.455   9.056  27.418  0.00  0.00     0.163 HD
BRANCH   4   7
ATOM      7  C9  non d ame     -35.388   9.903  29.939  0.00  0.00     0.092 C 
ATOM      8  H11 non d ame     -35.462   9.946  31.025  0.00  0.00     0.088 H 
BRANCH   7   9
ATOM      9  N3  non d ame     -34.434  10.937  29.528  0.00  0.00    -0.346 N 
ATOM     10  C7  non d ame     -33.273  11.210  30.339  0.00  0.00     0.240 C 
ATOM     11  O3  non d ame     -33.092  10.607  31.325  0.00  0.00    -0.271 OA
ATOM     12  H10 non d ame     -34.579  11.467  28.680  0.00  0.00     0.163 HD
BRANCH  10  13
ATOM     13  C6  non d ame     -32.263  12.315  29.898  0.00  0.00     0.086 C 
ATOM     14  H6  non d ame     -31.758  12.075  28.962  0.00  0.00     0.086 H 
BRANCH  13  15
ATOM     15  N2  non d ame     -32.988  13.554  29.673  0.00  0.00    -0.343 N 
ATOM     16  C5  non d ame     -32.447  14.548  28.744  0.00  0.00     0.273 C 
ATOM     17  O2  non d ame     -31.426  14.342  28.183  0.00  0.00    -0.266 OA
ATOM     18  H5  non d ame     -33.857  13.723  30.159  0.00  0.00     0.163 HD
BRANCH  16  19
ATOM     19  C4  non d ame     -33.203  15.863  28.496  0.00  0.00     0.154 A 
ATOM     20  C1  non d ame     -34.540  16.013  28.011  0.00  0.00    -0.017 A 
ATOM     21  C2  non d ame     -34.755  17.408  27.963  0.00  0.00     0.077 A 
ATOM     22  H1  non d ame     -35.247  15.230  27.736  0.00  0.00     0.091 H 
ATOM     23  O1  non d ame     -33.664  17.983  28.376  0.00  0.00    -0.218 OA
ATOM     24  N1  non d ame     -32.743  17.101  28.693  0.00  0.00    -0.123 NA
BRANCH  21  25
ATOM     25  C3  non d ame     -36.029  18.110  27.513  0.00  0.00    -0.029 C 
ATOM     26  H2  non d ame     -35.868  18.566  26.537  0.00  0.00     0.036 H 
ATOM     27  H3  non d ame     -36.839  17.383  27.444  0.00  0.00     0.036 H 
ATOM     28  H4  non d ame     -36.295  18.881  28.235  0.00  0.00     0.036 H 
ENDBRANCH  21  25
ENDBRANCH  16  19
ENDBRANCH  13  15
BRANCH  13  29
ATOM     29  C8  non d ame     -31.226  12.510  30.974  0.00  0.00    -0.049 C 
ATOM     30  H7  non d ame     -30.316  12.915  30.534  0.00  0.00     0.030 H 
ATOM     31  H8  non d ame     -31.606  13.203  31.724  0.00  0.00     0.030 H 
ATOM     32  H9  non d ame     -31.006  11.550  31.445  0.00  0.00     0.030 H 
ENDBRANCH  13  29
ENDBRANCH  10  13
ENDBRANCH   7   9
BRANCH   7  33
ATOM     33  C11 non d ame     -36.759  10.162  29.248  0.00  0.00    -0.033 C 
ATOM     34  H12 non d ame     -37.097   9.217  28.823  0.00  0.00     0.042 H 
BRANCH  33  35
ATOM     35  C12 non d ame     -37.836  10.624  30.278  0.00  0.00    -0.071 C 
ATOM     36  H13 non d ame     -38.031  11.689  30.147  0.00  0.00     0.028 H 
ATOM     37  H14 non d ame     -38.756  10.063  30.119  0.00  0.00     0.028 H 
ATOM     38  H15 non d ame     -37.471  10.446  31.290  0.00  0.00     0.028 H 
ENDBRANCH  33  35
BRANCH  33  39
ATOM     39  C13 non d ame     -36.612  11.190  28.081  0.00  0.00    -0.071 C 
ATOM     40  H16 non d ame     -36.909  10.722  27.143  0.00  0.00     0.028 H 
ATOM     41  H17 non d ame     -37.249  12.054  28.275  0.00  0.00     0.028 H 
ATOM     42  H18 non d ame     -35.574  11.515  28.012  0.00  0.00     0.028 H 
ENDBRANCH  33  39
ENDBRANCH   7  33
ENDBRANCH   4   7
ENDBRANCH   1   3
BRANCH   1  43
ATOM     43  C15 non d ame     -32.828   7.237  26.600  0.00  0.00     0.240 C 
ATOM     44  O5  non d ame     -31.761   6.724  26.710  0.00  0.00    -0.271 OA
ATOM     45  N6  non d ame     -33.127   8.074  25.404  0.00  0.00    -0.355 N 
ATOM     46  H46 non d ame     -34.032   8.511  25.297  0.00  0.00     0.162 HD
BRANCH  45  47
ATOM     47  C20 non d ame     -32.090   8.268  24.367  0.00  0.00     0.013 C 
ATOM     48  H30 non d ame     -31.119   8.091  24.829  0.00  0.00     0.072 H 
BRANCH  47  49
ATOM     49  C21 non d ame     -32.165   9.684  23.844  0.00  0.00    -0.038 C 
ATOM     50  H31 non d ame     -32.139   9.598  22.757  0.00  0.00     0.036 H 
ATOM     51  H32 non d ame     -33.028  10.134  24.335  0.00  0.00     0.036 H 
BRANCH  49  52
ATOM     52  C22 non d ame     -30.941  10.536  24.244  0.00  0.00     0.018 C 
ATOM     53  H33 non d ame     -30.249   9.849  24.728  0.00  0.00     0.048 H 
ATOM     54  H34 non d ame     -30.642  11.066  23.339  0.00  0.00     0.048 H 
BRANCH  52  55
ATOM     55  C23 non d ame     -31.260  11.634  25.296  0.00  0.00     0.259 C 
ATOM     56  O7  non d ame     -31.027  11.452  26.448  0.00  0.00    -0.265 OA
BRANCH  55  57
ATOM     57  O8  non d ame     -31.848  12.858  24.871  0.00  0.00    -0.317 OA
BRANCH  57  58
ATOM     58  C29 non d ame     -30.975  13.987  24.963  0.00  0.00     0.052 C 
ATOM     59  H47 non d ame     -31.528  14.743  25.521  0.00  0.00     0.082 H 
ATOM     60  H48 non d ame     -30.033  13.602  25.351  0.00  0.00     0.082 H 
BRANCH  58  61
ATOM     61  C35 non d ame     -30.730  14.521  23.525  0.00  0.00    -0.034 A 
ATOM     62  C30 non d ame     -31.296  15.727  23.125  0.00  0.00    -0.075 A 
ATOM     63  C31 non d ame     -31.077  16.206  21.833  0.00  0.00    -0.082 A 
ATOM     64  H49 non d ame     -31.913  16.296  23.820  0.00  0.00     0.084 H 
ATOM     65  C32 non d ame     -30.289  15.473  20.942  0.00  0.00    -0.083 A 
ATOM     66  H50 non d ame     -31.520  17.153  21.523  0.00  0.00     0.083 H 
ATOM     67  C33 non d ame     -29.729  14.268  21.346  0.00  0.00    -0.082 A 
ATOM     68  H51 non d ame     -30.111  15.841  19.931  0.00  0.00     0.083 H 
ATOM     69  C34 non d ame     -29.945  13.787  22.635  0.00  0.00    -0.075 A 
ATOM     70  H52 non d ame     -29.117  13.697  20.646  0.00  0.00     0.083 H 
ATOM     71  H53 non d ame     -29.500  12.841  22.945  0.00  0.00     0.084 H 
ENDBRANCH  58  61
ENDBRANCH  57  58
ENDBRANCH  55  57
ENDBRANCH  52  55
ENDBRANCH  49  52
ENDBRANCH  47  49
BRANCH  47  72
ATOM     72  C24 non d ame     -32.319   7.286  23.219  0.00  0.00    -0.039 C 
ATOM     73  H35 non d ame     -31.337   7.134  22.769  0.00  0.00     0.036 H 
ATOM     74  H36 non d ame     -32.852   6.444  23.660  0.00  0.00     0.036 H 
BRANCH  72  75
ATOM     75  C25 non d ame     -33.267   7.907  22.088  0.00  0.00    -0.001 C 
ATOM     76  C26 non d ame     -34.645   7.020  21.964  0.00  0.00    -0.035 C 
ATOM     77  C27 non d ame     -34.837   6.688  20.665  0.00  0.00     0.085 C 
ATOM     78  H38 non d ame     -34.516   6.056  22.456  0.00  0.00     0.036 H 
ATOM     79  H39 non d ame     -35.512   7.639  22.199  0.00  0.00     0.036 H 
ATOM     80  N5  non d ame     -33.546   6.988  19.939  0.00  0.00    -0.049 N 
ATOM     81  H40 non d ame     -35.005   5.611  20.661  0.00  0.00     0.075 H 
ATOM     82  H41 non d ame     -35.612   7.363  20.303  0.00  0.00     0.075 H 
ATOM     83  C28 non d ame     -32.680   7.914  20.938  0.00  0.00     0.193 C 
ATOM     84  H42 non d ame     -33.071   6.105  19.826  0.00  0.00     0.280 HD
ATOM     85  H43 non d ame     -33.797   7.536  19.128  0.00  0.00     0.280 HD
ATOM     86  H44 non d ame     -32.597   8.987  20.765  0.00  0.00     0.129 H 
ATOM     87  H37 non d ame     -33.380   8.986  22.190  0.00  0.00     0.046 H 
BRANCH  83  88
ATOM     88  O6  non d ame     -31.337   7.433  21.015  0.00  0.00    -0.369 OA
ATOM     89  H45 non d ame     -31.271   6.591  20.559  0.00  0.00     0.212 HD
ENDBRANCH  83  88
ENDBRANCH  72  75
ENDBRANCH  47  72
ENDBRANCH  45  47
ENDBRANCH   1  43
BRANCH   1  90
ATOM     90  C16 non d ame     -35.052   6.194  27.137  0.00  0.00    -0.035 C 
ATOM     91  H21 non d ame     -35.938   6.818  27.245  0.00  0.00     0.037 H 
ATOM     92  H22 non d ame     -34.722   5.881  26.147  0.00  0.00     0.037 H 
BRANCH  90  93
ATOM     93  C17 non d ame     -35.334   4.886  27.943  0.00  0.00    -0.059 C 
ATOM     94  H23 non d ame     -35.388   4.064  27.229  0.00  0.00     0.038 H 
BRANCH  93  95
ATOM     95  C18 non d ame     -34.191   4.560  28.957  0.00  0.00    -0.073 C 
ATOM     96  H24 non d ame     -33.527   3.809  28.529  0.00  0.00     0.028 H 
ATOM     97  H25 non d ame     -33.624   5.467  29.168  0.00  0.00     0.028 H 
ATOM     98  H26 non d ame     -34.624   4.178  29.882  0.00  0.00     0.028 H 
ENDBRANCH  93  95
BRANCH  93  99
ATOM     99  C19 non d ame     -36.687   4.962  28.655  0.00  0.00    -0.073 C 
ATOM    100  H27 non d ame     -36.642   5.717  29.442  0.00  0.00     0.028 H 
ATOM    101  H28 non d ame     -37.461   5.234  27.937  0.00  0.00     0.028 H 
ATOM    102  H29 non d ame     -36.923   3.993  29.093  0.00  0.00     0.028 H 
ENDBRANCH  93  99
ENDBRANCH  90  93
ENDBRANCH   1  90
TORSDOF 26
ENDMDL
MODEL 8
REMARK VINA RESULT:      -6.5      2.280      8.574
REMARK  26 active torsions:
REMARK  status: ('A' for Active; 'I' for Inactive)
REMARK    1  A    between atoms: C2_2  and  C3_3 
REMARK    2  A    between atoms: C4_6  and  C5_7 
REMARK       I    between atoms: C5_7  and  N2_9 
REMARK    3  A    between atoms: N2_9  and  C6_10 
REMARK    4  A    between atoms: C6_10  and  C7_11 
REMARK    5  A    between atoms: C6_10  and  C8_13 
REMARK       I    between atoms: C7_11  and  N3_14 
REMARK    6  A    between atoms: N3_14  and  C9_15 
REMARK    7  A    between atoms: C9_15  and  C10_16 
REMARK    8  A    between atoms: C9_15  and  C11_18 
REMARK       I    between atoms: C10_16  and  N4_21 
REMARK    9  A    between atoms: C11_18  and  C12_19 
REMARK   10  A    between atoms: C11_18  and  C13_20 
REMARK   11  A    between atoms: N4_21  and  C14_22 
REMARK   12  A    between atoms: C14_22  and  C15_23 
REMARK   13  A    between atoms: C14_22  and  C16_25 
REMARK       I    between atoms: C15_23  and  N6_40 
REMARK   14  A    between atoms: C16_25  and  C17_26 
REMARK   15  A    between atoms: C17_26  and  C18_27 
REMARK   16  A    between atoms: C17_26  and  C19_28 
REMARK   17  A    between atoms: C20_29  and  C21_30 
REMARK   18  A    between atoms: C20_29  and  C24_33 
REMARK   19  A    between atoms: C20_29  and  N6_40 
REMARK   20  A    between atoms: C21_30  and  C22_31 
REMARK   21  A    between atoms: C22_31  and  C23_32 
REMARK   22  A    between atoms: C23_32  and  O8_43 
REMARK   23  A    between atoms: C24_33  and  C25_34 
REMARK   24  A    between atoms: C28_38  and  O6_39 
REMARK   25  A    between atoms: C29_42  and  O8_43 
REMARK   26  A    between atoms: C29_42  and  C35_49 
ROOT
ATOM      1  C14 non d ame     -33.869   9.870  24.871  0.00  0.00     0.089 C 
ATOM      2  H20 non d ame     -34.308   9.278  24.068  0.00  0.00     0.087 H 
ENDROOT
BRANCH   1   3
ATOM      3  N4  non d ame     -34.663  11.083  25.005  0.00  0.00    -0.346 N 
ATOM      4  C10 non d ame     -36.135  11.069  24.681  0.00  0.00     0.241 C 
ATOM      5  O4  non d ame     -36.660  10.070  24.312  0.00  0.00    -0.271 OA
ATOM      6  H19 non d ame     -34.198  11.923  25.318  0.00  0.00     0.163 HD
BRANCH   4   7
ATOM      7  C9  non d ame     -36.943  12.332  24.829  0.00  0.00     0.092 C 
ATOM      8  H11 non d ame     -37.448  12.323  25.795  0.00  0.00     0.088 H 
BRANCH   7   9
ATOM      9  N3  non d ame     -36.045  13.491  24.820  0.00  0.00    -0.346 N 
ATOM     10  C7  non d ame     -36.038  14.405  25.935  0.00  0.00     0.240 C 
ATOM     11  O3  non d ame     -36.748  14.224  26.848  0.00  0.00    -0.271 OA
ATOM     12  H10 non d ame     -35.428  13.660  24.039  0.00  0.00     0.163 HD
BRANCH  10  13
ATOM     13  C6  non d ame     -35.082  15.638  25.919  0.00  0.00     0.086 C 
ATOM     14  H6  non d ame     -34.604  15.814  26.882  0.00  0.00     0.086 H 
BRANCH  13  15
ATOM     15  N2  non d ame     -34.014  15.395  24.964  0.00  0.00    -0.343 N 
ATOM     16  C5  non d ame     -32.620  15.466  25.406  0.00  0.00     0.273 C 
ATOM     17  O2  non d ame     -32.368  15.722  26.532  0.00  0.00    -0.266 OA
ATOM     18  H5  non d ame     -34.239  15.180  24.003  0.00  0.00     0.163 HD
BRANCH  16  19
ATOM     19  C4  non d ame     -31.481  15.210  24.406  0.00  0.00     0.154 A 
ATOM     20  C1  non d ame     -31.181  13.984  23.732  0.00  0.00    -0.017 A 
ATOM     21  C2  non d ame     -30.052  14.276  22.934  0.00  0.00     0.077 A 
ATOM     22  H1  non d ame     -31.702  13.030  23.811  0.00  0.00     0.091 H 
ATOM     23  O1  non d ame     -29.750  15.525  23.132  0.00  0.00    -0.218 OA
ATOM     24  N1  non d ame     -30.569  16.092  23.987  0.00  0.00    -0.123 NA
BRANCH  21  25
ATOM     25  C3  non d ame     -29.326  13.306  22.011  0.00  0.00    -0.029 C 
ATOM     26  H2  non d ame     -29.826  12.338  22.036  0.00  0.00     0.036 H 
ATOM     27  H3  non d ame     -29.340  13.695  20.993  0.00  0.00     0.036 H 
ATOM     28  H4  non d ame     -28.295  13.192  22.342  0.00  0.00     0.036 H 
ENDBRANCH  21  25
ENDBRANCH  16  19
ENDBRANCH  13  15
BRANCH  13  29
ATOM     29  C8  non d ame     -35.856  16.871  25.528  0.00  0.00    -0.049 C 
ATOM     30  H7  non d ame     -35.361  17.360  24.689  0.00  0.00     0.030 H 
ATOM     31  H8  non d ame     -36.868  16.589  25.237  0.00  0.00     0.030 H 
ATOM     32  H9  non d ame     -35.898  17.558  26.374  0.00  0.00     0.030 H 
ENDBRANCH  13  29
ENDBRANCH  10  13
ENDBRANCH   7   9
BRANCH   7  33
ATOM     33  C11 non d ame     -37.946  12.447  23.644  0.00  0.00    -0.033 C 
ATOM     34  H12 non d ame     -37.916  11.507  23.094  0.00  0.00     0.042 H 
BRANCH  33  35
ATOM     35  C12 non d ame     -39.407  12.645  24.154  0.00  0.00    -0.071 C 
ATOM     36  H13 non d ame     -39.901  11.676  24.227  0.00  0.00     0.028 H 
ATOM     37  H14 non d ame     -39.389  13.119  25.135  0.00  0.00     0.028 H 
ATOM     38  H15 non d ame     -39.954  13.278  23.455  0.00  0.00     0.028 H 
ENDBRANCH  33  35
BRANCH  33  39
ATOM     39  C13 non d ame     -37.527  13.591  22.666  0.00  0.00    -0.071 C 
ATOM     40  H16 non d ame     -36.860  13.191  21.902  0.00  0.00     0.028 H 
ATOM     41  H17 non d ame     -38.415  14.009  22.191  0.00  0.00     0.028 H 
ATOM     42  H18 non d ame     -37.012  14.375  23.223  0.00  0.00     0.028 H 
ENDBRANCH  33  39
ENDBRANCH   7  33
ENDBRANCH   4   7
ENDBRANCH   1   3
BRANCH   1  43
ATOM     43  C15 non d ame     -33.884   9.116  26.232  0.00  0.00     0.240 C 
ATOM     44  O5  non d ame     -32.883   9.019  26.865  0.00  0.00    -0.271 OA
ATOM     45  N6  non d ame     -35.150   8.523  26.751  0.00  0.00    -0.355 N 
ATOM     46  H46 non d ame     -36.008   8.603  26.224  0.00  0.00     0.162 HD
BRANCH  45  47
ATOM     47  C20 non d ame     -35.147   7.810  28.047  0.00  0.00     0.013 C 
ATOM     48  H30 non d ame     -35.853   6.982  27.974  0.00  0.00     0.072 H 
BRANCH  47  49
ATOM     49  C21 non d ame     -35.575   8.760  29.142  0.00  0.00    -0.038 C 
ATOM     50  H31 non d ame     -34.883   9.601  29.088  0.00  0.00     0.036 H 
ATOM     51  H32 non d ame     -36.643   8.922  28.990  0.00  0.00     0.036 H 
BRANCH  49  52
ATOM     52  C22 non d ame     -35.421   8.155  30.554  0.00  0.00     0.018 C 
ATOM     53  H33 non d ame     -36.435   8.026  30.931  0.00  0.00     0.048 H 
ATOM     54  H34 non d ame     -34.769   7.290  30.435  0.00  0.00     0.048 H 
BRANCH  52  55
ATOM     55  C23 non d ame     -34.705   9.096  31.563  0.00  0.00     0.259 C 
ATOM     56  O7  non d ame     -35.153   9.266  32.651  0.00  0.00    -0.265 OA
BRANCH  55  57
ATOM     57  O8  non d ame     -33.514   9.764  31.168  0.00  0.00    -0.317 OA
BRANCH  57  58
ATOM     58  C29 non d ame     -33.614  11.191  31.180  0.00  0.00     0.052 C 
ATOM     59  H47 non d ame     -34.658  11.415  30.961  0.00  0.00     0.082 H 
ATOM     60  H48 non d ame     -33.174  11.510  32.124  0.00  0.00     0.082 H 
BRANCH  58  61
ATOM     61  C35 non d ame     -32.740  11.743  30.022  0.00  0.00    -0.034 A 
ATOM     62  C30 non d ame     -31.416  12.100  30.258  0.00  0.00    -0.075 A 
ATOM     63  C31 non d ame     -30.631  12.596  29.218  0.00  0.00    -0.082 A 
ATOM     64  H49 non d ame     -30.994  11.993  31.257  0.00  0.00     0.084 H 
ATOM     65  C32 non d ame     -31.175  12.735  27.938  0.00  0.00    -0.083 A 
ATOM     66  H50 non d ame     -29.593  12.873  29.405  0.00  0.00     0.083 H 
ATOM     67  C33 non d ame     -32.497  12.381  27.709  0.00  0.00    -0.082 A 
ATOM     68  H51 non d ame     -30.567  13.121  27.119  0.00  0.00     0.083 H 
ATOM     69  C34 non d ame     -33.285  11.884  28.744  0.00  0.00    -0.075 A 
ATOM     70  H52 non d ame     -32.920  12.494  26.709  0.00  0.00     0.083 H 
ATOM     71  H53 non d ame     -34.322  11.606  28.556  0.00  0.00     0.084 H 
ENDBRANCH  58  61
ENDBRANCH  57  58
ENDBRANCH  55  57
ENDBRANCH  52  55
ENDBRANCH  49  52
ENDBRANCH  47  49
BRANCH  47  72
ATOM     72  C24 non d ame     -33.744   7.286  28.345  0.00  0.00    -0.039 C 
ATOM     73  H35 non d ame     -33.092   7.777  27.621  0.00  0.00     0.036 H 
ATOM     74  H36 non d ame     -33.594   7.449  29.412  0.00  0.00     0.036 H 
BRANCH  72  75
ATOM     75  C25 non d ame     -33.633   5.709  28.087  0.00  0.00    -0.001 C 
ATOM     76  C26 non d ame     -33.986   4.890  29.468  0.00  0.00    -0.035 C 
ATOM     77  C27 non d ame     -32.992   4.003  29.717  0.00  0.00     0.085 C 
ATOM     78  H38 non d ame     -33.945   5.564  30.324  0.00  0.00     0.036 H 
ATOM     79  H39 non d ame     -34.860   4.257  29.315  0.00  0.00     0.036 H 
ATOM     80  N5  non d ame     -31.839   4.369  28.814  0.00  0.00    -0.049 N 
ATOM     81  H40 non d ame     -32.702   4.174  30.753  0.00  0.00     0.075 H 
ATOM     82  H41 non d ame     -33.386   3.033  29.415  0.00  0.00     0.075 H 
ATOM     83  C28 non d ame     -32.442   5.380  27.710  0.00  0.00     0.193 C 
ATOM     84  H42 non d ame     -31.178   4.875  29.385  0.00  0.00     0.280 HD
ATOM     85  H43 non d ame     -31.558   3.516  28.351  0.00  0.00     0.280 HD
ATOM     86  H44 non d ame     -32.645   5.034  26.696  0.00  0.00     0.129 H 
ATOM     87  H37 non d ame     -34.154   5.401  27.181  0.00  0.00     0.046 H 
BRANCH  83  88
ATOM     88  O6  non d ame     -31.590   6.517  27.563  0.00  0.00    -0.369 OA
ATOM     89  H45 non d ame     -32.100   7.259  27.230  0.00  0.00     0.212 HD
ENDBRANCH  83  88
ENDBRANCH  72  75
ENDBRANCH  47  72
ENDBRANCH  45  47
ENDBRANCH   1  43
BRANCH   1  90
ATOM     90  C16 non d ame     -32.441  10.248  24.512  0.00  0.00    -0.035 C 
ATOM     91  H21 non d ame     -32.512  11.225  24.037  0.00  0.00     0.037 H 
ATOM     92  H22 non d ame     -31.871  10.129  25.434  0.00  0.00     0.037 H 
BRANCH  90  93
ATOM     93  C17 non d ame     -31.787   9.295  23.462  0.00  0.00    -0.059 C 
ATOM     94  H23 non d ame     -31.395   8.431  23.999  0.00  0.00     0.038 H 
BRANCH  93  95
ATOM     95  C18 non d ame     -32.821   8.774  22.414  0.00  0.00    -0.073 C 
ATOM     96  H24 non d ame     -32.305   8.188  21.653  0.00  0.00     0.028 H 
ATOM     97  H25 non d ame     -33.560   8.147  22.913  0.00  0.00     0.028 H 
ATOM     98  H26 non d ame     -33.320   9.621  21.944  0.00  0.00     0.028 H 
ENDBRANCH  93  95
BRANCH  93  99
ATOM     99  C19 non d ame     -30.604   9.975  22.768  0.00  0.00    -0.073 C 
ATOM    100  H27 non d ame     -30.727   9.902  21.686  0.00  0.00     0.028 H 
ATOM    101  H28 non d ame     -30.566  11.025  23.058  0.00  0.00     0.028 H 
ATOM    102  H29 non d ame     -29.677   9.482  23.063  0.00  0.00     0.028 H 
ENDBRANCH  93  99
ENDBRANCH  90  93
ENDBRANCH   1  90
TORSDOF 26
ENDMDL
MODEL 9
REMARK VINA RESULT:      -6.4      2.454      4.729
REMARK  26 active torsions:
REMARK  status: ('A' for Active; 'I' for Inactive)
REMARK    1  A    between atoms: C2_2  and  C3_3 
REMARK    2  A    between atoms: C4_6  and  C5_7 
REMARK       I    between atoms: C5_7  and  N2_9 
REMARK    3  A    between atoms: N2_9  and  C6_10 
REMARK    4  A    between atoms: C6_10  and  C7_11 
REMARK    5  A    between atoms: C6_10  and  C8_13 
REMARK       I    between atoms: C7_11  and  N3_14 
REMARK    6  A    between atoms: N3_14  and  C9_15 
REMARK    7  A    between atoms: C9_15  and  C10_16 
REMARK    8  A    between atoms: C9_15  and  C11_18 
REMARK       I    between atoms: C10_16  and  N4_21 
REMARK    9  A    between atoms: C11_18  and  C12_19 
REMARK   10  A    between atoms: C11_18  and  C13_20 
REMARK   11  A    between atoms: N4_21  and  C14_22 
REMARK   12  A    between atoms: C14_22  and  C15_23 
REMARK   13  A    between atoms: C14_22  and  C16_25 
REMARK       I    between atoms: C15_23  and  N6_40 
REMARK   14  A    between atoms: C16_25  and  C17_26 
REMARK   15  A    between atoms: C17_26  and  C18_27 
REMARK   16  A    between atoms: C17_26  and  C19_28 
REMARK   17  A    between atoms: C20_29  and  C21_30 
REMARK   18  A    between atoms: C20_29  and  C24_33 
REMARK   19  A    between atoms: C20_29  and  N6_40 
REMARK   20  A    between atoms: C21_30  and  C22_31 
REMARK   21  A    between atoms: C22_31  and  C23_32 
REMARK   22  A    between atoms: C23_32  and  O8_43 
REMARK   23  A    between atoms: C24_33  and  C25_34 
REMARK   24  A    between atoms: C28_38  and  O6_39 
REMARK   25  A    between atoms: C29_42  and  O8_43 
REMARK   26  A    between atoms: C29_42  and  C35_49 
ROOT
ATOM      1  C14 non d ame     -31.957   9.728  24.602  0.00  0.00     0.089 C 
ATOM      2  H20 non d ame     -31.316   8.920  24.955  0.00  0.00     0.087 H 
ENDROOT
BRANCH   1   3
ATOM      3  N4  non d ame     -33.291   9.493  25.134  0.00  0.00    -0.346 N 
ATOM      4  C10 non d ame     -33.622   8.188  25.812  0.00  0.00     0.241 C 
ATOM      5  O4  non d ame     -32.799   7.339  25.916  0.00  0.00    -0.271 OA
ATOM      6  H19 non d ame     -33.978  10.227  25.033  0.00  0.00     0.163 HD
BRANCH   4   7
ATOM      7  C9  non d ame     -35.007   7.964  26.361  0.00  0.00     0.092 C 
ATOM      8  H11 non d ame     -35.035   7.008  26.883  0.00  0.00     0.088 H 
BRANCH   7   9
ATOM      9  N3  non d ame     -35.317   9.005  27.346  0.00  0.00    -0.346 N 
ATOM     10  C7  non d ame     -35.645   8.639  28.701  0.00  0.00     0.240 C 
ATOM     11  O3  non d ame     -35.665   7.512  29.017  0.00  0.00    -0.271 OA
ATOM     12  H10 non d ame     -35.306   9.981  27.087  0.00  0.00     0.163 HD
BRANCH  10  13
ATOM     13  C6  non d ame     -35.978   9.750  29.744  0.00  0.00     0.086 C 
ATOM     14  H6  non d ame     -35.994   9.377  30.768  0.00  0.00     0.086 H 
BRANCH  13  15
ATOM     15  N2  non d ame     -34.945  10.771  29.692  0.00  0.00    -0.343 N 
ATOM     16  C5  non d ame     -33.720  10.599  30.475  0.00  0.00     0.273 C 
ATOM     17  O2  non d ame     -33.575   9.638  31.147  0.00  0.00    -0.266 OA
ATOM     18  H5  non d ame     -35.077  11.591  29.117  0.00  0.00     0.163 HD
BRANCH  16  19
ATOM     19  C4  non d ame     -32.619  11.671  30.427  0.00  0.00     0.154 A 
ATOM     20  C1  non d ame     -32.679  12.944  29.778  0.00  0.00    -0.017 A 
ATOM     21  C2  non d ame     -31.423  13.540  30.030  0.00  0.00     0.077 A 
ATOM     22  H1  non d ame     -33.506  13.370  29.211  0.00  0.00     0.091 H 
ATOM     23  O1  non d ame     -30.732  12.701  30.743  0.00  0.00    -0.218 OA
ATOM     24  N1  non d ame     -31.408  11.602  30.988  0.00  0.00    -0.123 NA
BRANCH  21  25
ATOM     25  C3  non d ame     -30.965  14.913  29.556  0.00  0.00    -0.029 C 
ATOM     26  H2  non d ame     -31.639  15.273  28.780  0.00  0.00     0.036 H 
ATOM     27  H3  non d ame     -30.975  15.609  30.395  0.00  0.00     0.036 H 
ATOM     28  H4  non d ame     -29.955  14.842  29.156  0.00  0.00     0.036 H 
ENDBRANCH  21  25
ENDBRANCH  16  19
ENDBRANCH  13  15
BRANCH  13  29
ATOM     29  C8  non d ame     -37.320  10.357  29.426  0.00  0.00    -0.049 C 
ATOM     30  H7  non d ame     -37.661   9.997  28.456  0.00  0.00     0.030 H 
ATOM     31  H8  non d ame     -38.040  10.070  30.192  0.00  0.00     0.030 H 
ATOM     32  H9  non d ame     -37.231  11.444  29.400  0.00  0.00     0.030 H 
ENDBRANCH  13  29
ENDBRANCH  10  13
ENDBRANCH   7   9
BRANCH   7  33
ATOM     33  C11 non d ame     -36.042   8.029  25.199  0.00  0.00    -0.033 C 
ATOM     34  H12 non d ame     -36.011   9.037  24.787  0.00  0.00     0.042 H 
BRANCH  33  35
ATOM     35  C12 non d ame     -35.667   7.042  24.050  0.00  0.00    -0.071 C 
ATOM     36  H13 non d ame     -35.654   6.022  24.436  0.00  0.00     0.028 H 
ATOM     37  H14 non d ame     -36.403   7.118  23.250  0.00  0.00     0.028 H 
ATOM     38  H15 non d ame     -34.680   7.294  23.662  0.00  0.00     0.028 H 
ENDBRANCH  33  35
BRANCH  33  39
ATOM     39  C13 non d ame     -37.489   7.764  25.723  0.00  0.00    -0.071 C 
ATOM     40  H16 non d ame     -38.211   8.202  25.034  0.00  0.00     0.028 H 
ATOM     41  H17 non d ame     -37.659   6.690  25.796  0.00  0.00     0.028 H 
ATOM     42  H18 non d ame     -37.607   8.216  26.708  0.00  0.00     0.028 H 
ENDBRANCH  33  39
ENDBRANCH   7  33
ENDBRANCH   4   7
ENDBRANCH   1   3
BRANCH   1  43
ATOM     43  C15 non d ame     -31.467  11.121  25.092  0.00  0.00     0.240 C 
ATOM     44  O5  non d ame     -30.724  11.195  26.018  0.00  0.00    -0.271 OA
ATOM     45  N6  non d ame     -31.914  12.364  24.401  0.00  0.00    -0.355 N 
ATOM     46  H46 non d ame     -32.541  12.314  23.611  0.00  0.00     0.162 HD
BRANCH  45  47
ATOM     47  C20 non d ame     -31.438  13.680  24.879  0.00  0.00     0.013 C 
ATOM     48  H30 non d ame     -30.396  13.570  25.179  0.00  0.00     0.072 H 
BRANCH  47  49
ATOM     49  C21 non d ame     -32.274  14.116  26.061  0.00  0.00    -0.038 C 
ATOM     50  H31 non d ame     -31.790  13.687  26.938  0.00  0.00     0.036 H 
ATOM     51  H32 non d ame     -32.374  15.197  25.967  0.00  0.00     0.036 H 
BRANCH  49  52
ATOM     52  C22 non d ame     -33.707  13.540  26.026  0.00  0.00     0.018 C 
ATOM     53  H33 non d ame     -33.691  12.755  25.271  0.00  0.00     0.048 H 
ATOM     54  H34 non d ame     -33.952  13.298  27.060  0.00  0.00     0.048 H 
BRANCH  52  55
ATOM     55  C23 non d ame     -34.781  14.561  25.560  0.00  0.00     0.259 C 
ATOM     56  O7  non d ame     -35.926  14.248  25.503  0.00  0.00    -0.265 OA
BRANCH  55  57
ATOM     57  O8  non d ame     -34.379  15.874  25.188  0.00  0.00    -0.317 OA
BRANCH  57  58
ATOM     58  C29 non d ame     -35.179  16.913  25.760  0.00  0.00     0.052 C 
ATOM     59  H47 non d ame     -35.650  17.420  24.919  0.00  0.00     0.082 H 
ATOM     60  H48 non d ame     -35.792  16.429  26.519  0.00  0.00     0.082 H 
BRANCH  58  61
ATOM     61  C35 non d ame     -34.227  17.915  26.467  0.00  0.00    -0.034 A 
ATOM     62  C30 non d ame     -33.467  17.503  27.557  0.00  0.00    -0.075 A 
ATOM     63  C31 non d ame     -32.612  18.403  28.192  0.00  0.00    -0.082 A 
ATOM     64  H49 non d ame     -33.541  16.476  27.915  0.00  0.00     0.084 H 
ATOM     65  C32 non d ame     -32.520  19.720  27.734  0.00  0.00    -0.083 A 
ATOM     66  H50 non d ame     -32.016  18.077  29.046  0.00  0.00     0.083 H 
ATOM     67  C33 non d ame     -33.283  20.127  26.648  0.00  0.00    -0.082 A 
ATOM     68  H51 non d ame     -31.853  20.430  28.225  0.00  0.00     0.083 H 
ATOM     69  C34 non d ame     -34.137  19.231  26.010  0.00  0.00    -0.075 A 
ATOM     70  H52 non d ame     -33.211  21.157  26.295  0.00  0.00     0.083 H 
ATOM     71  H53 non d ame     -34.732  19.558  25.156  0.00  0.00     0.084 H 
ENDBRANCH  58  61
ENDBRANCH  57  58
ENDBRANCH  55  57
ENDBRANCH  52  55
ENDBRANCH  49  52
ENDBRANCH  47  49
BRANCH  47  72
ATOM     72  C24 non d ame     -31.561  14.711  23.758  0.00  0.00    -0.039 C 
ATOM     73  H35 non d ame     -32.577  14.604  23.377  0.00  0.00     0.036 H 
ATOM     74  H36 non d ame     -31.240  15.656  24.197  0.00  0.00     0.036 H 
BRANCH  72  75
ATOM     75  C25 non d ame     -30.565  14.390  22.546  0.00  0.00    -0.001 C 
ATOM     76  C26 non d ame     -29.072  14.026  23.129  0.00  0.00    -0.035 C 
ATOM     77  C27 non d ame     -28.154  14.790  22.488  0.00  0.00     0.085 C 
ATOM     78  H38 non d ame     -28.988  14.345  24.168  0.00  0.00     0.036 H 
ATOM     79  H39 non d ame     -28.797  13.009  22.848  0.00  0.00     0.036 H 
ATOM     80  N5  non d ame     -28.914  15.871  21.757  0.00  0.00    -0.049 N 
ATOM     81  H40 non d ame     -27.555  15.247  23.276  0.00  0.00     0.075 H 
ATOM     82  H41 non d ame     -27.685  14.131  21.759  0.00  0.00     0.075 H 
ATOM     83  C28 non d ame     -30.459  15.401  21.749  0.00  0.00     0.193 C 
ATOM     84  H42 non d ame     -28.836  16.706  22.319  0.00  0.00     0.280 HD
ATOM     85  H43 non d ame     -28.571  15.867  20.807  0.00  0.00     0.280 HD
ATOM     86  H44 non d ame     -30.906  14.987  20.845  0.00  0.00     0.129 H 
ATOM     87  H37 non d ame     -31.000  13.695  21.828  0.00  0.00     0.046 H 
BRANCH  83  88
ATOM     88  O6  non d ame     -31.306  16.484  22.136  0.00  0.00    -0.369 OA
ATOM     89  H45 non d ame     -32.169  16.377  21.726  0.00  0.00     0.212 HD
ENDBRANCH  83  88
ENDBRANCH  72  75
ENDBRANCH  47  72
ENDBRANCH  45  47
ENDBRANCH   1  43
BRANCH   1  90
ATOM     90  C16 non d ame     -32.017   9.713  23.084  0.00  0.00    -0.035 C 
ATOM     91  H21 non d ame     -32.980   9.267  22.838  0.00  0.00     0.037 H 
ATOM     92  H22 non d ame     -31.794  10.735  22.776  0.00  0.00     0.037 H 
BRANCH  90  93
ATOM     93  C17 non d ame     -30.930   8.806  22.423  0.00  0.00    -0.059 C 
ATOM     94  H23 non d ame     -31.173   8.717  21.364  0.00  0.00     0.038 H 
BRANCH  93  95
ATOM     95  C18 non d ame     -29.500   9.424  22.534  0.00  0.00    -0.073 C 
ATOM     96  H24 non d ame     -29.130   9.665  21.537  0.00  0.00     0.028 H 
ATOM     97  H25 non d ame     -29.542  10.333  23.134  0.00  0.00     0.028 H 
ATOM     98  H26 non d ame     -28.829   8.707  23.006  0.00  0.00     0.028 H 
ENDBRANCH  93  95
BRANCH  93  99
ATOM     99  C19 non d ame     -30.961   7.395  23.017  0.00  0.00    -0.073 C 
ATOM    100  H27 non d ame     -31.972   7.165  23.354  0.00  0.00     0.028 H 
ATOM    101  H28 non d ame     -30.659   6.673  22.258  0.00  0.00     0.028 H 
ATOM    102  H29 non d ame     -30.275   7.341  23.862  0.00  0.00     0.028 H 
ENDBRANCH  93  99
ENDBRANCH  90  93
ENDBRANCH   1  90
TORSDOF 26
ENDMDL
MODEL 10
REMARK VINA RESULT:      -6.3      2.972      9.426
REMARK  26 active torsions:
REMARK  status: ('A' for Active; 'I' for Inactive)
REMARK    1  A    between atoms: C2_2  and  C3_3 
REMARK    2  A    between atoms: C4_6  and  C5_7 
REMARK       I    between atoms: C5_7  and  N2_9 
REMARK    3  A    between atoms: N2_9  and  C6_10 
REMARK    4  A    between atoms: C6_10  and  C7_11 
REMARK    5  A    between atoms: C6_10  and  C8_13 
REMARK       I    between atoms: C7_11  and  N3_14 
REMARK    6  A    between atoms: N3_14  and  C9_15 
REMARK    7  A    between atoms: C9_15  and  C10_16 
REMARK    8  A    between atoms: C9_15  and  C11_18 
REMARK       I    between atoms: C10_16  and  N4_21 
REMARK    9  A    between atoms: C11_18  and  C12_19 
REMARK   10  A    between atoms: C11_18  and  C13_20 
REMARK   11  A    between atoms: N4_21  and  C14_22 
REMARK   12  A    between atoms: C14_22  and  C15_23 
REMARK   13  A    between atoms: C14_22  and  C16_25 
REMARK       I    between atoms: C15_23  and  N6_40 
REMARK   14  A    between atoms: C16_25  and  C17_26 
REMARK   15  A    between atoms: C17_26  and  C18_27 
REMARK   16  A    between atoms: C17_26  and  C19_28 
REMARK   17  A    between atoms: C20_29  and  C21_30 
REMARK   18  A    between atoms: C20_29  and  C24_33 
REMARK   19  A    between atoms: C20_29  and  N6_40 
REMARK   20  A    between atoms: C21_30  and  C22_31 
REMARK   21  A    between atoms: C22_31  and  C23_32 
REMARK   22  A    between atoms: C23_32  and  O8_43 
REMARK   23  A    between atoms: C24_33  and  C25_34 
REMARK   24  A    between atoms: C28_38  and  O6_39 
REMARK   25  A    between atoms: C29_42  and  O8_43 
REMARK   26  A    between atoms: C29_42  and  C35_49 
ROOT
ATOM      1  C14 non d ame     -36.031  13.329  26.120  0.00  0.00     0.089 C 
ATOM      2  H20 non d ame     -36.751  13.142  26.918  0.00  0.00     0.087 H 
ENDROOT
BRANCH   1   3
ATOM      3  N4  non d ame     -35.813  14.766  26.054  0.00  0.00    -0.346 N 
ATOM      4  C10 non d ame     -36.895  15.722  26.489  0.00  0.00     0.241 C 
ATOM      5  O4  non d ame     -37.934  15.311  26.888  0.00  0.00    -0.271 OA
ATOM      6  H19 non d ame     -34.923  15.096  25.709  0.00  0.00     0.163 HD
BRANCH   4   7
ATOM      7  C9  non d ame     -36.651  17.206  26.418  0.00  0.00     0.092 C 
ATOM      8  H11 non d ame     -36.906  17.658  27.376  0.00  0.00     0.088 H 
BRANCH   7   9
ATOM      9  N3  non d ame     -35.225  17.457  26.186  0.00  0.00    -0.346 N 
ATOM     10  C7  non d ame     -34.350  17.722  27.302  0.00  0.00     0.240 C 
ATOM     11  O3  non d ame     -34.776  17.738  28.392  0.00  0.00    -0.271 OA
ATOM     12  H10 non d ame     -34.843  17.448  25.251  0.00  0.00     0.163 HD
BRANCH  10  13
ATOM     13  C6  non d ame     -32.834  17.991  27.049  0.00  0.00     0.086 C 
ATOM     14  H6  non d ame     -32.191  17.500  27.779  0.00  0.00     0.086 H 
BRANCH  13  15
ATOM     15  N2  non d ame     -32.470  17.456  25.748  0.00  0.00    -0.343 N 
ATOM     16  C5  non d ame     -31.812  16.150  25.664  0.00  0.00     0.273 C 
ATOM     17  O2  non d ame     -31.578  15.539  26.648  0.00  0.00    -0.266 OA
ATOM     18  H5  non d ame     -32.671  17.985  24.912  0.00  0.00     0.163 HD
BRANCH  16  19
ATOM     19  C4  non d ame     -31.423  15.571  24.294  0.00  0.00     0.154 A 
ATOM     20  C1  non d ame     -31.342  16.273  23.050  0.00  0.00    -0.017 A 
ATOM     21  C2  non d ame     -30.946  15.298  22.108  0.00  0.00     0.077 A 
ATOM     22  H1  non d ame     -31.541  17.328  22.860  0.00  0.00     0.091 H 
ATOM     23  O1  non d ame     -30.814  14.173  22.747  0.00  0.00    -0.218 OA
ATOM     24  N1  non d ame     -31.088  14.307  24.024  0.00  0.00    -0.123 NA
BRANCH  21  25
ATOM     25  C3  non d ame     -30.713  15.524  20.621  0.00  0.00    -0.029 C 
ATOM     26  H2  non d ame     -31.668  15.687  20.123  0.00  0.00     0.036 H 
ATOM     27  H3  non d ame     -30.079  16.400  20.481  0.00  0.00     0.036 H 
ATOM     28  H4  non d ame     -30.224  14.650  20.191  0.00  0.00     0.036 H 
ENDBRANCH  21  25
ENDBRANCH  16  19
ENDBRANCH  13  15
BRANCH  13  29
ATOM     29  C8  non d ame     -32.571  19.475  27.089  0.00  0.00    -0.049 C 
ATOM     30  H7  non d ame     -31.784  19.686  27.813  0.00  0.00     0.030 H 
ATOM     31  H8  non d ame     -32.257  19.816  26.103  0.00  0.00     0.030 H 
ATOM     32  H9  non d ame     -33.483  19.998  27.382  0.00  0.00     0.030 H 
ENDBRANCH  13  29
ENDBRANCH  10  13
ENDBRANCH   7   9
BRANCH   7  33
ATOM     33  C11 non d ame     -37.478  17.812  25.245  0.00  0.00    -0.033 C 
ATOM     34  H12 non d ame     -38.513  17.883  25.576  0.00  0.00     0.042 H 
BRANCH  33  35
ATOM     35  C12 non d ame     -36.996  19.254  24.896  0.00  0.00    -0.071 C 
ATOM     36  H13 non d ame     -37.560  19.978  25.485  0.00  0.00     0.028 H 
ATOM     37  H14 non d ame     -35.935  19.349  25.124  0.00  0.00     0.028 H 
ATOM     38  H15 non d ame     -37.158  19.445  23.835  0.00  0.00     0.028 H 
ENDBRANCH  33  35
BRANCH  33  39
ATOM     39  C13 non d ame     -37.434  16.881  23.991  0.00  0.00    -0.071 C 
ATOM     40  H16 non d ame     -36.422  16.865  23.585  0.00  0.00     0.028 H 
ATOM     41  H17 non d ame     -37.727  15.870  24.278  0.00  0.00     0.028 H 
ATOM     42  H18 non d ame     -38.123  17.256  23.235  0.00  0.00     0.028 H 
ENDBRANCH  33  39
ENDBRANCH   7  33
ENDBRANCH   4   7
ENDBRANCH   1   3
BRANCH   1  43
ATOM     43  C15 non d ame     -34.665  12.633  26.389  0.00  0.00     0.240 C 
ATOM     44  O5  non d ame     -33.691  13.004  25.818  0.00  0.00    -0.271 OA
ATOM     45  N6  non d ame     -34.570  11.511  27.366  0.00  0.00    -0.355 N 
ATOM     46  H46 non d ame     -35.391  11.191  27.860  0.00  0.00     0.162 HD
BRANCH  45  47
ATOM     47  C20 non d ame     -33.264  10.861  27.610  0.00  0.00     0.013 C 
ATOM     48  H30 non d ame     -32.492  11.480  27.154  0.00  0.00     0.072 H 
BRANCH  47  49
ATOM     49  C21 non d ame     -33.264   9.486  26.981  0.00  0.00    -0.038 C 
ATOM     50  H31 non d ame     -34.256   9.362  26.544  0.00  0.00     0.036 H 
ATOM     51  H32 non d ame     -32.380   9.455  26.343  0.00  0.00     0.036 H 
BRANCH  49  52
ATOM     52  C22 non d ame     -33.097   8.353  28.016  0.00  0.00     0.018 C 
ATOM     53  H33 non d ame     -32.171   8.572  28.546  0.00  0.00     0.048 H 
ATOM     54  H34 non d ame     -34.040   8.311  28.561  0.00  0.00     0.048 H 
BRANCH  52  55
ATOM     55  C23 non d ame     -32.906   6.948  27.381  0.00  0.00     0.259 C 
ATOM     56  O7  non d ame     -31.817   6.537  27.143  0.00  0.00    -0.265 OA
BRANCH  55  57
ATOM     57  O8  non d ame     -34.051   6.161  27.073  0.00  0.00    -0.317 OA
BRANCH  57  58
ATOM     58  C29 non d ame     -34.185   4.987  27.879  0.00  0.00     0.052 C 
ATOM     59  H47 non d ame     -34.607   4.226  27.223  0.00  0.00     0.082 H 
ATOM     60  H48 non d ame     -33.210   4.831  28.339  0.00  0.00     0.082 H 
BRANCH  58  61
ATOM     61  C35 non d ame     -35.212   5.292  29.002  0.00  0.00    -0.034 A 
ATOM     62  C30 non d ame     -34.774   5.508  30.306  0.00  0.00    -0.075 A 
ATOM     63  C31 non d ame     -35.697   5.781  31.315  0.00  0.00    -0.082 A 
ATOM     64  H49 non d ame     -33.710   5.461  30.537  0.00  0.00     0.084 H 
ATOM     65  C32 non d ame     -37.061   5.838  31.017  0.00  0.00    -0.083 A 
ATOM     66  H50 non d ame     -35.351   5.952  32.335  0.00  0.00     0.083 H 
ATOM     67  C33 non d ame     -37.492   5.619  29.716  0.00  0.00    -0.082 A 
ATOM     68  H51 non d ame     -37.789   6.053  31.801  0.00  0.00     0.083 H 
ATOM     69  C34 non d ame     -36.574   5.346  28.704  0.00  0.00    -0.075 A 
ATOM     70  H52 non d ame     -38.558   5.661  29.487  0.00  0.00     0.083 H 
ATOM     71  H53 non d ame     -36.921   5.177  27.685  0.00  0.00     0.084 H 
ENDBRANCH  58  61
ENDBRANCH  57  58
ENDBRANCH  55  57
ENDBRANCH  52  55
ENDBRANCH  49  52
ENDBRANCH  47  49
BRANCH  47  72
ATOM     72  C24 non d ame     -33.024  10.735  29.113  0.00  0.00    -0.039 C 
ATOM     73  H35 non d ame     -33.915  10.245  29.508  0.00  0.00     0.036 H 
ATOM     74  H36 non d ame     -32.050  10.256  29.212  0.00  0.00     0.036 H 
BRANCH  72  75
ATOM     75  C25 non d ame     -32.920  12.169  29.819  0.00  0.00    -0.001 C 
ATOM     76  C26 non d ame     -31.928  13.150  28.950  0.00  0.00    -0.035 C 
ATOM     77  C27 non d ame     -31.000  13.681  29.782  0.00  0.00     0.085 C 
ATOM     78  H38 non d ame     -31.336  12.559  28.251  0.00  0.00     0.036 H 
ATOM     79  H39 non d ame     -32.480  14.021  28.595  0.00  0.00     0.036 H 
ATOM     80  N5  non d ame     -31.065  12.898  31.072  0.00  0.00    -0.049 N 
ATOM     81  H40 non d ame     -30.039  13.495  29.302  0.00  0.00     0.075 H 
ATOM     82  H41 non d ame     -31.327  14.702  29.969  0.00  0.00     0.075 H 
ATOM     83  C28 non d ame     -32.447  12.066  31.017  0.00  0.00     0.193 C 
ATOM     84  H42 non d ame     -30.296  12.246  31.050  0.00  0.00     0.280 HD
ATOM     85  H43 non d ame     -31.129  13.580  31.815  0.00  0.00     0.280 HD
ATOM     86  H44 non d ame     -33.311  12.389  31.599  0.00  0.00     0.129 H 
ATOM     87  H37 non d ame     -33.897  12.567  30.092  0.00  0.00     0.046 H 
BRANCH  83  88
ATOM     88  O6  non d ame     -32.219  10.707  31.392  0.00  0.00    -0.369 OA
ATOM     89  H45 non d ame     -31.473  10.359  30.898  0.00  0.00     0.212 HD
ENDBRANCH  83  88
ENDBRANCH  72  75
ENDBRANCH  47  72
ENDBRANCH  45  47
ENDBRANCH   1  43
BRANCH   1  90
ATOM     90  C16 non d ame     -36.596  12.849  24.793  0.00  0.00    -0.035 C 
ATOM     91  H21 non d ame     -37.212  13.670  24.429  0.00  0.00     0.037 H 
ATOM     92  H22 non d ame     -35.734  12.516  24.216  0.00  0.00     0.037 H 
BRANCH  90  93
ATOM     93  C17 non d ame     -37.543  11.614  24.926  0.00  0.00    -0.059 C 
ATOM     94  H23 non d ame     -38.315  11.706  24.162  0.00  0.00     0.038 H 
BRANCH  93  95
ATOM     95  C18 non d ame     -36.791  10.266  24.684  0.00  0.00    -0.073 C 
ATOM     96  H24 non d ame     -36.700   9.726  25.626  0.00  0.00     0.028 H 
ATOM     97  H25 non d ame     -37.351   9.661  23.972  0.00  0.00     0.028 H 
ATOM     98  H26 non d ame     -35.798  10.471  24.285  0.00  0.00     0.028 H 
ENDBRANCH  93  95
BRANCH  93  99
ATOM     99  C19 non d ame     -38.247  11.608  26.286  0.00  0.00    -0.073 C 
ATOM    100  H27 non d ame     -39.209  12.114  26.199  0.00  0.00     0.028 H 
ATOM    101  H28 non d ame     -38.407  10.579  26.609  0.00  0.00     0.028 H 
ATOM    102  H29 non d ame     -37.628  12.126  27.018  0.00  0.00     0.028 H 
ENDBRANCH  93  99
ENDBRANCH  90  93
ENDBRANCH   1  90
TORSDOF 26
ENDMDL
MODEL 11
REMARK VINA RESULT:      -6.3      2.663      6.006
REMARK  26 active torsions:
REMARK  status: ('A' for Active; 'I' for Inactive)
REMARK    1  A    between atoms: C2_2  and  C3_3 
REMARK    2  A    between atoms: C4_6  and  C5_7 
REMARK       I    between atoms: C5_7  and  N2_9 
REMARK    3  A    between atoms: N2_9  and  C6_10 
REMARK    4  A    between atoms: C6_10  and  C7_11 
REMARK    5  A    between atoms: C6_10  and  C8_13 
REMARK       I    between atoms: C7_11  and  N3_14 
REMARK    6  A    between atoms: N3_14  and  C9_15 
REMARK    7  A    between atoms: C9_15  and  C10_16 
REMARK    8  A    between atoms: C9_15  and  C11_18 
REMARK       I    between atoms: C10_16  and  N4_21 
REMARK    9  A    between atoms: C11_18  and  C12_19 
REMARK   10  A    between atoms: C11_18  and  C13_20 
REMARK   11  A    between atoms: N4_21  and  C14_22 
REMARK   12  A    between atoms: C14_22  and  C15_23 
REMARK   13  A    between atoms: C14_22  and  C16_25 
REMARK       I    between atoms: C15_23  and  N6_40 
REMARK   14  A    between atoms: C16_25  and  C17_26 
REMARK   15  A    between atoms: C17_26  and  C18_27 
REMARK   16  A    between atoms: C17_26  and  C19_28 
REMARK   17  A    between atoms: C20_29  and  C21_30 
REMARK   18  A    between atoms: C20_29  and  C24_33 
REMARK   19  A    between atoms: C20_29  and  N6_40 
REMARK   20  A    between atoms: C21_30  and  C22_31 
REMARK   21  A    between atoms: C22_31  and  C23_32 
REMARK   22  A    between atoms: C23_32  and  O8_43 
REMARK   23  A    between atoms: C24_33  and  C25_34 
REMARK   24  A    between atoms: C28_38  and  O6_39 
REMARK   25  A    between atoms: C29_42  and  O8_43 
REMARK   26  A    between atoms: C29_42  and  C35_49 
ROOT
ATOM      1  C14 non d ame     -32.511   9.984  24.639  0.00  0.00     0.089 C 
ATOM      2  H20 non d ame     -32.423   9.005  25.111  0.00  0.00     0.087 H 
ENDROOT
BRANCH   1   3
ATOM      3  N4  non d ame     -33.925  10.329  24.606  0.00  0.00    -0.346 N 
ATOM      4  C10 non d ame     -34.873   9.756  25.627  0.00  0.00     0.241 C 
ATOM      5  O4  non d ame     -34.477   9.017  26.467  0.00  0.00    -0.271 OA
ATOM      6  H19 non d ame     -34.243  10.957  23.881  0.00  0.00     0.163 HD
BRANCH   4   7
ATOM      7  C9  non d ame     -36.333  10.127  25.580  0.00  0.00     0.092 C 
ATOM      8  H11 non d ame     -36.723  10.177  26.596  0.00  0.00     0.088 H 
BRANCH   7   9
ATOM      9  N3  non d ame     -36.479  11.463  24.993  0.00  0.00    -0.346 N 
ATOM     10  C7  non d ame     -36.886  12.572  25.820  0.00  0.00     0.240 C 
ATOM     11  O3  non d ame     -37.101  12.408  26.958  0.00  0.00    -0.271 OA
ATOM     12  H10 non d ame     -36.299  11.618  24.012  0.00  0.00     0.163 HD
BRANCH  10  13
ATOM     13  C6  non d ame     -37.043  13.990  25.189  0.00  0.00     0.086 C 
ATOM     14  H6  non d ame     -37.949  14.499  25.517  0.00  0.00     0.086 H 
BRANCH  13  15
ATOM     15  N2  non d ame     -35.926  14.819  25.608  0.00  0.00    -0.343 N 
ATOM     16  C5  non d ame     -36.099  15.756  26.720  0.00  0.00     0.273 C 
ATOM     17  O2  non d ame     -37.142  15.837  27.270  0.00  0.00    -0.266 OA
ATOM     18  H5  non d ame     -35.038  14.746  25.131  0.00  0.00     0.163 HD
BRANCH  16  19
ATOM     19  C4  non d ame     -34.925  16.638  27.174  0.00  0.00     0.154 A 
ATOM     20  C1  non d ame     -34.217  17.604  26.392  0.00  0.00    -0.017 A 
ATOM     21  C2  non d ame     -33.241  18.133  27.266  0.00  0.00     0.077 A 
ATOM     22  H1  non d ame     -34.386  17.879  25.351  0.00  0.00     0.091 H 
ATOM     23  O1  non d ame     -33.382  17.536  28.412  0.00  0.00    -0.218 OA
ATOM     24  N1  non d ame     -34.358  16.659  28.383  0.00  0.00    -0.123 NA
BRANCH  21  25
ATOM     25  C3  non d ame     -32.215  19.207  26.927  0.00  0.00    -0.029 C 
ATOM     26  H2  non d ame     -32.198  19.367  25.850  0.00  0.00     0.036 H 
ATOM     27  H3  non d ame     -32.485  20.138  27.427  0.00  0.00     0.036 H 
ATOM     28  H4  non d ame     -31.229  18.887  27.263  0.00  0.00     0.036 H 
ENDBRANCH  21  25
ENDBRANCH  16  19
ENDBRANCH  13  15
BRANCH  13  29
ATOM     29  C8  non d ame     -37.066  13.875  23.686  0.00  0.00    -0.049 C 
ATOM     30  H7  non d ame     -38.051  13.539  23.362  0.00  0.00     0.030 H 
ATOM     31  H8  non d ame     -36.851  14.847  23.243  0.00  0.00     0.030 H 
ATOM     32  H9  non d ame     -36.313  13.155  23.365  0.00  0.00     0.030 H 
ENDBRANCH  13  29
ENDBRANCH  10  13
ENDBRANCH   7   9
BRANCH   7  33
ATOM     33  C11 non d ame     -37.102   9.093  24.707  0.00  0.00    -0.033 C 
ATOM     34  H12 non d ame     -37.150   8.160  25.268  0.00  0.00     0.042 H 
BRANCH  33  35
ATOM     35  C12 non d ame     -38.569   9.555  24.440  0.00  0.00    -0.071 C 
ATOM     36  H13 non d ame     -39.073   9.733  25.390  0.00  0.00     0.028 H 
ATOM     37  H14 non d ame     -38.560  10.475  23.856  0.00  0.00     0.028 H 
ATOM     38  H15 non d ame     -39.100   8.779  23.888  0.00  0.00     0.028 H 
ENDBRANCH  33  35
BRANCH  33  39
ATOM     39  C13 non d ame     -36.343   8.815  23.370  0.00  0.00    -0.071 C 
ATOM     40  H16 non d ame     -35.470   9.465  23.306  0.00  0.00     0.028 H 
ATOM     41  H17 non d ame     -36.024   7.772  23.343  0.00  0.00     0.028 H 
ATOM     42  H18 non d ame     -37.006   9.013  22.528  0.00  0.00     0.028 H 
ENDBRANCH  33  39
ENDBRANCH   7  33
ENDBRANCH   4   7
ENDBRANCH   1   3
BRANCH   1  43
ATOM     43  C15 non d ame     -31.751  11.086  25.432  0.00  0.00     0.240 C 
ATOM     44  O5  non d ame     -31.063  10.784  26.353  0.00  0.00    -0.271 OA
ATOM     45  N6  non d ame     -31.874  12.519  25.037  0.00  0.00    -0.355 N 
ATOM     46  H46 non d ame     -32.452  12.787  24.253  0.00  0.00     0.162 HD
BRANCH  45  47
ATOM     47  C20 non d ame     -31.144  13.554  25.801  0.00  0.00     0.013 C 
ATOM     48  H30 non d ame     -30.349  13.060  26.359  0.00  0.00     0.072 H 
BRANCH  47  49
ATOM     49  C21 non d ame     -32.098  14.237  26.754  0.00  0.00    -0.038 C 
ATOM     50  H31 non d ame     -32.216  15.253  26.375  0.00  0.00     0.036 H 
ATOM     51  H32 non d ame     -32.963  13.578  26.827  0.00  0.00     0.036 H 
BRANCH  49  52
ATOM     52  C22 non d ame     -31.526  14.368  28.183  0.00  0.00     0.018 C 
ATOM     53  H33 non d ame     -30.520  14.767  28.063  0.00  0.00     0.048 H 
ATOM     54  H34 non d ame     -32.272  14.927  28.748  0.00  0.00     0.048 H 
BRANCH  52  55
ATOM     55  C23 non d ame     -31.363  13.009  28.918  0.00  0.00     0.259 C 
ATOM     56  O7  non d ame     -30.283  12.540  29.085  0.00  0.00    -0.265 OA
BRANCH  55  57
ATOM     57  O8  non d ame     -32.521  12.321  29.378  0.00  0.00    -0.317 OA
BRANCH  57  58
ATOM     58  C29 non d ame     -32.249  11.035  29.942  0.00  0.00     0.052 C 
ATOM     59  H47 non d ame     -32.025  10.384  29.097  0.00  0.00     0.082 H 
ATOM     60  H48 non d ame     -31.501  11.204  30.715  0.00  0.00     0.082 H 
BRANCH  58  61
ATOM     61  C35 non d ame     -33.549  10.527  30.622  0.00  0.00    -0.034 A 
ATOM     62  C30 non d ame     -34.240   9.447  30.082  0.00  0.00    -0.075 A 
ATOM     63  C31 non d ame     -35.408   8.991  30.692  0.00  0.00    -0.082 A 
ATOM     64  H49 non d ame     -33.869   8.958  29.181  0.00  0.00     0.084 H 
ATOM     65  C32 non d ame     -35.885   9.620  31.845  0.00  0.00    -0.083 A 
ATOM     66  H50 non d ame     -35.947   8.142  30.268  0.00  0.00     0.083 H 
ATOM     67  C33 non d ame     -35.193  10.699  32.377  0.00  0.00    -0.082 A 
ATOM     68  H51 non d ame     -36.797   9.268  32.329  0.00  0.00     0.083 H 
ATOM     69  C34 non d ame     -34.025  11.158  31.772  0.00  0.00    -0.075 A 
ATOM     70  H52 non d ame     -35.570  11.190  33.276  0.00  0.00     0.083 H 
ATOM     71  H53 non d ame     -33.487  12.005  32.197  0.00  0.00     0.084 H 
ENDBRANCH  58  61
ENDBRANCH  57  58
ENDBRANCH  55  57
ENDBRANCH  52  55
ENDBRANCH  49  52
ENDBRANCH  47  49
BRANCH  47  72
ATOM     72  C24 non d ame     -30.556  14.585  24.840  0.00  0.00    -0.039 C 
ATOM     73  H35 non d ame     -30.905  15.552  25.204  0.00  0.00     0.036 H 
ATOM     74  H36 non d ame     -29.488  14.371  24.802  0.00  0.00     0.036 H 
BRANCH  72  75
ATOM     75  C25 non d ame     -31.128  14.405  23.354  0.00  0.00    -0.001 C 
ATOM     76  C26 non d ame     -29.893  14.093  22.314  0.00  0.00    -0.035 C 
ATOM     77  C27 non d ame     -29.976  14.951  21.268  0.00  0.00     0.085 C 
ATOM     78  H38 non d ame     -28.940  14.347  22.777  0.00  0.00     0.036 H 
ATOM     79  H39 non d ame     -30.031  13.115  21.852  0.00  0.00     0.036 H 
ATOM     80  N5  non d ame     -30.956  16.031  21.660  0.00  0.00    -0.049 N 
ATOM     81  H40 non d ame     -28.982  15.389  21.173  0.00  0.00     0.075 H 
ATOM     82  H41 non d ame     -30.396  14.370  20.448  0.00  0.00     0.075 H 
ATOM     83  C28 non d ame     -31.739  15.471  22.956  0.00  0.00     0.193 C 
ATOM     84  H42 non d ame     -30.405  16.829  21.938  0.00  0.00     0.280 HD
ATOM     85  H43 non d ame     -31.612  16.110  20.897  0.00  0.00     0.280 HD
ATOM     86  H44 non d ame     -32.758  15.092  22.866  0.00  0.00     0.129 H 
ATOM     87  H37 non d ame     -31.986  13.734  23.321  0.00  0.00     0.046 H 
BRANCH  83  88
ATOM     88  O6  non d ame     -31.791  16.474  23.972  0.00  0.00    -0.369 OA
ATOM     89  H45 non d ame     -32.698  16.769  24.084  0.00  0.00     0.212 HD
ENDBRANCH  83  88
ENDBRANCH  72  75
ENDBRANCH  47  72
ENDBRANCH  45  47
ENDBRANCH   1  43
BRANCH   1  90
ATOM     90  C16 non d ame     -31.981   9.920  23.216  0.00  0.00    -0.035 C 
ATOM     91  H21 non d ame     -32.581   9.161  22.718  0.00  0.00     0.037 H 
ATOM     92  H22 non d ame     -31.994  10.950  22.857  0.00  0.00     0.037 H 
BRANCH  90  93
ATOM     93  C17 non d ame     -30.497   9.440  23.123  0.00  0.00    -0.059 C 
ATOM     94  H23 non d ame     -30.113   9.353  24.139  0.00  0.00     0.038 H 
BRANCH  93  95
ATOM     95  C18 non d ame     -30.373   8.037  22.446  0.00  0.00    -0.073 C 
ATOM     96  H24 non d ame     -29.324   7.744  22.406  0.00  0.00     0.028 H 
ATOM     97  H25 non d ame     -30.932   7.303  23.027  0.00  0.00     0.028 H 
ATOM     98  H26 non d ame     -30.777   8.085  21.435  0.00  0.00     0.028 H 
ENDBRANCH  93  95
BRANCH  93  99
ATOM     99  C19 non d ame     -29.632  10.473  22.396  0.00  0.00    -0.073 C 
ATOM    100  H27 non d ame     -28.887   9.959  21.787  0.00  0.00     0.028 H 
ATOM    101  H28 non d ame     -30.262  11.089  21.754  0.00  0.00     0.028 H 
ATOM    102  H29 non d ame     -29.131  11.106  23.127  0.00  0.00     0.028 H 
ENDBRANCH  93  99
ENDBRANCH  90  93
ENDBRANCH   1  90
TORSDOF 26
ENDMDL
MODEL 12
REMARK VINA RESULT:      -6.3      2.072      2.882
REMARK  26 active torsions:
REMARK  status: ('A' for Active; 'I' for Inactive)
REMARK    1  A    between atoms: C2_2  and  C3_3 
REMARK    2  A    between atoms: C4_6  and  C5_7 
REMARK       I    between atoms: C5_7  and  N2_9 
REMARK    3  A    between atoms: N2_9  and  C6_10 
REMARK    4  A    between atoms: C6_10  and  C7_11 
REMARK    5  A    between atoms: C6_10  and  C8_13 
REMARK       I    between atoms: C7_11  and  N3_14 
REMARK    6  A    between atoms: N3_14  and  C9_15 
REMARK    7  A    between atoms: C9_15  and  C10_16 
REMARK    8  A    between atoms: C9_15  and  C11_18 
REMARK       I    between atoms: C10_16  and  N4_21 
REMARK    9  A    between atoms: C11_18  and  C12_19 
REMARK   10  A    between atoms: C11_18  and  C13_20 
REMARK   11  A    between atoms: N4_21  and  C14_22 
REMARK   12  A    between atoms: C14_22  and  C15_23 
REMARK   13  A    between atoms: C14_22  and  C16_25 
REMARK       I    between atoms: C15_23  and  N6_40 
REMARK   14  A    between atoms: C16_25  and  C17_26 
REMARK   15  A    between atoms: C17_26  and  C18_27 
REMARK   16  A    between atoms: C17_26  and  C19_28 
REMARK   17  A    between atoms: C20_29  and  C21_30 
REMARK   18  A    between atoms: C20_29  and  C24_33 
REMARK   19  A    between atoms: C20_29  and  N6_40 
REMARK   20  A    between atoms: C21_30  and  C22_31 
REMARK   21  A    between atoms: C22_31  and  C23_32 
REMARK   22  A    between atoms: C23_32  and  O8_43 
REMARK   23  A    between atoms: C24_33  and  C25_34 
REMARK   24  A    between atoms: C28_38  and  O6_39 
REMARK   25  A    between atoms: C29_42  and  O8_43 
REMARK   26  A    between atoms: C29_42  and  C35_49 
ROOT
ATOM      1  C14 non d ame     -32.831  10.167  26.842  0.00  0.00     0.089 C 
ATOM      2  H20 non d ame     -33.872  10.153  26.518  0.00  0.00     0.087 H 
ENDROOT
BRANCH   1   3
ATOM      3  N4  non d ame     -32.110   9.187  26.043  0.00  0.00    -0.346 N 
ATOM      4  C10 non d ame     -32.288   9.145  24.547  0.00  0.00     0.241 C 
ATOM      5  O4  non d ame     -33.019   9.909  24.007  0.00  0.00    -0.271 OA
ATOM      6  H19 non d ame     -31.496   8.544  26.521  0.00  0.00     0.163 HD
BRANCH   4   7
ATOM      7  C9  non d ame     -31.531   8.127  23.734  0.00  0.00     0.092 C 
ATOM      8  H11 non d ame     -30.585   7.908  24.227  0.00  0.00     0.088 H 
BRANCH   7   9
ATOM      9  N3  non d ame     -32.294   6.876  23.684  0.00  0.00    -0.346 N 
ATOM     10  C7  non d ame     -32.193   5.927  24.764  0.00  0.00     0.240 C 
ATOM     11  O3  non d ame     -31.503   6.153  25.682  0.00  0.00    -0.271 OA
ATOM     12  H10 non d ame     -32.892   6.667  22.897  0.00  0.00     0.163 HD
BRANCH  10  13
ATOM     13  C6  non d ame     -33.005   4.596  24.704  0.00  0.00     0.086 C 
ATOM     14  H6  non d ame     -32.477   3.759  25.160  0.00  0.00     0.086 H 
BRANCH  13  15
ATOM     15  N2  non d ame     -34.242   4.763  25.448  0.00  0.00    -0.343 N 
ATOM     16  C5  non d ame     -34.296   4.365  26.856  0.00  0.00     0.273 C 
ATOM     17  O2  non d ame     -33.340   3.909  27.381  0.00  0.00    -0.266 OA
ATOM     18  H5  non d ame     -35.055   5.151  24.991  0.00  0.00     0.163 HD
BRANCH  16  19
ATOM     19  C4  non d ame     -35.597   4.537  27.656  0.00  0.00     0.154 A 
ATOM     20  C1  non d ame     -35.826   5.425  28.754  0.00  0.00    -0.017 A 
ATOM     21  C2  non d ame     -37.169   5.199  29.129  0.00  0.00     0.077 A 
ATOM     22  H1  non d ame     -35.126   6.125  29.209  0.00  0.00     0.091 H 
ATOM     23  O1  non d ame     -37.647   4.289  28.332  0.00  0.00    -0.218 OA
ATOM     24  N1  non d ame     -36.748   3.887  27.464  0.00  0.00    -0.123 NA
BRANCH  21  25
ATOM     25  C3  non d ame     -37.920   5.895  30.257  0.00  0.00    -0.029 C 
ATOM     26  H2  non d ame     -37.903   6.972  30.094  0.00  0.00     0.036 H 
ATOM     27  H3  non d ame     -38.953   5.548  30.274  0.00  0.00     0.036 H 
ATOM     28  H4  non d ame     -37.443   5.664  31.209  0.00  0.00     0.036 H 
ENDBRANCH  21  25
ENDBRANCH  16  19
ENDBRANCH  13  15
BRANCH  13  29
ATOM     29  C8  non d ame     -33.309   4.254  23.267  0.00  0.00    -0.049 C 
ATOM     30  H7  non d ame     -33.939   3.367  23.229  0.00  0.00     0.030 H 
ATOM     31  H8  non d ame     -33.829   5.089  22.797  0.00  0.00     0.030 H 
ATOM     32  H9  non d ame     -32.376   4.061  22.735  0.00  0.00     0.030 H 
ENDBRANCH  13  29
ENDBRANCH  10  13
ENDBRANCH   7   9
BRANCH   7  33
ATOM     33  C11 non d ame     -31.328   8.667  22.287  0.00  0.00    -0.033 C 
ATOM     34  H12 non d ame     -31.920   9.577  22.190  0.00  0.00     0.042 H 
BRANCH  33  35
ATOM     35  C12 non d ame     -29.837   9.046  22.027  0.00  0.00    -0.071 C 
ATOM     36  H13 non d ame     -29.638  10.037  22.435  0.00  0.00     0.028 H 
ATOM     37  H14 non d ame     -29.187   8.317  22.509  0.00  0.00     0.028 H 
ATOM     38  H15 non d ame     -29.646   9.051  20.954  0.00  0.00     0.028 H 
ENDBRANCH  33  35
BRANCH  33  39
ATOM     39  C13 non d ame     -31.845   7.639  21.230  0.00  0.00    -0.071 C 
ATOM     40  H16 non d ame     -32.754   7.164  21.599  0.00  0.00     0.028 H 
ATOM     41  H17 non d ame     -32.058   8.156  20.294  0.00  0.00     0.028 H 
ATOM     42  H18 non d ame     -31.083   6.880  21.058  0.00  0.00     0.028 H 
ENDBRANCH  33  39
ENDBRANCH   7  33
ENDBRANCH   4   7
ENDBRANCH   1   3
BRANCH   1  43
ATOM     43  C15 non d ame     -32.170  11.560  26.632  0.00  0.00     0.240 C 
ATOM     44  O5  non d ame     -31.127  11.803  27.147  0.00  0.00    -0.271 OA
ATOM     45  N6  non d ame     -32.833  12.588  25.780  0.00  0.00    -0.355 N 
ATOM     46  H46 non d ame     -33.717  12.391  25.333  0.00  0.00     0.162 HD
BRANCH  45  47
ATOM     47  C20 non d ame     -32.191  13.907  25.589  0.00  0.00     0.013 C 
ATOM     48  H30 non d ame     -32.028  14.344  26.574  0.00  0.00     0.072 H 
BRANCH  47  49
ATOM     49  C21 non d ame     -33.103  14.794  24.773  0.00  0.00    -0.038 C 
ATOM     50  H31 non d ame     -32.455  15.309  24.064  0.00  0.00     0.036 H 
ATOM     51  H32 non d ame     -33.899  14.143  24.410  0.00  0.00     0.036 H 
BRANCH  49  52
ATOM     52  C22 non d ame     -33.787  15.890  25.618  0.00  0.00     0.018 C 
ATOM     53  H33 non d ame     -34.308  16.529  24.907  0.00  0.00     0.048 H 
ATOM     54  H34 non d ame     -34.348  15.361  26.389  0.00  0.00     0.048 H 
BRANCH  52  55
ATOM     55  C23 non d ame     -32.789  16.813  26.372  0.00  0.00     0.259 C 
ATOM     56  O7  non d ame     -32.130  17.602  25.776  0.00  0.00    -0.265 OA
BRANCH  55  57
ATOM     57  O8  non d ame     -32.661  16.694  27.784  0.00  0.00    -0.317 OA
BRANCH  57  58
ATOM     58  C29 non d ame     -33.565  15.756  28.375  0.00  0.00     0.052 C 
ATOM     59  H47 non d ame     -34.152  16.325  29.095  0.00  0.00     0.082 H 
ATOM     60  H48 non d ame     -34.058  15.256  27.542  0.00  0.00     0.082 H 
BRANCH  58  61
ATOM     61  C35 non d ame     -32.724  14.704  29.148  0.00  0.00    -0.034 A 
ATOM     62  C30 non d ame     -31.392  14.965  29.452  0.00  0.00    -0.075 A 
ATOM     63  C31 non d ame     -30.637  14.020  30.146  0.00  0.00    -0.082 A 
ATOM     64  H49 non d ame     -30.939  15.908  29.148  0.00  0.00     0.084 H 
ATOM     65  C32 non d ame     -31.218  12.810  30.534  0.00  0.00    -0.083 A 
ATOM     66  H50 non d ame     -29.593  14.229  30.385  0.00  0.00     0.083 H 
ATOM     67  C33 non d ame     -32.547  12.553  30.224  0.00  0.00    -0.082 A 
ATOM     68  H51 non d ame     -30.635  12.066  31.077  0.00  0.00     0.083 H 
ATOM     69  C34 non d ame     -33.305  13.494  29.532  0.00  0.00    -0.075 A 
ATOM     70  H52 non d ame     -32.997  11.606  30.525  0.00  0.00     0.083 H 
ATOM     71  H53 non d ame     -34.349  13.286  29.294  0.00  0.00     0.084 H 
ENDBRANCH  58  61
ENDBRANCH  57  58
ENDBRANCH  55  57
ENDBRANCH  52  55
ENDBRANCH  49  52
ENDBRANCH  47  49
BRANCH  47  72
ATOM     72  C24 non d ame     -30.861  13.732  24.860  0.00  0.00    -0.039 C 
ATOM     73  H35 non d ame     -30.138  14.315  25.433  0.00  0.00     0.036 H 
ATOM     74  H36 non d ame     -30.728  12.656  24.751  0.00  0.00     0.036 H 
BRANCH  72  75
ATOM     75  C25 non d ame     -30.907  14.355  23.385  0.00  0.00    -0.001 C 
ATOM     76  C26 non d ame     -30.096  13.380  22.340  0.00  0.00    -0.035 C 
ATOM     77  C27 non d ame     -29.203  14.127  21.647  0.00  0.00     0.085 C 
ATOM     78  H38 non d ame     -29.468  12.680  22.891  0.00  0.00     0.036 H 
ATOM     79  H39 non d ame     -30.773  13.012  21.568  0.00  0.00     0.036 H 
ATOM     80  N5  non d ame     -29.102  15.459  22.353  0.00  0.00    -0.049 N 
ATOM     81  H40 non d ame     -28.252  13.603  21.737  0.00  0.00     0.075 H 
ATOM     82  H41 non d ame     -29.651  14.279  20.666  0.00  0.00     0.075 H 
ATOM     83  C28 non d ame     -30.365  15.527  23.356  0.00  0.00     0.193 C 
ATOM     84  H42 non d ame     -28.256  15.426  22.903  0.00  0.00     0.280 HD
ATOM     85  H43 non d ame     -29.216  16.167  21.642  0.00  0.00     0.280 HD
ATOM     86  H44 non d ame     -31.233  16.140  23.110  0.00  0.00     0.129 H 
ATOM     87  H37 non d ame     -31.913  14.662  23.098  0.00  0.00     0.046 H 
BRANCH  83  88
ATOM     88  O6  non d ame     -29.944  15.959  24.650  0.00  0.00    -0.369 OA
ATOM     89  H45 non d ame     -30.301  16.834  24.828  0.00  0.00     0.212 HD
ENDBRANCH  83  88
ENDBRANCH  72  75
ENDBRANCH  47  72
ENDBRANCH  45  47
ENDBRANCH   1  43
BRANCH   1  90
ATOM     90  C16 non d ame     -32.742   9.775  28.308  0.00  0.00    -0.035 C 
ATOM     91  H21 non d ame     -32.115   8.886  28.331  0.00  0.00     0.037 H 
ATOM     92  H22 non d ame     -32.427  10.679  28.829  0.00  0.00     0.037 H 
BRANCH  90  93
ATOM     93  C17 non d ame     -34.114   9.363  28.930  0.00  0.00    -0.059 C 
ATOM     94  H23 non d ame     -34.347   8.358  28.578  0.00  0.00     0.038 H 
BRANCH  93  95
ATOM     95  C18 non d ame     -34.066   9.320  30.490  0.00  0.00    -0.073 C 
ATOM     96  H24 non d ame     -33.695   8.349  30.817  0.00  0.00     0.028 H 
ATOM     97  H25 non d ame     -33.400  10.103  30.854  0.00  0.00     0.028 H 
ATOM     98  H26 non d ame     -35.067   9.480  30.890  0.00  0.00     0.028 H 
ENDBRANCH  93  95
BRANCH  93  99
ATOM     99  C19 non d ame     -35.235  10.287  28.445  0.00  0.00    -0.073 C 
ATOM    100  H27 non d ame     -35.999   9.696  27.939  0.00  0.00     0.028 H 
ATOM    101  H28 non d ame     -35.679  10.799  29.298  0.00  0.00     0.028 H 
ATOM    102  H29 non d ame     -34.825  11.021  27.752  0.00  0.00     0.028 H 
ENDBRANCH  93  99
ENDBRANCH  90  93
ENDBRANCH   1  90
TORSDOF 26
ENDMDL
MODEL 13
REMARK VINA RESULT:      -6.3      1.996      9.514
REMARK  26 active torsions:
REMARK  status: ('A' for Active; 'I' for Inactive)
REMARK    1  A    between atoms: C2_2  and  C3_3 
REMARK    2  A    between atoms: C4_6  and  C5_7 
REMARK       I    between atoms: C5_7  and  N2_9 
REMARK    3  A    between atoms: N2_9  and  C6_10 
REMARK    4  A    between atoms: C6_10  and  C7_11 
REMARK    5  A    between atoms: C6_10  and  C8_13 
REMARK       I    between atoms: C7_11  and  N3_14 
REMARK    6  A    between atoms: N3_14  and  C9_15 
REMARK    7  A    between atoms: C9_15  and  C10_16 
REMARK    8  A    between atoms: C9_15  and  C11_18 
REMARK       I    between atoms: C10_16  and  N4_21 
REMARK    9  A    between atoms: C11_18  and  C12_19 
REMARK   10  A    between atoms: C11_18  and  C13_20 
REMARK   11  A    between atoms: N4_21  and  C14_22 
REMARK   12  A    between atoms: C14_22  and  C15_23 
REMARK   13  A    between atoms: C14_22  and  C16_25 
REMARK       I    between atoms: C15_23  and  N6_40 
REMARK   14  A    between atoms: C16_25  and  C17_26 
REMARK   15  A    between atoms: C17_26  and  C18_27 
REMARK   16  A    between atoms: C17_26  and  C19_28 
REMARK   17  A    between atoms: C20_29  and  C21_30 
REMARK   18  A    between atoms: C20_29  and  C24_33 
REMARK   19  A    between atoms: C20_29  and  N6_40 
REMARK   20  A    between atoms: C21_30  and  C22_31 
REMARK   21  A    between atoms: C22_31  and  C23_32 
REMARK   22  A    between atoms: C23_32  and  O8_43 
REMARK   23  A    between atoms: C24_33  and  C25_34 
REMARK   24  A    between atoms: C28_38  and  O6_39 
REMARK   25  A    between atoms: C29_42  and  O8_43 
REMARK   26  A    between atoms: C29_42  and  C35_49 
ROOT
ATOM      1  C14 non d ame     -33.121  10.170  29.835  0.00  0.00     0.089 C 
ATOM      2  H20 non d ame     -32.161   9.719  29.583  0.00  0.00     0.087 H 
ENDROOT
BRANCH   1   3
ATOM      3  N4  non d ame     -33.774  10.536  28.587  0.00  0.00    -0.346 N 
ATOM      4  C10 non d ame     -33.099  10.266  27.266  0.00  0.00     0.241 C 
ATOM      5  O4  non d ame     -32.028   9.756  27.232  0.00  0.00    -0.271 OA
ATOM      6  H19 non d ame     -34.684  10.972  28.637  0.00  0.00     0.163 HD
BRANCH   4   7
ATOM      7  C9  non d ame     -33.792  10.647  25.984  0.00  0.00     0.092 C 
ATOM      8  H11 non d ame     -34.869  10.644  26.144  0.00  0.00     0.088 H 
BRANCH   7   9
ATOM      9  N3  non d ame     -33.412  12.013  25.610  0.00  0.00    -0.346 N 
ATOM     10  C7  non d ame     -34.103  13.137  26.191  0.00  0.00     0.240 C 
ATOM     11  O3  non d ame     -34.967  12.961  26.961  0.00  0.00    -0.271 OA
ATOM     12  H10 non d ame     -32.670  12.180  24.946  0.00  0.00     0.163 HD
BRANCH  10  13
ATOM     13  C6  non d ame     -33.697  14.588  25.787  0.00  0.00     0.086 C 
ATOM     14  H6  non d ame     -32.971  15.029  26.470  0.00  0.00     0.086 H 
BRANCH  13  15
ATOM     15  N2  non d ame     -33.069  14.555  24.477  0.00  0.00    -0.343 N 
ATOM     16  C5  non d ame     -31.675  14.979  24.334  0.00  0.00     0.273 C 
ATOM     17  O2  non d ame     -31.067  15.348  25.279  0.00  0.00    -0.266 OA
ATOM     18  H5  non d ame     -33.596  14.241  23.675  0.00  0.00     0.163 HD
BRANCH  16  19
ATOM     19  C4  non d ame     -30.998  14.948  22.955  0.00  0.00     0.154 A 
ATOM     20  C1  non d ame     -31.307  15.765  21.822  0.00  0.00    -0.017 A 
ATOM     21  C2  non d ame     -30.407  15.347  20.816  0.00  0.00     0.077 A 
ATOM     22  H1  non d ame     -32.067  16.543  21.742  0.00  0.00     0.091 H 
ATOM     23  O1  non d ame     -29.672  14.401  21.323  0.00  0.00    -0.218 OA
ATOM     24  N1  non d ame     -29.998  14.151  22.570  0.00  0.00    -0.123 NA
BRANCH  21  25
ATOM     25  C3  non d ame     -30.315  15.902  19.401  0.00  0.00    -0.029 C 
ATOM     26  H2  non d ame     -30.536  15.111  18.685  0.00  0.00     0.036 H 
ATOM     27  H3  non d ame     -31.036  16.711  19.280  0.00  0.00     0.036 H 
ATOM     28  H4  non d ame     -29.309  16.282  19.224  0.00  0.00     0.036 H 
ENDBRANCH  21  25
ENDBRANCH  16  19
ENDBRANCH  13  15
BRANCH  13  29
ATOM     29  C8  non d ame     -34.923  15.464  25.750  0.00  0.00    -0.049 C 
ATOM     30  H7  non d ame     -35.034  15.894  24.755  0.00  0.00     0.030 H 
ATOM     31  H8  non d ame     -35.804  14.868  25.988  0.00  0.00     0.030 H 
ATOM     32  H9  non d ame     -34.819  16.266  26.483  0.00  0.00     0.030 H 
ENDBRANCH  13  29
ENDBRANCH  10  13
ENDBRANCH   7   9
BRANCH   7  33
ATOM     33  C11 non d ame     -33.364   9.665  24.853  0.00  0.00    -0.033 C 
ATOM     34  H12 non d ame     -33.010   8.751  25.328  0.00  0.00     0.042 H 
BRANCH  33  35
ATOM     35  C12 non d ame     -34.575   9.283  23.946  0.00  0.00    -0.071 C 
ATOM     36  H13 non d ame     -35.416   8.982  24.570  0.00  0.00     0.028 H 
ATOM     37  H14 non d ame     -34.861  10.142  23.340  0.00  0.00     0.028 H 
ATOM     38  H15 non d ame     -34.294   8.456  23.294  0.00  0.00     0.028 H 
ENDBRANCH  33  35
BRANCH  33  39
ATOM     39  C13 non d ame     -32.190  10.259  24.011  0.00  0.00    -0.071 C 
ATOM     40  H16 non d ame     -31.322  10.409  24.654  0.00  0.00     0.028 H 
ATOM     41  H17 non d ame     -31.933   9.568  23.207  0.00  0.00     0.028 H 
ATOM     42  H18 non d ame     -32.495  11.214  23.584  0.00  0.00     0.028 H 
ENDBRANCH  33  39
ENDBRANCH   7  33
ENDBRANCH   4   7
ENDBRANCH   1   3
BRANCH   1  43
ATOM     43  C15 non d ame     -34.046   9.187  30.609  0.00  0.00     0.240 C 
ATOM     44  O5  non d ame     -34.443   9.477  31.691  0.00  0.00    -0.271 OA
ATOM     45  N6  non d ame     -34.445   7.888  29.997  0.00  0.00    -0.355 N 
ATOM     46  H46 non d ame     -34.118   7.633  29.076  0.00  0.00     0.162 HD
BRANCH  45  47
ATOM     47  C20 non d ame     -35.326   6.965  30.745  0.00  0.00     0.013 C 
ATOM     48  H30 non d ame     -35.176   7.149  31.809  0.00  0.00     0.072 H 
BRANCH  47  49
ATOM     49  C21 non d ame     -34.956   5.538  30.409  0.00  0.00    -0.038 C 
ATOM     50  H31 non d ame     -34.122   5.288  31.065  0.00  0.00     0.036 H 
ATOM     51  H32 non d ame     -35.886   4.972  30.470  0.00  0.00     0.036 H 
BRANCH  49  52
ATOM     52  C22 non d ame     -34.440   5.377  28.963  0.00  0.00     0.018 C 
ATOM     53  H33 non d ame     -35.160   4.732  28.463  0.00  0.00     0.048 H 
ATOM     54  H34 non d ame     -34.268   6.390  28.597  0.00  0.00     0.048 H 
BRANCH  52  55
ATOM     55  C23 non d ame     -33.071   4.649  28.864  0.00  0.00     0.259 C 
ATOM     56  O7  non d ame     -32.756   3.845  29.681  0.00  0.00    -0.265 OA
BRANCH  55  57
ATOM     57  O8  non d ame     -32.190   4.963  27.793  0.00  0.00    -0.317 OA
BRANCH  57  58
ATOM     58  C29 non d ame     -32.361   6.282  27.265  0.00  0.00     0.052 C 
ATOM     59  H47 non d ame     -33.304   6.643  27.673  0.00  0.00     0.082 H 
ATOM     60  H48 non d ame     -31.434   6.811  27.485  0.00  0.00     0.082 H 
BRANCH  58  61
ATOM     61  C35 non d ame     -32.505   6.166  25.724  0.00  0.00    -0.034 A 
ATOM     62  C30 non d ame     -33.691   5.695  25.169  0.00  0.00    -0.075 A 
ATOM     63  C31 non d ame     -33.820   5.590  23.785  0.00  0.00    -0.082 A 
ATOM     64  H49 non d ame     -34.519   5.408  25.818  0.00  0.00     0.084 H 
ATOM     65  C32 non d ame     -32.758   5.956  22.955  0.00  0.00    -0.083 A 
ATOM     66  H50 non d ame     -34.753   5.223  23.353  0.00  0.00     0.083 H 
ATOM     67  C33 non d ame     -31.575   6.421  23.513  0.00  0.00    -0.082 A 
ATOM     68  H51 non d ame     -32.851   5.878  21.871  0.00  0.00     0.083 H 
ATOM     69  C34 non d ame     -31.442   6.529  24.896  0.00  0.00    -0.075 A 
ATOM     70  H52 non d ame     -30.746   6.703  22.863  0.00  0.00     0.083 H 
ATOM     71  H53 non d ame     -30.510   6.897  25.327  0.00  0.00     0.084 H 
ENDBRANCH  58  61
ENDBRANCH  57  58
ENDBRANCH  55  57
ENDBRANCH  52  55
ENDBRANCH  49  52
ENDBRANCH  47  49
BRANCH  47  72
ATOM     72  C24 non d ame     -36.783   7.219  30.363  0.00  0.00    -0.039 C 
ATOM     73  H35 non d ame     -37.196   6.237  30.129  0.00  0.00     0.036 H 
ATOM     74  H36 non d ame     -37.200   7.804  31.183  0.00  0.00     0.036 H 
BRANCH  72  75
ATOM     75  C25 non d ame     -36.902   8.110  29.037  0.00  0.00    -0.001 C 
ATOM     76  C26 non d ame     -37.586   9.560  29.397  0.00  0.00    -0.035 C 
ATOM     77  C27 non d ame     -38.618   9.780  28.547  0.00  0.00     0.085 C 
ATOM     78  H38 non d ame     -38.067   9.516  30.374  0.00  0.00     0.036 H 
ATOM     79  H39 non d ame     -36.892  10.369  29.169  0.00  0.00     0.036 H 
ATOM     80  N5  non d ame     -38.906   8.469  27.855  0.00  0.00    -0.049 N 
ATOM     81  H40 non d ame     -39.466  10.042  29.180  0.00  0.00     0.075 H 
ATOM     82  H41 non d ame     -38.244  10.493  27.814  0.00  0.00     0.075 H 
ATOM     83  C28 non d ame     -37.629   7.524  28.145  0.00  0.00     0.193 C 
ATOM     84  H42 non d ame     -39.710   8.072  28.318  0.00  0.00     0.280 HD
ATOM     85  H43 non d ame     -38.940   8.670  26.866  0.00  0.00     0.280 HD
ATOM     86  H44 non d ame     -36.884   7.347  27.368  0.00  0.00     0.129 H 
ATOM     87  H37 non d ame     -35.973   8.127  28.467  0.00  0.00     0.046 H 
BRANCH  83  88
ATOM     88  O6  non d ame     -38.059   6.228  28.565  0.00  0.00    -0.369 OA
ATOM     89  H45 non d ame     -38.196   6.229  29.516  0.00  0.00     0.212 HD
ENDBRANCH  83  88
ENDBRANCH  72  75
ENDBRANCH  47  72
ENDBRANCH  45  47
ENDBRANCH   1  43
BRANCH   1  90
ATOM     90  C16 non d ame     -32.899  11.424  30.666  0.00  0.00    -0.035 C 
ATOM     91  H21 non d ame     -33.860  11.935  30.678  0.00  0.00     0.037 H 
ATOM     92  H22 non d ame     -32.453  11.076  31.598  0.00  0.00     0.037 H 
BRANCH  90  93
ATOM     93  C17 non d ame     -31.877  12.421  30.032  0.00  0.00    -0.059 C 
ATOM     94  H23 non d ame     -31.422  11.927  29.174  0.00  0.00     0.038 H 
BRANCH  93  95
ATOM     95  C18 non d ame     -32.567  13.725  29.519  0.00  0.00    -0.073 C 
ATOM     96  H24 non d ame     -31.888  14.259  28.854  0.00  0.00     0.028 H 
ATOM     97  H25 non d ame     -33.476  13.466  28.977  0.00  0.00     0.028 H 
ATOM     98  H26 non d ame     -32.819  14.361  30.368  0.00  0.00     0.028 H 
ENDBRANCH  93  95
BRANCH  93  99
ATOM     99  C19 non d ame     -30.753  12.752  31.017  0.00  0.00    -0.073 C 
ATOM    100  H27 non d ame     -30.322  11.826  31.401  0.00  0.00     0.028 H 
ATOM    101  H28 non d ame     -29.979  13.327  30.508  0.00  0.00     0.028 H 
ATOM    102  H29 non d ame     -31.154  13.336  31.845  0.00  0.00     0.028 H 
ENDBRANCH  93  99
ENDBRANCH  90  93
ENDBRANCH   1  90
TORSDOF 26
ENDMDL
MODEL 14
REMARK VINA RESULT:      -6.2      3.132      9.465
REMARK  26 active torsions:
REMARK  status: ('A' for Active; 'I' for Inactive)
REMARK    1  A    between atoms: C2_2  and  C3_3 
REMARK    2  A    between atoms: C4_6  and  C5_7 
REMARK       I    between atoms: C5_7  and  N2_9 
REMARK    3  A    between atoms: N2_9  and  C6_10 
REMARK    4  A    between atoms: C6_10  and  C7_11 
REMARK    5  A    between atoms: C6_10  and  C8_13 
REMARK       I    between atoms: C7_11  and  N3_14 
REMARK    6  A    between atoms: N3_14  and  C9_15 
REMARK    7  A    between atoms: C9_15  and  C10_16 
REMARK    8  A    between atoms: C9_15  and  C11_18 
REMARK       I    between atoms: C10_16  and  N4_21 
REMARK    9  A    between atoms: C11_18  and  C12_19 
REMARK   10  A    between atoms: C11_18  and  C13_20 
REMARK   11  A    between atoms: N4_21  and  C14_22 
REMARK   12  A    between atoms: C14_22  and  C15_23 
REMARK   13  A    between atoms: C14_22  and  C16_25 
REMARK       I    between atoms: C15_23  and  N6_40 
REMARK   14  A    between atoms: C16_25  and  C17_26 
REMARK   15  A    between atoms: C17_26  and  C18_27 
REMARK   16  A    between atoms: C17_26  and  C19_28 
REMARK   17  A    between atoms: C20_29  and  C21_30 
REMARK   18  A    between atoms: C20_29  and  C24_33 
REMARK   19  A    between atoms: C20_29  and  N6_40 
REMARK   20  A    between atoms: C21_30  and  C22_31 
REMARK   21  A    between atoms: C22_31  and  C23_32 
REMARK   22  A    between atoms: C23_32  and  O8_43 
REMARK   23  A    between atoms: C24_33  and  C25_34 
REMARK   24  A    between atoms: C28_38  and  O6_39 
REMARK   25  A    between atoms: C29_42  and  O8_43 
REMARK   26  A    between atoms: C29_42  and  C35_49 
ROOT
ATOM      1  C14 non d ame     -36.597  13.923  26.708  0.00  0.00     0.089 C 
ATOM      2  H20 non d ame     -37.085  14.062  27.673  0.00  0.00     0.087 H 
ENDROOT
BRANCH   1   3
ATOM      3  N4  non d ame     -36.239  15.240  26.204  0.00  0.00    -0.346 N 
ATOM      4  C10 non d ame     -36.912  16.473  26.749  0.00  0.00     0.241 C 
ATOM      5  O4  non d ame     -37.742  16.382  27.593  0.00  0.00    -0.271 OA
ATOM      6  H19 non d ame     -35.532  15.296  25.484  0.00  0.00     0.163 HD
BRANCH   4   7
ATOM      7  C9  non d ame     -36.526  17.829  26.219  0.00  0.00     0.092 C 
ATOM      8  H11 non d ame     -36.852  18.595  26.921  0.00  0.00     0.088 H 
BRANCH   7   9
ATOM      9  N3  non d ame     -35.065  17.920  26.126  0.00  0.00    -0.346 N 
ATOM     10  C7  non d ame     -34.278  18.110  27.319  0.00  0.00     0.240 C 
ATOM     11  O3  non d ame     -34.803  18.191  28.362  0.00  0.00    -0.271 OA
ATOM     12  H10 non d ame     -34.599  17.853  25.233  0.00  0.00     0.163 HD
BRANCH  10  13
ATOM     13  C6  non d ame     -32.725  18.209  27.215  0.00  0.00     0.086 C 
ATOM     14  H6  non d ame     -32.212  17.628  27.981  0.00  0.00     0.086 H 
BRANCH  13  15
ATOM     15  N2  non d ame     -32.303  17.669  25.933  0.00  0.00    -0.343 N 
ATOM     16  C5  non d ame     -31.860  16.276  25.847  0.00  0.00     0.273 C 
ATOM     17  O2  non d ame     -31.844  15.598  26.816  0.00  0.00    -0.266 OA
ATOM     18  H5  non d ame     -32.317  18.256  25.111  0.00  0.00     0.163 HD
BRANCH  16  19
ATOM     19  C4  non d ame     -31.412  15.692  24.498  0.00  0.00     0.154 A 
ATOM     20  C1  non d ame     -30.649  14.501  24.282  0.00  0.00    -0.017 A 
ATOM     21  C2  non d ame     -30.508  14.410  22.879  0.00  0.00     0.077 A 
ATOM     22  H1  non d ame     -30.258  13.810  25.028  0.00  0.00     0.091 H 
ATOM     23  O1  non d ame     -31.123  15.431  22.360  0.00  0.00    -0.218 OA
ATOM     24  N1  non d ame     -31.659  16.194  23.285  0.00  0.00    -0.123 NA
BRANCH  21  25
ATOM     25  C3  non d ame     -29.773  13.316  22.116  0.00  0.00    -0.029 C 
ATOM     26  H2  non d ame     -29.078  12.810  22.785  0.00  0.00     0.036 H 
ATOM     27  H3  non d ame     -30.494  12.594  21.731  0.00  0.00     0.036 H 
ATOM     28  H4  non d ame     -29.223  13.757  21.286  0.00  0.00     0.036 H 
ENDBRANCH  21  25
ENDBRANCH  16  19
ENDBRANCH  13  15
BRANCH  13  29
ATOM     29  C8  non d ame     -32.301  19.651  27.333  0.00  0.00    -0.049 C 
ATOM     30  H7  non d ame     -32.604  20.041  28.304  0.00  0.00     0.030 H 
ATOM     31  H8  non d ame     -31.218  19.721  27.235  0.00  0.00     0.030 H 
ATOM     32  H9  non d ame     -32.776  20.235  26.543  0.00  0.00     0.030 H 
ENDBRANCH  13  29
ENDBRANCH  10  13
ENDBRANCH   7   9
BRANCH   7  33
ATOM     33  C11 non d ame     -37.145  18.028  24.804  0.00  0.00    -0.033 C 
ATOM     34  H12 non d ame     -36.603  17.383  24.114  0.00  0.00     0.042 H 
BRANCH  33  35
ATOM     35  C12 non d ame     -38.643  17.592  24.774  0.00  0.00    -0.071 C 
ATOM     36  H13 non d ame     -38.861  16.979  25.650  0.00  0.00     0.028 H 
ATOM     37  H14 non d ame     -39.280  18.476  24.782  0.00  0.00     0.028 H 
ATOM     38  H15 non d ame     -38.835  17.013  23.871  0.00  0.00     0.028 H 
ENDBRANCH  33  35
BRANCH  33  39
ATOM     39  C13 non d ame     -36.975  19.504  24.321  0.00  0.00    -0.071 C 
ATOM     40  H16 non d ame     -37.647  20.151  24.885  0.00  0.00     0.028 H 
ATOM     41  H17 non d ame     -35.944  19.822  24.480  0.00  0.00     0.028 H 
ATOM     42  H18 non d ame     -37.214  19.569  23.260  0.00  0.00     0.028 H 
ENDBRANCH  33  39
ENDBRANCH   7  33
ENDBRANCH   4   7
ENDBRANCH   1   3
BRANCH   1  43
ATOM     43  C15 non d ame     -35.302  13.068  26.824  0.00  0.00     0.240 C 
ATOM     44  O5  non d ame     -34.321  13.399  26.241  0.00  0.00    -0.271 OA
ATOM     45  N6  non d ame     -35.282  11.841  27.672  0.00  0.00    -0.355 N 
ATOM     46  H46 non d ame     -36.108  11.553  28.177  0.00  0.00     0.162 HD
BRANCH  45  47
ATOM     47  C20 non d ame     -34.043  11.041  27.772  0.00  0.00     0.013 C 
ATOM     48  H30 non d ame     -33.264  11.558  27.212  0.00  0.00     0.072 H 
BRANCH  47  49
ATOM     49  C21 non d ame     -34.283   9.670  27.180  0.00  0.00    -0.038 C 
ATOM     50  H31 non d ame     -33.411   9.075  27.452  0.00  0.00     0.036 H 
ATOM     51  H32 non d ame     -35.275   9.372  27.522  0.00  0.00     0.036 H 
BRANCH  49  52
ATOM     52  C22 non d ame     -34.339   9.686  25.637  0.00  0.00     0.018 C 
ATOM     53  H33 non d ame     -35.042   8.901  25.360  0.00  0.00     0.048 H 
ATOM     54  H34 non d ame     -34.538  10.721  25.360  0.00  0.00     0.048 H 
BRANCH  52  55
ATOM     55  C23 non d ame     -32.991   9.313  24.959  0.00  0.00     0.259 C 
ATOM     56  O7  non d ame     -32.001   9.919  25.212  0.00  0.00    -0.265 OA
BRANCH  55  57
ATOM     57  O8  non d ame     -32.956   8.245  24.019  0.00  0.00    -0.317 OA
BRANCH  57  58
ATOM     58  C29 non d ame     -32.555   8.640  22.704  0.00  0.00     0.052 C 
ATOM     59  H47 non d ame     -33.077   7.969  22.022  0.00  0.00     0.082 H 
ATOM     60  H48 non d ame     -32.729   9.714  22.652  0.00  0.00     0.082 H 
BRANCH  58  61
ATOM     61  C35 non d ame     -31.029   8.384  22.572  0.00  0.00    -0.034 A 
ATOM     62  C30 non d ame     -30.504   7.134  22.883  0.00  0.00    -0.075 A 
ATOM     63  C31 non d ame     -29.134   6.904  22.766  0.00  0.00    -0.082 A 
ATOM     64  H49 non d ame     -31.164   6.335  23.220  0.00  0.00     0.084 H 
ATOM     65  C32 non d ame     -28.288   7.930  22.337  0.00  0.00    -0.083 A 
ATOM     66  H50 non d ame     -28.725   5.922  23.008  0.00  0.00     0.083 H 
ATOM     67  C33 non d ame     -28.817   9.177  22.031  0.00  0.00    -0.082 A 
ATOM     68  H51 non d ame     -27.215   7.758  22.241  0.00  0.00     0.083 H 
ATOM     69  C34 non d ame     -30.185   9.411  22.146  0.00  0.00    -0.075 A 
ATOM     70  H52 non d ame     -28.154   9.977  21.699  0.00  0.00     0.083 H 
ATOM     71  H53 non d ame     -30.593  10.392  21.902  0.00  0.00     0.084 H 
ENDBRANCH  58  61
ENDBRANCH  57  58
ENDBRANCH  55  57
ENDBRANCH  52  55
ENDBRANCH  49  52
ENDBRANCH  47  49
BRANCH  47  72
ATOM     72  C24 non d ame     -33.637  10.900  29.238  0.00  0.00    -0.039 C 
ATOM     73  H35 non d ame     -34.573  10.840  29.793  0.00  0.00     0.036 H 
ATOM     74  H36 non d ame     -32.933  10.067  29.265  0.00  0.00     0.036 H 
BRANCH  72  75
ATOM     75  C25 non d ame     -32.856  12.196  29.764  0.00  0.00    -0.001 C 
ATOM     76  C26 non d ame     -31.703  12.634  28.678  0.00  0.00    -0.035 C 
ATOM     77  C27 non d ame     -30.522  12.775  29.327  0.00  0.00     0.085 C 
ATOM     78  H38 non d ame     -31.515  11.818  27.981  0.00  0.00     0.036 H 
ATOM     79  H39 non d ame     -31.907  13.637  28.300  0.00  0.00     0.036 H 
ATOM     80  N5  non d ame     -30.694  12.156  30.694  0.00  0.00    -0.049 N 
ATOM     81  H40 non d ame     -29.804  12.185  28.756  0.00  0.00     0.075 H 
ATOM     82  H41 non d ame     -30.378  13.849  29.439  0.00  0.00     0.075 H 
ATOM     83  C28 non d ame     -32.284  11.967  30.899  0.00  0.00     0.193 C 
ATOM     84  H42 non d ame     -30.265  11.243  30.650  0.00  0.00     0.280 HD
ATOM     85  H43 non d ame     -30.362  12.839  31.359  0.00  0.00     0.280 HD
ATOM     86  H44 non d ame     -32.843  12.647  31.543  0.00  0.00     0.129 H 
ATOM     87  H37 non d ame     -33.536  12.975  30.108  0.00  0.00     0.046 H 
BRANCH  83  88
ATOM     88  O6  non d ame     -32.565  10.656  31.391  0.00  0.00    -0.369 OA
ATOM     89  H45 non d ame     -31.802  10.090  31.250  0.00  0.00     0.212 HD
ENDBRANCH  83  88
ENDBRANCH  72  75
ENDBRANCH  47  72
ENDBRANCH  45  47
ENDBRANCH   1  43
BRANCH   1  90
ATOM     90  C16 non d ame     -37.559  13.262  25.735  0.00  0.00    -0.035 C 
ATOM     91  H21 non d ame     -37.777  12.285  26.163  0.00  0.00     0.037 H 
ATOM     92  H22 non d ame     -38.362  13.985  25.587  0.00  0.00     0.037 H 
BRANCH  90  93
ATOM     93  C17 non d ame     -36.940  12.996  24.325  0.00  0.00    -0.059 C 
ATOM     94  H23 non d ame     -35.875  13.223  24.385  0.00  0.00     0.038 H 
BRANCH  93  95
ATOM     95  C18 non d ame     -37.086  11.504  23.889  0.00  0.00    -0.073 C 
ATOM     96  H24 non d ame     -37.641  11.451  22.952  0.00  0.00     0.028 H 
ATOM     97  H25 non d ame     -36.097  11.068  23.748  0.00  0.00     0.028 H 
ATOM     98  H26 non d ame     -37.620  10.950  24.660  0.00  0.00     0.028 H 
ENDBRANCH  93  95
BRANCH  93  99
ATOM     99  C19 non d ame     -37.546  13.932  23.276  0.00  0.00    -0.073 C 
ATOM    100  H27 non d ame     -38.533  14.259  23.608  0.00  0.00     0.028 H 
ATOM    101  H28 non d ame     -36.902  14.802  23.147  0.00  0.00     0.028 H 
ATOM    102  H29 non d ame     -37.638  13.404  22.328  0.00  0.00     0.028 H 
ENDBRANCH  93  99
ENDBRANCH  90  93
ENDBRANCH   1  90
TORSDOF 26
ENDMDL
MODEL 15
REMARK VINA RESULT:      -6.2      2.578      6.855
REMARK  26 active torsions:
REMARK  status: ('A' for Active; 'I' for Inactive)
REMARK    1  A    between atoms: C2_2  and  C3_3 
REMARK    2  A    between atoms: C4_6  and  C5_7 
REMARK       I    between atoms: C5_7  and  N2_9 
REMARK    3  A    between atoms: N2_9  and  C6_10 
REMARK    4  A    between atoms: C6_10  and  C7_11 
REMARK    5  A    between atoms: C6_10  and  C8_13 
REMARK       I    between atoms: C7_11  and  N3_14 
REMARK    6  A    between atoms: N3_14  and  C9_15 
REMARK    7  A    between atoms: C9_15  and  C10_16 
REMARK    8  A    between atoms: C9_15  and  C11_18 
REMARK       I    between atoms: C10_16  and  N4_21 
REMARK    9  A    between atoms: C11_18  and  C12_19 
REMARK   10  A    between atoms: C11_18  and  C13_20 
REMARK   11  A    between atoms: N4_21  and  C14_22 
REMARK   12  A    between atoms: C14_22  and  C15_23 
REMARK   13  A    between atoms: C14_22  and  C16_25 
REMARK       I    between atoms: C15_23  and  N6_40 
REMARK   14  A    between atoms: C16_25  and  C17_26 
REMARK   15  A    between atoms: C17_26  and  C18_27 
REMARK   16  A    between atoms: C17_26  and  C19_28 
REMARK   17  A    between atoms: C20_29  and  C21_30 
REMARK   18  A    between atoms: C20_29  and  C24_33 
REMARK   19  A    between atoms: C20_29  and  N6_40 
REMARK   20  A    between atoms: C21_30  and  C22_31 
REMARK   21  A    between atoms: C22_31  and  C23_32 
REMARK   22  A    between atoms: C23_32  and  O8_43 
REMARK   23  A    between atoms: C24_33  and  C25_34 
REMARK   24  A    between atoms: C28_38  and  O6_39 
REMARK   25  A    between atoms: C29_42  and  O8_43 
REMARK   26  A    between atoms: C29_42  and  C35_49 
ROOT
ATOM      1  C14 non d ame     -32.108  13.537  29.606  0.00  0.00     0.089 C 
ATOM      2  H20 non d ame     -31.676  13.501  30.607  0.00  0.00     0.087 H 
ENDROOT
BRANCH   1   3
ATOM      3  N4  non d ame     -33.182  12.557  29.556  0.00  0.00    -0.346 N 
ATOM      4  C10 non d ame     -33.083  11.277  30.347  0.00  0.00     0.241 C 
ATOM      5  O4  non d ame     -32.127  11.057  31.016  0.00  0.00    -0.271 OA
ATOM      6  H19 non d ame     -33.985  12.761  28.979  0.00  0.00     0.163 HD
BRANCH   4   7
ATOM      7  C9  non d ame     -34.206  10.275  30.287  0.00  0.00     0.092 C 
ATOM      8  H11 non d ame     -35.100  10.762  29.900  0.00  0.00     0.088 H 
BRANCH   7   9
ATOM      9  N3  non d ame     -33.855   9.203  29.351  0.00  0.00    -0.346 N 
ATOM     10  C7  non d ame     -34.578   9.065  28.110  0.00  0.00     0.240 C 
ATOM     11  O3  non d ame     -35.444   9.808  27.850  0.00  0.00    -0.271 OA
ATOM     12  H10 non d ame     -33.111   8.554  29.563  0.00  0.00     0.163 HD
BRANCH  10  13
ATOM     13  C6  non d ame     -34.203   7.921  27.119  0.00  0.00     0.086 C 
ATOM     14  H6  non d ame     -35.020   7.659  26.448  0.00  0.00     0.086 H 
BRANCH  13  15
ATOM     15  N2  non d ame     -33.102   8.365  26.280  0.00  0.00    -0.343 N 
ATOM     16  C5  non d ame     -33.318   8.546  24.843  0.00  0.00     0.273 C 
ATOM     17  O2  non d ame     -34.379   8.328  24.370  0.00  0.00    -0.266 OA
ATOM     18  H5  non d ame     -32.197   8.545  26.691  0.00  0.00     0.163 HD
BRANCH  16  19
ATOM     19  C4  non d ame     -32.163   9.016  23.944  0.00  0.00     0.154 A 
ATOM     20  C1  non d ame     -31.215   8.195  23.255  0.00  0.00    -0.017 A 
ATOM     21  C2  non d ame     -30.373   9.105  22.578  0.00  0.00     0.077 A 
ATOM     22  H1  non d ame     -31.148   7.107  23.248  0.00  0.00     0.091 H 
ATOM     23  O1  non d ame     -30.796  10.303  22.851  0.00  0.00    -0.218 OA
ATOM     24  N1  non d ame     -31.840  10.277  23.647  0.00  0.00    -0.123 NA
BRANCH  21  25
ATOM     25  C3  non d ame     -29.188   8.747  21.690  0.00  0.00    -0.029 C 
ATOM     26  H2  non d ame     -28.962   9.585  21.031  0.00  0.00     0.036 H 
ATOM     27  H3  non d ame     -28.319   8.531  22.312  0.00  0.00     0.036 H 
ATOM     28  H4  non d ame     -29.433   7.870  21.091  0.00  0.00     0.036 H 
ENDBRANCH  21  25
ENDBRANCH  16  19
ENDBRANCH  13  15
BRANCH  13  29
ATOM     29  C8  non d ame     -33.799   6.693  27.894  0.00  0.00    -0.049 C 
ATOM     30  H7  non d ame     -34.588   6.430  28.597  0.00  0.00     0.030 H 
ATOM     31  H8  non d ame     -33.636   5.864  27.205  0.00  0.00     0.030 H 
ATOM     32  H9  non d ame     -32.877   6.896  28.442  0.00  0.00     0.030 H 
ENDBRANCH  13  29
ENDBRANCH  10  13
ENDBRANCH   7   9
BRANCH   7  33
ATOM     33  C11 non d ame     -34.435   9.668  31.703  0.00  0.00    -0.033 C 
ATOM     34  H12 non d ame     -33.455   9.485  32.145  0.00  0.00     0.042 H 
BRANCH  33  35
ATOM     35  C12 non d ame     -35.188  10.669  32.634  0.00  0.00    -0.071 C 
ATOM     36  H13 non d ame     -35.269  11.636  32.138  0.00  0.00     0.028 H 
ATOM     37  H14 non d ame     -36.186  10.286  32.848  0.00  0.00     0.028 H 
ATOM     38  H15 non d ame     -34.635  10.785  33.566  0.00  0.00     0.028 H 
ENDBRANCH  33  35
BRANCH  33  39
ATOM     39  C13 non d ame     -35.187   8.303  31.612  0.00  0.00    -0.071 C 
ATOM     40  H16 non d ame     -34.764   7.708  30.802  0.00  0.00     0.028 H 
ATOM     41  H17 non d ame     -35.079   7.764  32.554  0.00  0.00     0.028 H 
ATOM     42  H18 non d ame     -36.244   8.482  31.416  0.00  0.00     0.028 H 
ENDBRANCH  33  39
ENDBRANCH   7  33
ENDBRANCH   4   7
ENDBRANCH   1   3
BRANCH   1  43
ATOM     43  C15 non d ame     -32.700  14.937  29.274  0.00  0.00     0.240 C 
ATOM     44  O5  non d ame     -32.195  15.914  29.724  0.00  0.00    -0.271 OA
ATOM     45  N6  non d ame     -33.890  15.061  28.384  0.00  0.00    -0.355 N 
ATOM     46  H46 non d ame     -34.324  14.238  27.991  0.00  0.00     0.162 HD
BRANCH  45  47
ATOM     47  C20 non d ame     -34.440  16.399  28.077  0.00  0.00     0.013 C 
ATOM     48  H30 non d ame     -34.855  16.809  28.998  0.00  0.00     0.072 H 
BRANCH  47  49
ATOM     49  C21 non d ame     -35.525  16.266  27.034  0.00  0.00    -0.038 C 
ATOM     50  H31 non d ame     -35.894  15.244  27.121  0.00  0.00     0.036 H 
ATOM     51  H32 non d ame     -36.200  17.105  27.203  0.00  0.00     0.036 H 
BRANCH  49  52
ATOM     52  C22 non d ame     -34.993  16.418  25.592  0.00  0.00     0.018 C 
ATOM     53  H33 non d ame     -35.872  16.566  24.967  0.00  0.00     0.048 H 
ATOM     54  H34 non d ame     -34.223  17.188  25.642  0.00  0.00     0.048 H 
BRANCH  52  55
ATOM     55  C23 non d ame     -34.289  15.144  25.048  0.00  0.00     0.259 C 
ATOM     56  O7  non d ame     -34.519  14.079  25.522  0.00  0.00    -0.265 OA
BRANCH  55  57
ATOM     57  O8  non d ame     -33.353  15.266  23.983  0.00  0.00    -0.317 OA
BRANCH  57  58
ATOM     58  C29 non d ame     -32.257  16.141  24.267  0.00  0.00     0.052 C 
ATOM     59  H47 non d ame     -32.646  17.151  24.142  0.00  0.00     0.082 H 
ATOM     60  H48 non d ame     -31.868  15.822  25.233  0.00  0.00     0.082 H 
BRANCH  58  61
ATOM     61  C35 non d ame     -31.162  15.900  23.194  0.00  0.00    -0.034 A 
ATOM     62  C30 non d ame     -29.902  15.449  23.575  0.00  0.00    -0.075 A 
ATOM     63  C31 non d ame     -28.917  15.233  22.611  0.00  0.00    -0.082 A 
ATOM     64  H49 non d ame     -29.684  15.266  24.627  0.00  0.00     0.084 H 
ATOM     65  C32 non d ame     -29.197  15.471  21.262  0.00  0.00    -0.083 A 
ATOM     66  H50 non d ame     -27.931  14.878  22.912  0.00  0.00     0.083 H 
ATOM     67  C33 non d ame     -30.454  15.925  20.889  0.00  0.00    -0.082 A 
ATOM     68  H51 non d ame     -28.433  15.304  20.502  0.00  0.00     0.083 H 
ATOM     69  C34 non d ame     -31.441  16.140  21.848  0.00  0.00    -0.075 A 
ATOM     70  H52 non d ame     -30.668  16.112  19.835  0.00  0.00     0.083 H 
ATOM     71  H53 non d ame     -32.427  16.495  21.546  0.00  0.00     0.084 H 
ENDBRANCH  58  61
ENDBRANCH  57  58
ENDBRANCH  55  57
ENDBRANCH  52  55
ENDBRANCH  49  52
ENDBRANCH  47  49
BRANCH  47  72
ATOM     72  C24 non d ame     -33.329  17.304  27.547  0.00  0.00    -0.039 C 
ATOM     73  H35 non d ame     -32.400  16.871  27.921  0.00  0.00     0.036 H 
ATOM     74  H36 non d ame     -33.503  17.377  26.474  0.00  0.00     0.036 H 
BRANCH  72  75
ATOM     75  C25 non d ame     -33.435  18.785  28.146  0.00  0.00    -0.001 C 
ATOM     76  C26 non d ame     -34.978  19.335  28.011  0.00  0.00    -0.035 C 
ATOM     77  C27 non d ame     -34.959  20.552  27.417  0.00  0.00     0.085 C 
ATOM     78  H38 non d ame     -35.536  18.717  27.307  0.00  0.00     0.036 H 
ATOM     79  H39 non d ame     -35.391  19.541  28.999  0.00  0.00     0.036 H 
ATOM     80  N5  non d ame     -33.576  20.738  26.839  0.00  0.00    -0.049 N 
ATOM     81  H40 non d ame     -35.680  20.490  26.601  0.00  0.00     0.075 H 
ATOM     82  H41 non d ame     -35.107  21.271  28.221  0.00  0.00     0.075 H 
ATOM     83  C28 non d ame     -32.654  19.600  27.518  0.00  0.00     0.193 C 
ATOM     84  H42 non d ame     -33.650  20.544  25.851  0.00  0.00     0.280 HD
ATOM     85  H43 non d ame     -33.255  21.643  27.154  0.00  0.00     0.280 HD
ATOM     86  H44 non d ame     -31.955  19.857  28.315  0.00  0.00     0.129 H 
ATOM     87  H37 non d ame     -32.963  18.870  29.125  0.00  0.00     0.046 H 
BRANCH  83  88
ATOM     88  O6  non d ame     -31.873  18.938  26.522  0.00  0.00    -0.369 OA
ATOM     89  H45 non d ame     -31.224  18.372  26.947  0.00  0.00     0.212 HD
ENDBRANCH  83  88
ENDBRANCH  72  75
ENDBRANCH  47  72
ENDBRANCH  45  47
ENDBRANCH   1  43
BRANCH   1  90
ATOM     90  C16 non d ame     -31.052  13.171  28.576  0.00  0.00    -0.035 C 
ATOM     91  H21 non d ame     -30.533  14.102  28.351  0.00  0.00     0.037 H 
ATOM     92  H22 non d ame     -30.506  12.333  29.008  0.00  0.00     0.037 H 
BRANCH  90  93
ATOM     93  C17 non d ame     -31.646  12.662  27.224  0.00  0.00    -0.059 C 
ATOM     94  H23 non d ame     -32.722  12.839  27.249  0.00  0.00     0.038 H 
BRANCH  93  95
ATOM     95  C18 non d ame     -31.065  13.432  25.996  0.00  0.00    -0.073 C 
ATOM     96  H24 non d ame     -31.226  14.502  26.128  0.00  0.00     0.028 H 
ATOM     97  H25 non d ame     -29.996  13.235  25.917  0.00  0.00     0.028 H 
ATOM     98  H26 non d ame     -31.565  13.098  25.087  0.00  0.00     0.028 H 
ENDBRANCH  93  95
BRANCH  93  99
ATOM     99  C19 non d ame     -31.437  11.153  27.069  0.00  0.00    -0.073 C 
ATOM    100  H27 non d ame     -32.254  10.621  27.558  0.00  0.00     0.028 H 
ATOM    101  H28 non d ame     -31.420  10.895  26.010  0.00  0.00     0.028 H 
ATOM    102  H29 non d ame     -30.491  10.868  27.528  0.00  0.00     0.028 H 
ENDBRANCH  93  99
ENDBRANCH  90  93
ENDBRANCH   1  90
TORSDOF 26
ENDMDL
MODEL 16
REMARK VINA RESULT:      -6.2      2.393      6.699
REMARK  26 active torsions:
REMARK  status: ('A' for Active; 'I' for Inactive)
REMARK    1  A    between atoms: C2_2  and  C3_3 
REMARK    2  A    between atoms: C4_6  and  C5_7 
REMARK       I    between atoms: C5_7  and  N2_9 
REMARK    3  A    between atoms: N2_9  and  C6_10 
REMARK    4  A    between atoms: C6_10  and  C7_11 
REMARK    5  A    between atoms: C6_10  and  C8_13 
REMARK       I    between atoms: C7_11  and  N3_14 
REMARK    6  A    between atoms: N3_14  and  C9_15 
REMARK    7  A    between atoms: C9_15  and  C10_16 
REMARK    8  A    between atoms: C9_15  and  C11_18 
REMARK       I    between atoms: C10_16  and  N4_21 
REMARK    9  A    between atoms: C11_18  and  C12_19 
REMARK   10  A    between atoms: C11_18  and  C13_20 
REMARK   11  A    between atoms: N4_21  and  C14_22 
REMARK   12  A    between atoms: C14_22  and  C15_23 
REMARK   13  A    between atoms: C14_22  and  C16_25 
REMARK       I    between atoms: C15_23  and  N6_40 
REMARK   14  A    between atoms: C16_25  and  C17_26 
REMARK   15  A    between atoms: C17_26  and  C18_27 
REMARK   16  A    between atoms: C17_26  and  C19_28 
REMARK   17  A    between atoms: C20_29  and  C21_30 
REMARK   18  A    between atoms: C20_29  and  C24_33 
REMARK   19  A    between atoms: C20_29  and  N6_40 
REMARK   20  A    between atoms: C21_30  and  C22_31 
REMARK   21  A    between atoms: C22_31  and  C23_32 
REMARK   22  A    between atoms: C23_32  and  O8_43 
REMARK   23  A    between atoms: C24_33  and  C25_34 
REMARK   24  A    between atoms: C28_38  and  O6_39 
REMARK   25  A    between atoms: C29_42  and  O8_43 
REMARK   26  A    between atoms: C29_42  and  C35_49 
ROOT
ATOM      1  C14 non d ame     -33.134  12.062  28.643  0.00  0.00     0.089 C 
ATOM      2  H20 non d ame     -33.245  12.535  29.620  0.00  0.00     0.087 H 
ENDROOT
BRANCH   1   3
ATOM      3  N4  non d ame     -33.899  10.824  28.667  0.00  0.00    -0.346 N 
ATOM      4  C10 non d ame     -33.923   9.967  29.906  0.00  0.00     0.241 C 
ATOM      5  O4  non d ame     -33.317  10.292  30.874  0.00  0.00    -0.271 OA
ATOM      6  H19 non d ame     -34.405  10.563  27.832  0.00  0.00     0.163 HD
BRANCH   4   7
ATOM      7  C9  non d ame     -34.723   8.690  29.914  0.00  0.00     0.092 C 
ATOM      8  H11 non d ame     -35.703   8.879  29.479  0.00  0.00     0.088 H 
BRANCH   7   9
ATOM      9  N3  non d ame     -34.059   7.692  29.070  0.00  0.00    -0.346 N 
ATOM     10  C7  non d ame     -34.636   7.323  27.802  0.00  0.00     0.240 C 
ATOM     11  O3  non d ame     -35.635   7.818  27.444  0.00  0.00    -0.271 OA
ATOM     12  H10 non d ame     -33.198   7.255  29.366  0.00  0.00     0.163 HD
BRANCH  10  13
ATOM     13  C6  non d ame     -33.927   6.257  26.909  0.00  0.00     0.086 C 
ATOM     14  H6  non d ame     -34.631   5.607  26.389  0.00  0.00     0.086 H 
BRANCH  13  15
ATOM     15  N2  non d ame     -33.156   6.938  25.884  0.00  0.00    -0.343 N 
ATOM     16  C5  non d ame     -33.221   6.467  24.499  0.00  0.00     0.273 C 
ATOM     17  O2  non d ame     -33.895   5.537  24.220  0.00  0.00    -0.266 OA
ATOM     18  H5  non d ame     -32.580   7.731  26.131  0.00  0.00     0.163 HD
BRANCH  16  19
ATOM     19  C4  non d ame     -32.411   7.180  23.404  0.00  0.00     0.154 A 
ATOM     20  C1  non d ame     -31.165   7.867  23.559  0.00  0.00    -0.017 A 
ATOM     21  C2  non d ame     -30.847   8.338  22.266  0.00  0.00     0.077 A 
ATOM     22  H1  non d ame     -30.582   8.002  24.470  0.00  0.00     0.091 H 
ATOM     23  O1  non d ame     -31.802   7.959  21.469  0.00  0.00    -0.218 OA
ATOM     24  N1  non d ame     -32.727   7.281  22.111  0.00  0.00    -0.123 NA
BRANCH  21  25
ATOM     25  C3  non d ame     -29.612   9.139  21.877  0.00  0.00    -0.029 C 
ATOM     26  H2  non d ame     -29.917  10.054  21.370  0.00  0.00     0.036 H 
ATOM     27  H3  non d ame     -29.047   9.394  22.774  0.00  0.00     0.036 H 
ATOM     28  H4  non d ame     -28.987   8.545  21.211  0.00  0.00     0.036 H 
ENDBRANCH  21  25
ENDBRANCH  16  19
ENDBRANCH  13  15
BRANCH  13  29
ATOM     29  C8  non d ame     -33.019   5.408  27.761  0.00  0.00    -0.049 C 
ATOM     30  H7  non d ame     -33.090   4.368  27.444  0.00  0.00     0.030 H 
ATOM     31  H8  non d ame     -31.991   5.751  27.651  0.00  0.00     0.030 H 
ATOM     32  H9  non d ame     -33.320   5.490  28.807  0.00  0.00     0.030 H 
ENDBRANCH  13  29
ENDBRANCH  10  13
ENDBRANCH   7   9
BRANCH   7  33
ATOM     33  C11 non d ame     -34.822   8.150  31.371  0.00  0.00    -0.033 C 
ATOM     34  H12 non d ame     -33.858   8.320  31.851  0.00  0.00     0.042 H 
BRANCH  33  35
ATOM     35  C12 non d ame     -35.897   8.927  32.193  0.00  0.00    -0.071 C 
ATOM     36  H13 non d ame     -36.090   8.401  33.128  0.00  0.00     0.028 H 
ATOM     37  H14 non d ame     -35.535   9.932  32.408  0.00  0.00     0.028 H 
ATOM     38  H15 non d ame     -36.820   8.989  31.616  0.00  0.00     0.028 H 
ENDBRANCH  33  35
BRANCH  33  39
ATOM     39  C13 non d ame     -35.102   6.614  31.380  0.00  0.00    -0.071 C 
ATOM     40  H16 non d ame     -36.107   6.430  31.759  0.00  0.00     0.028 H 
ATOM     41  H17 non d ame     -35.018   6.222  30.366  0.00  0.00     0.028 H 
ATOM     42  H18 non d ame     -34.375   6.115  32.022  0.00  0.00     0.028 H 
ENDBRANCH  33  39
ENDBRANCH   7  33
ENDBRANCH   4   7
ENDBRANCH   1   3
BRANCH   1  43
ATOM     43  C15 non d ame     -33.678  12.958  27.493  0.00  0.00     0.240 C 
ATOM     44  O5  non d ame     -33.493  12.645  26.362  0.00  0.00    -0.271 OA
ATOM     45  N6  non d ame     -34.439  14.203  27.802  0.00  0.00    -0.355 N 
ATOM     46  H46 non d ame     -34.607  14.477  28.760  0.00  0.00     0.162 HD
BRANCH  45  47
ATOM     47  C20 non d ame     -34.949  15.043  26.697  0.00  0.00     0.013 C 
ATOM     48  H30 non d ame     -34.449  14.730  25.781  0.00  0.00     0.072 H 
BRANCH  47  49
ATOM     49  C21 non d ame     -34.640  16.494  26.988  0.00  0.00    -0.038 C 
ATOM     50  H31 non d ame     -35.595  16.952  27.246  0.00  0.00     0.036 H 
ATOM     51  H32 non d ame     -33.827  16.481  27.715  0.00  0.00     0.036 H 
BRANCH  49  52
ATOM     52  C22 non d ame     -34.109  17.252  25.752  0.00  0.00     0.018 C 
ATOM     53  H33 non d ame     -34.334  16.617  24.897  0.00  0.00     0.048 H 
ATOM     54  H34 non d ame     -34.536  18.254  25.815  0.00  0.00     0.048 H 
BRANCH  52  55
ATOM     55  C23 non d ame     -32.567  17.444  25.750  0.00  0.00     0.259 C 
ATOM     56  O7  non d ame     -32.050  18.183  26.524  0.00  0.00    -0.265 OA
BRANCH  55  57
ATOM     57  O8  non d ame     -31.778  16.735  24.802  0.00  0.00    -0.317 OA
BRANCH  57  58
ATOM     58  C29 non d ame     -31.600  15.350  25.111  0.00  0.00     0.052 C 
ATOM     59  H47 non d ame     -31.028  15.325  26.038  0.00  0.00     0.082 H 
ATOM     60  H48 non d ame     -32.595  14.908  25.072  0.00  0.00     0.082 H 
BRANCH  58  61
ATOM     61  C35 non d ame     -30.739  14.715  23.985  0.00  0.00    -0.034 A 
ATOM     62  C30 non d ame     -30.757  13.337  23.789  0.00  0.00    -0.075 A 
ATOM     63  C31 non d ame     -29.983  12.767  22.779  0.00  0.00    -0.082 A 
ATOM     64  H49 non d ame     -31.374  12.705  24.426  0.00  0.00     0.084 H 
ATOM     65  C32 non d ame     -29.190  13.579  21.964  0.00  0.00    -0.083 A 
ATOM     66  H50 non d ame     -30.000  11.687  22.626  0.00  0.00     0.083 H 
ATOM     67  C33 non d ame     -29.173  14.953  22.167  0.00  0.00    -0.082 A 
ATOM     68  H51 non d ame     -28.583  13.141  21.171  0.00  0.00     0.083 H 
ATOM     69  C34 non d ame     -29.946  15.527  23.174  0.00  0.00    -0.075 A 
ATOM     70  H52 non d ame     -28.551  15.584  21.531  0.00  0.00     0.083 H 
ATOM     71  H53 non d ame     -29.929  16.607  23.326  0.00  0.00     0.084 H 
ENDBRANCH  58  61
ENDBRANCH  57  58
ENDBRANCH  55  57
ENDBRANCH  52  55
ENDBRANCH  49  52
ENDBRANCH  47  49
BRANCH  47  72
ATOM     72  C24 non d ame     -36.460  14.859  26.565  0.00  0.00    -0.039 C 
ATOM     73  H35 non d ame     -36.777  14.387  27.496  0.00  0.00     0.036 H 
ATOM     74  H36 non d ame     -36.849  15.840  26.292  0.00  0.00     0.036 H 
BRANCH  72  75
ATOM     75  C25 non d ame     -36.833  13.855  25.375  0.00  0.00    -0.001 C 
ATOM     76  C26 non d ame     -38.002  14.518  24.429  0.00  0.00    -0.035 C 
ATOM     77  C27 non d ame     -39.009  13.623  24.285  0.00  0.00     0.085 C 
ATOM     78  H38 non d ame     -38.475  15.352  24.947  0.00  0.00     0.036 H 
ATOM     79  H39 non d ame     -37.632  14.649  23.411  0.00  0.00     0.036 H 
ATOM     80  N5  non d ame     -38.784  12.538  25.312  0.00  0.00    -0.049 N 
ATOM     81  H40 non d ame     -39.920  14.167  24.536  0.00  0.00     0.075 H 
ATOM     82  H41 non d ame     -38.884  13.201  23.289  0.00  0.00     0.075 H 
ATOM     83  C28 non d ame     -37.268  12.728  25.833  0.00  0.00     0.193 C 
ATOM     84  H42 non d ame     -39.413  12.734  26.077  0.00  0.00     0.280 HD
ATOM     85  H43 non d ame     -38.847  11.660  24.817  0.00  0.00     0.280 HD
ATOM     86  H44 non d ame     -36.478  12.058  25.492  0.00  0.00     0.129 H 
ATOM     87  H37 non d ame     -35.949  13.465  24.871  0.00  0.00     0.046 H 
BRANCH  83  88
ATOM     88  O6  non d ame     -37.226  12.675  27.260  0.00  0.00    -0.369 OA
ATOM     89  H45 non d ame     -36.918  11.809  27.539  0.00  0.00     0.212 HD
ENDBRANCH  83  88
ENDBRANCH  72  75
ENDBRANCH  47  72
ENDBRANCH  45  47
ENDBRANCH   1  43
BRANCH   1  90
ATOM     90  C16 non d ame     -31.671  11.739  28.391  0.00  0.00    -0.035 C 
ATOM     91  H21 non d ame     -31.526  10.734  28.784  0.00  0.00     0.037 H 
ATOM     92  H22 non d ame     -31.510  11.939  27.331  0.00  0.00     0.037 H 
BRANCH  90  93
ATOM     93  C17 non d ame     -30.682  12.663  29.171  0.00  0.00    -0.059 C 
ATOM     94  H23 non d ame     -29.719  12.155  29.212  0.00  0.00     0.038 H 
BRANCH  93  95
ATOM     95  C18 non d ame     -30.466  14.034  28.453  0.00  0.00    -0.073 C 
ATOM     96  H24 non d ame     -29.428  14.345  28.567  0.00  0.00     0.028 H 
ATOM     97  H25 non d ame     -30.699  13.930  27.394  0.00  0.00     0.028 H 
ATOM     98  H26 non d ame     -31.121  14.784  28.897  0.00  0.00     0.028 H 
ENDBRANCH  93  95
BRANCH  93  99
ATOM     99  C19 non d ame     -31.150  12.872  30.613  0.00  0.00    -0.073 C 
ATOM    100  H27 non d ame     -31.486  11.920  31.027  0.00  0.00     0.028 H 
ATOM    101  H28 non d ame     -30.325  13.257  31.212  0.00  0.00     0.028 H 
ATOM    102  H29 non d ame     -31.974  13.585  30.628  0.00  0.00     0.028 H 
ENDBRANCH  93  99
ENDBRANCH  90  93
ENDBRANCH   1  90
TORSDOF 26
ENDMDL
MODEL 17
REMARK VINA RESULT:      -6.2      2.930      8.677
REMARK  26 active torsions:
REMARK  status: ('A' for Active; 'I' for Inactive)
REMARK    1  A    between atoms: C2_2  and  C3_3 
REMARK    2  A    between atoms: C4_6  and  C5_7 
REMARK       I    between atoms: C5_7  and  N2_9 
REMARK    3  A    between atoms: N2_9  and  C6_10 
REMARK    4  A    between atoms: C6_10  and  C7_11 
REMARK    5  A    between atoms: C6_10  and  C8_13 
REMARK       I    between atoms: C7_11  and  N3_14 
REMARK    6  A    between atoms: N3_14  and  C9_15 
REMARK    7  A    between atoms: C9_15  and  C10_16 
REMARK    8  A    between atoms: C9_15  and  C11_18 
REMARK       I    between atoms: C10_16  and  N4_21 
REMARK    9  A    between atoms: C11_18  and  C12_19 
REMARK   10  A    between atoms: C11_18  and  C13_20 
REMARK   11  A    between atoms: N4_21  and  C14_22 
REMARK   12  A    between atoms: C14_22  and  C15_23 
REMARK   13  A    between atoms: C14_22  and  C16_25 
REMARK       I    between atoms: C15_23  and  N6_40 
REMARK   14  A    between atoms: C16_25  and  C17_26 
REMARK   15  A    between atoms: C17_26  and  C18_27 
REMARK   16  A    between atoms: C17_26  and  C19_28 
REMARK   17  A    between atoms: C20_29  and  C21_30 
REMARK   18  A    between atoms: C20_29  and  C24_33 
REMARK   19  A    between atoms: C20_29  and  N6_40 
REMARK   20  A    between atoms: C21_30  and  C22_31 
REMARK   21  A    between atoms: C22_31  and  C23_32 
REMARK   22  A    between atoms: C23_32  and  O8_43 
REMARK   23  A    between atoms: C24_33  and  C25_34 
REMARK   24  A    between atoms: C28_38  and  O6_39 
REMARK   25  A    between atoms: C29_42  and  O8_43 
REMARK   26  A    between atoms: C29_42  and  C35_49 
ROOT
ATOM      1  C14 non d ame     -31.146  10.982  25.185  0.00  0.00     0.089 C 
ATOM      2  H20 non d ame     -30.096  10.738  25.018  0.00  0.00     0.087 H 
ENDROOT
BRANCH   1   3
ATOM      3  N4  non d ame     -31.376  12.316  24.650  0.00  0.00    -0.346 N 
ATOM      4  C10 non d ame     -30.676  12.764  23.392  0.00  0.00     0.241 C 
ATOM      5  O4  non d ame     -29.930  12.034  22.827  0.00  0.00    -0.271 OA
ATOM      6  H19 non d ame     -32.012  12.923  25.147  0.00  0.00     0.163 HD
BRANCH   4   7
ATOM      7  C9  non d ame     -30.929  14.146  22.851  0.00  0.00     0.092 C 
ATOM      8  H11 non d ame     -31.937  14.191  22.439  0.00  0.00     0.088 H 
BRANCH   7   9
ATOM      9  N3  non d ame     -30.864  15.120  23.945  0.00  0.00    -0.346 N 
ATOM     10  C7  non d ame     -32.077  15.568  24.583  0.00  0.00     0.240 C 
ATOM     11  O3  non d ame     -33.114  15.156  24.229  0.00  0.00    -0.271 OA
ATOM     12  H10 non d ame     -29.977  15.485  24.260  0.00  0.00     0.163 HD
BRANCH  10  13
ATOM     13  C6  non d ame     -32.002  16.607  25.745  0.00  0.00     0.086 C 
ATOM     14  H6  non d ame     -31.193  17.325  25.617  0.00  0.00     0.086 H 
BRANCH  13  15
ATOM     15  N2  non d ame     -33.237  17.372  25.774  0.00  0.00    -0.343 N 
ATOM     16  C5  non d ame     -33.208  18.773  26.198  0.00  0.00     0.273 C 
ATOM     17  O2  non d ame     -32.186  19.276  26.516  0.00  0.00    -0.266 OA
ATOM     18  H5  non d ame     -34.106  16.934  25.504  0.00  0.00     0.163 HD
BRANCH  16  19
ATOM     19  C4  non d ame     -34.506  19.595  26.232  0.00  0.00     0.154 A 
ATOM     20  C1  non d ame     -35.648  19.444  25.383  0.00  0.00    -0.017 A 
ATOM     21  C2  non d ame     -36.559  20.430  25.821  0.00  0.00     0.077 A 
ATOM     22  H1  non d ame     -35.793  18.728  24.574  0.00  0.00     0.091 H 
ATOM     23  O1  non d ame     -35.998  21.066  26.807  0.00  0.00    -0.218 OA
ATOM     24  N1  non d ame     -34.799  20.597  27.065  0.00  0.00    -0.123 NA
BRANCH  21  25
ATOM     25  C3  non d ame     -37.943  20.698  25.246  0.00  0.00    -0.029 C 
ATOM     26  H2  non d ame     -38.281  21.687  25.555  0.00  0.00     0.036 H 
ATOM     27  H3  non d ame     -37.900  20.654  24.157  0.00  0.00     0.036 H 
ATOM     28  H4  non d ame     -38.641  19.945  25.611  0.00  0.00     0.036 H 
ENDBRANCH  21  25
ENDBRANCH  16  19
ENDBRANCH  13  15
BRANCH  13  29
ATOM     29  C8  non d ame     -31.809  15.886  27.055  0.00  0.00    -0.049 C 
ATOM     30  H7  non d ame     -31.677  14.821  26.869  0.00  0.00     0.030 H 
ATOM     31  H8  non d ame     -30.926  16.278  27.560  0.00  0.00     0.030 H 
ATOM     32  H9  non d ame     -32.686  16.038  27.686  0.00  0.00     0.030 H 
ENDBRANCH  13  29
ENDBRANCH  10  13
ENDBRANCH   7   9
BRANCH   7  33
ATOM     33  C11 non d ame     -29.845  14.493  21.787  0.00  0.00    -0.033 C 
ATOM     34  H12 non d ame     -29.496  13.555  21.356  0.00  0.00     0.042 H 
BRANCH  33  35
ATOM     35  C12 non d ame     -30.442  15.349  20.627  0.00  0.00    -0.071 C 
ATOM     36  H13 non d ame     -30.103  14.951  19.670  0.00  0.00     0.028 H 
ATOM     37  H14 non d ame     -31.530  15.313  20.670  0.00  0.00     0.028 H 
ATOM     38  H15 non d ame     -30.107  16.381  20.728  0.00  0.00     0.028 H 
ENDBRANCH  33  35
BRANCH  33  39
ATOM     39  C13 non d ame     -28.622  15.206  22.447  0.00  0.00    -0.071 C 
ATOM     40  H16 non d ame     -28.438  14.775  23.432  0.00  0.00     0.028 H 
ATOM     41  H17 non d ame     -27.740  15.071  21.820  0.00  0.00     0.028 H 
ATOM     42  H18 non d ame     -28.834  16.270  22.550  0.00  0.00     0.028 H 
ENDBRANCH  33  39
ENDBRANCH   7  33
ENDBRANCH   4   7
ENDBRANCH   1   3
BRANCH   1  43
ATOM     43  C15 non d ame     -32.102   9.988  24.463  0.00  0.00     0.240 C 
ATOM     44  O5  non d ame     -33.212  10.321  24.201  0.00  0.00    -0.271 OA
ATOM     45  N6  non d ame     -31.629   8.624  24.091  0.00  0.00    -0.355 N 
ATOM     46  H46 non d ame     -30.686   8.332  24.304  0.00  0.00     0.162 HD
BRANCH  45  47
ATOM     47  C20 non d ame     -32.550   7.692  23.405  0.00  0.00     0.013 C 
ATOM     48  H30 non d ame     -33.374   8.276  22.997  0.00  0.00     0.072 H 
BRANCH  47  49
ATOM     49  C21 non d ame     -33.074   6.683  24.401  0.00  0.00    -0.038 C 
ATOM     50  H31 non d ame     -33.814   7.216  24.999  0.00  0.00     0.036 H 
ATOM     51  H32 non d ame     -33.371   5.815  23.812  0.00  0.00     0.036 H 
BRANCH  49  52
ATOM     52  C22 non d ame     -31.988   6.192  25.384  0.00  0.00     0.018 C 
ATOM     53  H33 non d ame     -31.887   5.123  25.201  0.00  0.00     0.048 H 
ATOM     54  H34 non d ame     -31.136   6.855  25.236  0.00  0.00     0.048 H 
BRANCH  52  55
ATOM     55  C23 non d ame     -32.387   6.335  26.879  0.00  0.00     0.259 C 
ATOM     56  O7  non d ame     -32.177   5.452  27.647  0.00  0.00    -0.265 OA
BRANCH  55  57
ATOM     57  O8  non d ame     -33.021   7.530  27.320  0.00  0.00    -0.317 OA
BRANCH  57  58
ATOM     58  C29 non d ame     -34.227   7.312  28.057  0.00  0.00     0.052 C 
ATOM     59  H47 non d ame     -35.040   7.502  27.356  0.00  0.00     0.082 H 
ATOM     60  H48 non d ame     -34.121   6.330  28.515  0.00  0.00     0.082 H 
BRANCH  58  61
ATOM     61  C35 non d ame     -34.296   8.375  29.187  0.00  0.00    -0.034 A 
ATOM     62  C30 non d ame     -35.294   8.298  30.154  0.00  0.00    -0.075 A 
ATOM     63  C31 non d ame     -35.356   9.252  31.169  0.00  0.00    -0.082 A 
ATOM     64  H49 non d ame     -36.027   7.493  30.117  0.00  0.00     0.084 H 
ATOM     65  C32 non d ame     -34.417  10.286  31.214  0.00  0.00    -0.083 A 
ATOM     66  H50 non d ame     -36.138   9.189  31.927  0.00  0.00     0.083 H 
ATOM     67  C33 non d ame     -33.426  10.360  30.245  0.00  0.00    -0.082 A 
ATOM     68  H51 non d ame     -34.458  11.036  32.005  0.00  0.00     0.083 H 
ATOM     69  C34 non d ame     -33.359   9.408  29.230  0.00  0.00    -0.075 A 
ATOM     70  H52 non d ame     -32.695  11.169  30.281  0.00  0.00     0.083 H 
ATOM     71  H53 non d ame     -32.576   9.471  28.473  0.00  0.00     0.084 H 
ENDBRANCH  58  61
ENDBRANCH  57  58
ENDBRANCH  55  57
ENDBRANCH  52  55
ENDBRANCH  49  52
ENDBRANCH  47  49
BRANCH  47  72
ATOM     72  C24 non d ame     -31.809   6.966  22.284  0.00  0.00    -0.039 C 
ATOM     73  H35 non d ame     -30.799   7.379  22.290  0.00  0.00     0.036 H 
ATOM     74  H36 non d ame     -31.964   5.904  22.474  0.00  0.00     0.036 H 
BRANCH  72  75
ATOM     75  C25 non d ame     -32.442   7.288  20.849  0.00  0.00    -0.001 C 
ATOM     76  C26 non d ame     -33.940   7.941  21.032  0.00  0.00    -0.035 C 
ATOM     77  C27 non d ame     -34.814   7.255  20.257  0.00  0.00     0.085 C 
ATOM     78  H38 non d ame     -34.304   7.765  22.043  0.00  0.00     0.036 H 
ATOM     79  H39 non d ame     -33.963   8.947  20.612  0.00  0.00     0.036 H 
ATOM     80  N5  non d ame     -34.114   5.991  19.816  0.00  0.00    -0.049 N 
ATOM     81  H40 non d ame     -35.642   6.992  20.915  0.00  0.00     0.075 H 
ATOM     82  H41 non d ame     -34.989   7.886  19.386  0.00  0.00     0.075 H 
ATOM     83  C28 non d ame     -32.547   6.217  20.134  0.00  0.00     0.193 C 
ATOM     84  H42 non d ame     -34.459   5.251  20.410  0.00  0.00     0.280 HD
ATOM     85  H43 non d ame     -34.234   5.933  18.815  0.00  0.00     0.280 HD
ATOM     86  H44 non d ame     -31.847   6.446  19.330  0.00  0.00     0.129 H 
ATOM     87  H37 non d ame     -31.746   7.817  20.199  0.00  0.00     0.046 H 
BRANCH  83  88
ATOM     88  O6  non d ame     -32.009   5.072  20.797  0.00  0.00    -0.369 OA
ATOM     89  H45 non d ame     -32.234   5.106  21.730  0.00  0.00     0.212 HD
ENDBRANCH  83  88
ENDBRANCH  72  75
ENDBRANCH  47  72
ENDBRANCH  45  47
ENDBRANCH   1  43
BRANCH   1  90
ATOM     90  C16 non d ame     -31.443  10.986  26.675  0.00  0.00    -0.035 C 
ATOM     91  H21 non d ame     -32.344  10.386  26.791  0.00  0.00     0.037 H 
ATOM     92  H22 non d ame     -30.514  10.675  27.155  0.00  0.00     0.037 H 
BRANCH  90  93
ATOM     93  C17 non d ame     -31.781  12.401  27.243  0.00  0.00    -0.059 C 
ATOM     94  H23 non d ame     -31.408  13.139  26.533  0.00  0.00     0.038 H 
BRANCH  93  95
ATOM     95  C18 non d ame     -33.319  12.623  27.396  0.00  0.00    -0.073 C 
ATOM     96  H24 non d ame     -33.554  12.841  28.439  0.00  0.00     0.028 H 
ATOM     97  H25 non d ame     -33.629  13.462  26.773  0.00  0.00     0.028 H 
ATOM     98  H26 non d ame     -33.849  11.724  27.085  0.00  0.00     0.028 H 
ENDBRANCH  93  95
BRANCH  93  99
ATOM     99  C19 non d ame     -31.061  12.644  28.572  0.00  0.00    -0.073 C 
ATOM    100  H27 non d ame     -30.021  12.324  28.486  0.00  0.00     0.028 H 
ATOM    101  H28 non d ame     -31.094  13.706  28.816  0.00  0.00     0.028 H 
ATOM    102  H29 non d ame     -31.552  12.074  29.361  0.00  0.00     0.028 H 
ENDBRANCH  93  99
ENDBRANCH  90  93
ENDBRANCH   1  90
TORSDOF 26
ENDMDL
MODEL 18
REMARK VINA RESULT:      -6.2      2.667      6.663
REMARK  26 active torsions:
REMARK  status: ('A' for Active; 'I' for Inactive)
REMARK    1  A    between atoms: C2_2  and  C3_3 
REMARK    2  A    between atoms: C4_6  and  C5_7 
REMARK       I    between atoms: C5_7  and  N2_9 
REMARK    3  A    between atoms: N2_9  and  C6_10 
REMARK    4  A    between atoms: C6_10  and  C7_11 
REMARK    5  A    between atoms: C6_10  and  C8_13 
REMARK       I    between atoms: C7_11  and  N3_14 
REMARK    6  A    between atoms: N3_14  and  C9_15 
REMARK    7  A    between atoms: C9_15  and  C10_16 
REMARK    8  A    between atoms: C9_15  and  C11_18 
REMARK       I    between atoms: C10_16  and  N4_21 
REMARK    9  A    between atoms: C11_18  and  C12_19 
REMARK   10  A    between atoms: C11_18  and  C13_20 
REMARK   11  A    between atoms: N4_21  and  C14_22 
REMARK   12  A    between atoms: C14_22  and  C15_23 
REMARK   13  A    between atoms: C14_22  and  C16_25 
REMARK       I    between atoms: C15_23  and  N6_40 
REMARK   14  A    between atoms: C16_25  and  C17_26 
REMARK   15  A    between atoms: C17_26  and  C18_27 
REMARK   16  A    between atoms: C17_26  and  C19_28 
REMARK   17  A    between atoms: C20_29  and  C21_30 
REMARK   18  A    between atoms: C20_29  and  C24_33 
REMARK   19  A    between atoms: C20_29  and  N6_40 
REMARK   20  A    between atoms: C21_30  and  C22_31 
REMARK   21  A    between atoms: C22_31  and  C23_32 
REMARK   22  A    between atoms: C23_32  and  O8_43 
REMARK   23  A    between atoms: C24_33  and  C25_34 
REMARK   24  A    between atoms: C28_38  and  O6_39 
REMARK   25  A    between atoms: C29_42  and  O8_43 
REMARK   26  A    between atoms: C29_42  and  C35_49 
ROOT
ATOM      1  C14 non d ame     -33.184  12.049  28.925  0.00  0.00     0.089 C 
ATOM      2  H20 non d ame     -33.165  12.327  29.979  0.00  0.00     0.087 H 
ENDROOT
BRANCH   1   3
ATOM      3  N4  non d ame     -33.960  10.823  28.810  0.00  0.00    -0.346 N 
ATOM      4  C10 non d ame     -34.040   9.860  29.967  0.00  0.00     0.241 C 
ATOM      5  O4  non d ame     -33.471  10.092  30.982  0.00  0.00    -0.271 OA
ATOM      6  H19 non d ame     -34.434  10.642  27.937  0.00  0.00     0.163 HD
BRANCH   4   7
ATOM      7  C9  non d ame     -34.851   8.598  29.831  0.00  0.00     0.092 C 
ATOM      8  H11 non d ame     -35.730   8.800  29.219  0.00  0.00     0.088 H 
BRANCH   7   9
ATOM      9  N3  non d ame     -34.060   7.581  29.132  0.00  0.00    -0.346 N 
ATOM     10  C7  non d ame     -34.165   7.445  27.700  0.00  0.00     0.240 C 
ATOM     11  O3  non d ame     -34.882   8.146  27.095  0.00  0.00    -0.271 OA
ATOM     12  H10 non d ame     -33.439   6.969  29.641  0.00  0.00     0.163 HD
BRANCH  10  13
ATOM     13  C6  non d ame     -33.323   6.359  26.962  0.00  0.00     0.086 C 
ATOM     14  H6  non d ame     -33.607   5.344  27.240  0.00  0.00     0.086 H 
BRANCH  13  15
ATOM     15  N2  non d ame     -33.551   6.477  25.531  0.00  0.00    -0.343 N 
ATOM     16  C5  non d ame     -33.594   5.269  24.705  0.00  0.00     0.273 C 
ATOM     17  O2  non d ame     -33.440   4.206  25.200  0.00  0.00    -0.266 OA
ATOM     18  H5  non d ame     -33.679   7.389  25.116  0.00  0.00     0.163 HD
BRANCH  16  19
ATOM     19  C4  non d ame     -33.835   5.379  23.191  0.00  0.00     0.154 A 
ATOM     20  C1  non d ame     -33.102   6.174  22.255  0.00  0.00    -0.017 A 
ATOM     21  C2  non d ame     -33.716   5.924  21.007  0.00  0.00     0.077 A 
ATOM     22  H1  non d ame     -32.255   6.832  22.450  0.00  0.00     0.091 H 
ATOM     23  O1  non d ame     -34.684   5.081  21.214  0.00  0.00    -0.218 OA
ATOM     24  N1  non d ame     -34.774   4.748  22.481  0.00  0.00    -0.123 NA
BRANCH  21  25
ATOM     25  C3  non d ame     -33.315   6.527  19.668  0.00  0.00    -0.029 C 
ATOM     26  H2  non d ame     -32.702   5.815  19.117  0.00  0.00     0.036 H 
ATOM     27  H3  non d ame     -34.211   6.756  19.090  0.00  0.00     0.036 H 
ATOM     28  H4  non d ame     -32.748   7.442  19.836  0.00  0.00     0.036 H 
ENDBRANCH  21  25
ENDBRANCH  16  19
ENDBRANCH  13  15
BRANCH  13  29
ATOM     29  C8  non d ame     -31.861   6.557  27.270  0.00  0.00    -0.049 C 
ATOM     30  H7  non d ame     -31.365   7.005  26.410  0.00  0.00     0.030 H 
ATOM     31  H8  non d ame     -31.757   7.216  28.132  0.00  0.00     0.030 H 
ATOM     32  H9  non d ame     -31.403   5.592  27.492  0.00  0.00     0.030 H 
ENDBRANCH  13  29
ENDBRANCH  10  13
ENDBRANCH   7   9
BRANCH   7  33
ATOM     33  C11 non d ame     -35.232   8.072  31.247  0.00  0.00    -0.033 C 
ATOM     34  H12 non d ame     -34.485   8.446  31.948  0.00  0.00     0.042 H 
BRANCH  33  35
ATOM     35  C12 non d ame     -36.619   8.622  31.702  0.00  0.00    -0.071 C 
ATOM     36  H13 non d ame     -36.506   9.646  32.059  0.00  0.00     0.028 H 
ATOM     37  H14 non d ame     -37.312   8.604  30.861  0.00  0.00     0.028 H 
ATOM     38  H15 non d ame     -37.010   8.000  32.508  0.00  0.00     0.028 H 
ENDBRANCH  33  35
BRANCH  33  39
ATOM     39  C13 non d ame     -35.197   6.511  31.291  0.00  0.00    -0.071 C 
ATOM     40  H16 non d ame     -35.368   6.173  32.313  0.00  0.00     0.028 H 
ATOM     41  H17 non d ame     -35.976   6.111  30.640  0.00  0.00     0.028 H 
ATOM     42  H18 non d ame     -34.224   6.159  30.950  0.00  0.00     0.028 H 
ENDBRANCH  33  39
ENDBRANCH   7  33
ENDBRANCH   4   7
ENDBRANCH   1   3
BRANCH   1  43
ATOM     43  C15 non d ame     -33.852  13.142  28.042  0.00  0.00     0.240 C 
ATOM     44  O5  non d ame     -34.687  12.837  27.254  0.00  0.00    -0.271 OA
ATOM     45  N6  non d ame     -33.457  14.572  28.187  0.00  0.00    -0.355 N 
ATOM     46  H46 non d ame     -32.752  14.845  28.857  0.00  0.00     0.162 HD
BRANCH  45  47
ATOM     47  C20 non d ame     -34.102  15.600  27.341  0.00  0.00     0.013 C 
ATOM     48  H30 non d ame     -35.150  15.326  27.223  0.00  0.00     0.072 H 
BRANCH  47  49
ATOM     49  C21 non d ame     -33.421  15.636  25.991  0.00  0.00    -0.038 C 
ATOM     50  H31 non d ame     -33.763  14.744  25.465  0.00  0.00     0.036 H 
ATOM     51  H32 non d ame     -33.631  16.624  25.582  0.00  0.00     0.036 H 
BRANCH  49  52
ATOM     52  C22 non d ame     -31.884  15.522  26.092  0.00  0.00     0.018 C 
ATOM     53  H33 non d ame     -31.537  16.501  26.420  0.00  0.00     0.048 H 
ATOM     54  H34 non d ame     -31.694  14.642  26.706  0.00  0.00     0.048 H 
BRANCH  52  55
ATOM     55  C23 non d ame     -31.186  15.254  24.731  0.00  0.00     0.259 C 
ATOM     56  O7  non d ame     -31.073  16.124  23.929  0.00  0.00    -0.265 OA
BRANCH  55  57
ATOM     57  O8  non d ame     -30.693  13.950  24.445  0.00  0.00    -0.317 OA
BRANCH  57  58
ATOM     58  C29 non d ame     -31.435  12.897  25.067  0.00  0.00     0.052 C 
ATOM     59  H47 non d ame     -30.986  12.761  26.051  0.00  0.00     0.082 H 
ATOM     60  H48 non d ame     -32.483  13.183  24.981  0.00  0.00     0.082 H 
BRANCH  58  61
ATOM     61  C35 non d ame     -31.212  11.602  24.241  0.00  0.00    -0.034 A 
ATOM     62  C30 non d ame     -30.312  11.600  23.180  0.00  0.00    -0.075 A 
ATOM     63  C31 non d ame     -30.112  10.437  22.437  0.00  0.00    -0.082 A 
ATOM     64  H49 non d ame     -29.765  12.508  22.929  0.00  0.00     0.084 H 
ATOM     65  C32 non d ame     -30.816   9.273  22.759  0.00  0.00    -0.083 A 
ATOM     66  H50 non d ame     -29.404  10.438  21.607  0.00  0.00     0.083 H 
ATOM     67  C33 non d ame     -31.716   9.282  23.816  0.00  0.00    -0.082 A 
ATOM     68  H51 non d ame     -30.664   8.359  22.183  0.00  0.00     0.083 H 
ATOM     69  C34 non d ame     -31.918  10.441  24.562  0.00  0.00    -0.075 A 
ATOM     70  H52 non d ame     -32.266   8.373  24.063  0.00  0.00     0.083 H 
ATOM     71  H53 non d ame     -32.624  10.440  25.392  0.00  0.00     0.084 H 
ENDBRANCH  58  61
ENDBRANCH  57  58
ENDBRANCH  55  57
ENDBRANCH  52  55
ENDBRANCH  49  52
ENDBRANCH  47  49
BRANCH  47  72
ATOM     72  C24 non d ame     -33.984  16.968  28.009  0.00  0.00    -0.039 C 
ATOM     73  H35 non d ame     -34.737  16.970  28.799  0.00  0.00     0.036 H 
ATOM     74  H36 non d ame     -32.929  17.077  28.262  0.00  0.00     0.036 H 
BRANCH  72  75
ATOM     75  C25 non d ame     -34.353  18.155  27.000  0.00  0.00    -0.001 C 
ATOM     76  C26 non d ame     -33.017  19.061  26.688  0.00  0.00    -0.035 C 
ATOM     77  C27 non d ame     -33.315  20.366  26.900  0.00  0.00     0.085 C 
ATOM     78  H38 non d ame     -32.244  18.853  27.427  0.00  0.00     0.036 H 
ATOM     79  H39 non d ame     -32.779  19.023  25.625  0.00  0.00     0.036 H 
ATOM     80  N5  non d ame     -34.630  20.403  27.640  0.00  0.00    -0.049 N 
ATOM     81  H40 non d ame     -32.527  20.741  27.553  0.00  0.00     0.075 H 
ATOM     82  H41 non d ame     -33.452  20.797  25.909  0.00  0.00     0.075 H 
ATOM     83  C28 non d ame     -35.263  18.925  27.497  0.00  0.00     0.193 C 
ATOM     84  H42 non d ame     -34.407  20.564  28.611  0.00  0.00     0.280 HD
ATOM     85  H43 non d ame     -35.219  21.055  27.142  0.00  0.00     0.280 HD
ATOM     86  H44 non d ame     -36.082  18.739  26.801  0.00  0.00     0.129 H 
ATOM     87  H37 non d ame     -34.925  17.804  26.141  0.00  0.00     0.046 H 
BRANCH  83  88
ATOM     88  O6  non d ame     -35.727  18.462  28.766  0.00  0.00    -0.369 OA
ATOM     89  H45 non d ame     -34.974  18.238  29.320  0.00  0.00     0.212 HD
ENDBRANCH  83  88
ENDBRANCH  72  75
ENDBRANCH  47  72
ENDBRANCH  45  47
ENDBRANCH   1  43
BRANCH   1  90
ATOM     90  C16 non d ame     -31.769  11.790  28.435  0.00  0.00    -0.035 C 
ATOM     91  H21 non d ame     -31.618  10.717  28.542  0.00  0.00     0.037 H 
ATOM     92  H22 non d ame     -31.716  12.253  27.449  0.00  0.00     0.037 H 
BRANCH  90  93
ATOM     93  C17 non d ame     -30.669  12.478  29.306  0.00  0.00    -0.059 C 
ATOM     94  H23 non d ame     -29.781  11.847  29.275  0.00  0.00     0.038 H 
BRANCH  93  95
ATOM     95  C18 non d ame     -30.273  13.884  28.753  0.00  0.00    -0.073 C 
ATOM     96  H24 non d ame     -30.440  14.638  29.522  0.00  0.00     0.028 H 
ATOM     97  H25 non d ame     -29.220  13.881  28.473  0.00  0.00     0.028 H 
ATOM     98  H26 non d ame     -30.881  14.115  27.878  0.00  0.00     0.028 H 
ENDBRANCH  93  95
BRANCH  93  99
ATOM     99  C19 non d ame     -31.110  12.573  30.769  0.00  0.00    -0.073 C 
ATOM    100  H27 non d ame     -30.329  12.164  31.411  0.00  0.00     0.028 H 
ATOM    101  H28 non d ame     -31.283  13.617  31.030  0.00  0.00     0.028 H 
ATOM    102  H29 non d ame     -32.030  12.006  30.909  0.00  0.00     0.028 H 
ENDBRANCH  93  99
ENDBRANCH  90  93
ENDBRANCH   1  90
TORSDOF 26
ENDMDL
MODEL 19
REMARK VINA RESULT:      -6.2      3.182      6.551
REMARK  26 active torsions:
REMARK  status: ('A' for Active; 'I' for Inactive)
REMARK    1  A    between atoms: C2_2  and  C3_3 
REMARK    2  A    between atoms: C4_6  and  C5_7 
REMARK       I    between atoms: C5_7  and  N2_9 
REMARK    3  A    between atoms: N2_9  and  C6_10 
REMARK    4  A    between atoms: C6_10  and  C7_11 
REMARK    5  A    between atoms: C6_10  and  C8_13 
REMARK       I    between atoms: C7_11  and  N3_14 
REMARK    6  A    between atoms: N3_14  and  C9_15 
REMARK    7  A    between atoms: C9_15  and  C10_16 
REMARK    8  A    between atoms: C9_15  and  C11_18 
REMARK       I    between atoms: C10_16  and  N4_21 
REMARK    9  A    between atoms: C11_18  and  C12_19 
REMARK   10  A    between atoms: C11_18  and  C13_20 
REMARK   11  A    between atoms: N4_21  and  C14_22 
REMARK   12  A    between atoms: C14_22  and  C15_23 
REMARK   13  A    between atoms: C14_22  and  C16_25 
REMARK       I    between atoms: C15_23  and  N6_40 
REMARK   14  A    between atoms: C16_25  and  C17_26 
REMARK   15  A    between atoms: C17_26  and  C18_27 
REMARK   16  A    between atoms: C17_26  and  C19_28 
REMARK   17  A    between atoms: C20_29  and  C21_30 
REMARK   18  A    between atoms: C20_29  and  C24_33 
REMARK   19  A    between atoms: C20_29  and  N6_40 
REMARK   20  A    between atoms: C21_30  and  C22_31 
REMARK   21  A    between atoms: C22_31  and  C23_32 
REMARK   22  A    between atoms: C23_32  and  O8_43 
REMARK   23  A    between atoms: C24_33  and  C25_34 
REMARK   24  A    between atoms: C28_38  and  O6_39 
REMARK   25  A    between atoms: C29_42  and  O8_43 
REMARK   26  A    between atoms: C29_42  and  C35_49 
ROOT
ATOM      1  C14 non d ame     -32.875   9.889  25.195  0.00  0.00     0.089 C 
ATOM      2  H20 non d ame     -33.016   9.393  26.155  0.00  0.00     0.087 H 
ENDROOT
BRANCH   1   3
ATOM      3  N4  non d ame     -34.146  10.494  24.823  0.00  0.00    -0.346 N 
ATOM      4  C10 non d ame     -35.228  10.687  25.854  0.00  0.00     0.241 C 
ATOM      5  O4  non d ame     -35.055  10.346  26.978  0.00  0.00    -0.271 OA
ATOM      6  H19 non d ame     -34.274  10.775  23.862  0.00  0.00     0.163 HD
BRANCH   4   7
ATOM      7  C9  non d ame     -36.535  11.319  25.454  0.00  0.00     0.092 C 
ATOM      8  H11 non d ame     -37.201  11.343  26.316  0.00  0.00     0.088 H 
BRANCH   7   9
ATOM      9  N3  non d ame     -36.302  12.708  25.046  0.00  0.00    -0.346 N 
ATOM     10  C7  non d ame     -36.756  13.790  25.885  0.00  0.00     0.240 C 
ATOM     11  O3  non d ame     -37.309  13.561  26.890  0.00  0.00    -0.271 OA
ATOM     12  H10 non d ame     -35.827  12.920  24.181  0.00  0.00     0.163 HD
BRANCH  10  13
ATOM     13  C6  non d ame     -36.508  15.266  25.444  0.00  0.00     0.086 C 
ATOM     14  H6  non d ame     -37.324  15.670  24.846  0.00  0.00     0.086 H 
BRANCH  13  15
ATOM     15  N2  non d ame     -36.408  16.102  26.629  0.00  0.00    -0.343 N 
ATOM     16  C5  non d ame     -36.929  17.469  26.594  0.00  0.00     0.273 C 
ATOM     17  O2  non d ame     -37.425  17.890  25.607  0.00  0.00    -0.266 OA
ATOM     18  H5  non d ame     -35.980  15.735  27.468  0.00  0.00     0.163 HD
BRANCH  16  19
ATOM     19  C4  non d ame     -36.830  18.363  27.841  0.00  0.00     0.154 A 
ATOM     20  C1  non d ame     -37.528  18.200  29.079  0.00  0.00    -0.017 A 
ATOM     21  C2  non d ame     -37.090  19.273  29.886  0.00  0.00     0.077 A 
ATOM     22  H1  non d ame     -38.243  17.423  29.350  0.00  0.00     0.091 H 
ATOM     23  O1  non d ame     -36.240  19.964  29.186  0.00  0.00    -0.218 OA
ATOM     24  N1  non d ame     -36.072  19.452  27.988  0.00  0.00    -0.123 NA
BRANCH  21  25
ATOM     25  C3  non d ame     -37.531  19.566  31.314  0.00  0.00    -0.029 C 
ATOM     26  H2  non d ame     -38.418  18.978  31.549  0.00  0.00     0.036 H 
ATOM     27  H3  non d ame     -36.730  19.300  32.004  0.00  0.00     0.036 H 
ATOM     28  H4  non d ame     -37.760  20.626  31.415  0.00  0.00     0.036 H 
ENDBRANCH  21  25
ENDBRANCH  16  19
ENDBRANCH  13  15
BRANCH  13  29
ATOM     29  C8  non d ame     -35.233  15.348  24.645  0.00  0.00    -0.049 C 
ATOM     30  H7  non d ame     -34.612  16.156  25.031  0.00  0.00     0.030 H 
ATOM     31  H8  non d ame     -34.691  14.405  24.726  0.00  0.00     0.030 H 
ATOM     32  H9  non d ame     -35.472  15.541  23.598  0.00  0.00     0.030 H 
ENDBRANCH  13  29
ENDBRANCH  10  13
ENDBRANCH   7   9
BRANCH   7  33
ATOM     33  C11 non d ame     -37.149  10.527  24.261  0.00  0.00    -0.033 C 
ATOM     34  H12 non d ame     -36.327  10.062  23.717  0.00  0.00     0.042 H 
BRANCH  33  35
ATOM     35  C12 non d ame     -38.087   9.385  24.761  0.00  0.00    -0.071 C 
ATOM     36  H13 non d ame     -39.104   9.765  24.856  0.00  0.00     0.028 H 
ATOM     37  H14 non d ame     -38.072   8.563  24.046  0.00  0.00     0.028 H 
ATOM     38  H15 non d ame     -37.741   9.029  25.732  0.00  0.00     0.028 H 
ENDBRANCH  33  35
BRANCH  33  39
ATOM     39  C13 non d ame     -37.896  11.486  23.280  0.00  0.00    -0.071 C 
ATOM     40  H16 non d ame     -37.198  12.231  22.897  0.00  0.00     0.028 H 
ATOM     41  H17 non d ame     -38.305  10.910  22.449  0.00  0.00     0.028 H 
ATOM     42  H18 non d ame     -38.708  11.986  23.807  0.00  0.00     0.028 H 
ENDBRANCH  33  39
ENDBRANCH   7  33
ENDBRANCH   4   7
ENDBRANCH   1   3
BRANCH   1  43
ATOM     43  C15 non d ame     -31.796  11.008  25.266  0.00  0.00     0.240 C 
ATOM     44  O5  non d ame     -30.951  10.962  26.101  0.00  0.00    -0.271 OA
ATOM     45  N6  non d ame     -31.810  12.132  24.287  0.00  0.00    -0.355 N 
ATOM     46  H46 non d ame     -32.520  12.180  23.570  0.00  0.00     0.162 HD
BRANCH  45  47
ATOM     47  C20 non d ame     -30.777  13.187  24.368  0.00  0.00     0.013 C 
ATOM     48  H30 non d ame     -29.955  12.805  24.974  0.00  0.00     0.072 H 
BRANCH  47  49
ATOM     49  C21 non d ame     -31.369  14.418  25.016  0.00  0.00    -0.038 C 
ATOM     50  H31 non d ame     -30.856  15.266  24.561  0.00  0.00     0.036 H 
ATOM     51  H32 non d ame     -32.449  14.315  24.912  0.00  0.00     0.036 H 
BRANCH  49  52
ATOM     52  C22 non d ame     -31.081  14.495  26.531  0.00  0.00     0.018 C 
ATOM     53  H33 non d ame     -30.392  13.678  26.742  0.00  0.00     0.048 H 
ATOM     54  H34 non d ame     -30.780  15.525  26.722  0.00  0.00     0.048 H 
BRANCH  52  55
ATOM     55  C23 non d ame     -32.331  14.243  27.419  0.00  0.00     0.259 C 
ATOM     56  O7  non d ame     -32.476  13.201  27.973  0.00  0.00    -0.265 OA
BRANCH  55  57
ATOM     57  O8  non d ame     -33.309  15.267  27.553  0.00  0.00    -0.317 OA
BRANCH  57  58
ATOM     58  C29 non d ame     -32.941  16.310  28.459  0.00  0.00     0.052 C 
ATOM     59  H47 non d ame     -33.735  16.349  29.203  0.00  0.00     0.082 H 
ATOM     60  H48 non d ame     -31.918  16.090  28.763  0.00  0.00     0.082 H 
BRANCH  58  61
ATOM     61  C35 non d ame     -32.939  17.649  27.672  0.00  0.00    -0.034 A 
ATOM     62  C30 non d ame     -33.311  17.668  26.331  0.00  0.00    -0.075 A 
ATOM     63  C31 non d ame     -33.309  18.869  25.624  0.00  0.00    -0.082 A 
ATOM     64  H49 non d ame     -33.602  16.743  25.834  0.00  0.00     0.084 H 
ATOM     65  C32 non d ame     -32.933  20.054  26.262  0.00  0.00    -0.083 A 
ATOM     66  H50 non d ame     -33.603  18.882  24.573  0.00  0.00     0.083 H 
ATOM     67  C33 non d ame     -32.559  20.029  27.599  0.00  0.00    -0.082 A 
ATOM     68  H51 non d ame     -32.930  20.999  25.716  0.00  0.00     0.083 H 
ATOM     69  C34 non d ame     -32.561  18.831  28.310  0.00  0.00    -0.075 A 
ATOM     70  H52 non d ame     -32.263  20.955  28.093  0.00  0.00     0.083 H 
ATOM     71  H53 non d ame     -32.268  18.819  29.360  0.00  0.00     0.084 H 
ENDBRANCH  58  61
ENDBRANCH  57  58
ENDBRANCH  55  57
ENDBRANCH  52  55
ENDBRANCH  49  52
ENDBRANCH  47  49
BRANCH  47  72
ATOM     72  C24 non d ame     -30.284  13.535  22.965  0.00  0.00    -0.039 C 
ATOM     73  H35 non d ame     -29.250  13.190  22.927  0.00  0.00     0.036 H 
ATOM     74  H36 non d ame     -31.024  13.114  22.284  0.00  0.00     0.036 H 
BRANCH  72  75
ATOM     75  C25 non d ame     -30.262  15.118  22.720  0.00  0.00    -0.001 C 
ATOM     76  C26 non d ame     -31.318  15.513  21.523  0.00  0.00    -0.035 C 
ATOM     77  C27 non d ame     -30.674  16.276  20.607  0.00  0.00     0.085 C 
ATOM     78  H38 non d ame     -31.597  14.622  20.961  0.00  0.00     0.036 H 
ATOM     79  H39 non d ame     -32.091  16.178  21.910  0.00  0.00     0.036 H 
ATOM     80  N5  non d ame     -29.197  16.164  20.900  0.00  0.00    -0.049 N 
ATOM     81  H40 non d ame     -30.882  15.811  19.643  0.00  0.00     0.075 H 
ATOM     82  H41 non d ame     -30.998  17.298  20.799  0.00  0.00     0.075 H 
ATOM     83  C28 non d ame     -29.085  15.522  22.377  0.00  0.00     0.193 C 
ATOM     84  H42 non d ame     -28.822  15.506  20.233  0.00  0.00     0.280 HD
ATOM     85  H43 non d ame     -28.841  17.109  20.932  0.00  0.00     0.280 HD
ATOM     86  H44 non d ame     -28.832  16.147  23.234  0.00  0.00     0.129 H 
ATOM     87  H37 non d ame     -30.334  15.681  23.650  0.00  0.00     0.046 H 
BRANCH  83  88
ATOM     88  O6  non d ame     -28.128  14.461  22.381  0.00  0.00    -0.369 OA
ATOM     89  H45 non d ame     -27.745  14.379  23.258  0.00  0.00     0.212 HD
ENDBRANCH  83  88
ENDBRANCH  72  75
ENDBRANCH  47  72
ENDBRANCH  45  47
ENDBRANCH   1  43
BRANCH   1  90
ATOM     90  C16 non d ame     -32.483   8.868  24.139  0.00  0.00    -0.035 C 
ATOM     91  H21 non d ame     -33.066   9.127  23.257  0.00  0.00     0.037 H 
ATOM     92  H22 non d ame     -31.394   8.896  24.102  0.00  0.00     0.037 H 
BRANCH  90  93
ATOM     93  C17 non d ame     -32.875   7.402  24.510  0.00  0.00    -0.059 C 
ATOM     94  H23 non d ame     -32.250   6.733  23.918  0.00  0.00     0.038 H 
BRANCH  93  95
ATOM     95  C18 non d ame     -32.614   7.086  26.018  0.00  0.00    -0.073 C 
ATOM     96  H24 non d ame     -33.562   6.888  26.517  0.00  0.00     0.028 H 
ATOM     97  H25 non d ame     -31.972   6.209  26.099  0.00  0.00     0.028 H 
ATOM     98  H26 non d ame     -32.126   7.939  26.489  0.00  0.00     0.028 H 
ENDBRANCH  93  95
BRANCH  93  99
ATOM     99  C19 non d ame     -34.332   7.114  24.138  0.00  0.00    -0.073 C 
ATOM    100  H27 non d ame     -34.993   7.682  24.794  0.00  0.00     0.028 H 
ATOM    101  H28 non d ame     -34.508   7.408  23.103  0.00  0.00     0.028 H 
ATOM    102  H29 non d ame     -34.533   6.050  24.253  0.00  0.00     0.028 H 
ENDBRANCH  93  99
ENDBRANCH  90  93
ENDBRANCH   1  90
TORSDOF 26
ENDMDL
MODEL 20
REMARK VINA RESULT:      -6.1      2.657      8.647
REMARK  26 active torsions:
REMARK  status: ('A' for Active; 'I' for Inactive)
REMARK    1  A    between atoms: C2_2  and  C3_3 
REMARK    2  A    between atoms: C4_6  and  C5_7 
REMARK       I    between atoms: C5_7  and  N2_9 
REMARK    3  A    between atoms: N2_9  and  C6_10 
REMARK    4  A    between atoms: C6_10  and  C7_11 
REMARK    5  A    between atoms: C6_10  and  C8_13 
REMARK       I    between atoms: C7_11  and  N3_14 
REMARK    6  A    between atoms: N3_14  and  C9_15 
REMARK    7  A    between atoms: C9_15  and  C10_16 
REMARK    8  A    between atoms: C9_15  and  C11_18 
REMARK       I    between atoms: C10_16  and  N4_21 
REMARK    9  A    between atoms: C11_18  and  C12_19 
REMARK   10  A    between atoms: C11_18  and  C13_20 
REMARK   11  A    between atoms: N4_21  and  C14_22 
REMARK   12  A    between atoms: C14_22  and  C15_23 
REMARK   13  A    between atoms: C14_22  and  C16_25 
REMARK       I    between atoms: C15_23  and  N6_40 
REMARK   14  A    between atoms: C16_25  and  C17_26 
REMARK   15  A    between atoms: C17_26  and  C18_27 
REMARK   16  A    between atoms: C17_26  and  C19_28 
REMARK   17  A    between atoms: C20_29  and  C21_30 
REMARK   18  A    between atoms: C20_29  and  C24_33 
REMARK   19  A    between atoms: C20_29  and  N6_40 
REMARK   20  A    between atoms: C21_30  and  C22_31 
REMARK   21  A    between atoms: C22_31  and  C23_32 
REMARK   22  A    between atoms: C23_32  and  O8_43 
REMARK   23  A    between atoms: C24_33  and  C25_34 
REMARK   24  A    between atoms: C28_38  and  O6_39 
REMARK   25  A    between atoms: C29_42  and  O8_43 
REMARK   26  A    between atoms: C29_42  and  C35_49 
ROOT
ATOM      1  C14 non d ame     -34.768   6.069  30.405  0.00  0.00     0.089 C 
ATOM      2  H20 non d ame     -34.180   6.157  31.319  0.00  0.00     0.087 H 
ENDROOT
BRANCH   1   3
ATOM      3  N4  non d ame     -35.009   7.415  29.907  0.00  0.00    -0.346 N 
ATOM      4  C10 non d ame     -34.880   8.602  30.827  0.00  0.00     0.241 C 
ATOM      5  O4  non d ame     -34.582   8.450  31.966  0.00  0.00    -0.271 OA
ATOM      6  H19 non d ame     -35.264   7.523  28.936  0.00  0.00     0.163 HD
BRANCH   4   7
ATOM      7  C9  non d ame     -35.129   9.988  30.294  0.00  0.00     0.092 C 
ATOM      8  H11 non d ame     -35.347  10.658  31.125  0.00  0.00     0.088 H 
BRANCH   7   9
ATOM      9  N3  non d ame     -33.915  10.487  29.642  0.00  0.00    -0.346 N 
ATOM     10  C7  non d ame     -33.072  11.440  30.321  0.00  0.00     0.240 C 
ATOM     11  O3  non d ame     -33.356  11.816  31.393  0.00  0.00    -0.271 OA
ATOM     12  H10 non d ame     -33.658  10.173  28.717  0.00  0.00     0.163 HD
BRANCH  10  13
ATOM     13  C6  non d ame     -31.782  11.970  29.622  0.00  0.00     0.086 C 
ATOM     14  H6  non d ame     -31.443  11.320  28.815  0.00  0.00     0.086 H 
BRANCH  13  15
ATOM     15  N2  non d ame     -32.068  13.262  29.021  0.00  0.00    -0.343 N 
ATOM     16  C5  non d ame     -31.529  13.578  27.697  0.00  0.00     0.273 C 
ATOM     17  O2  non d ame     -30.864  12.787  27.124  0.00  0.00    -0.266 OA
ATOM     18  H5  non d ame     -32.635  13.934  29.520  0.00  0.00     0.163 HD
BRANCH  16  19
ATOM     19  C4  non d ame     -31.824  14.941  27.051  0.00  0.00     0.154 A 
ATOM     20  C1  non d ame     -32.565  16.025  27.619  0.00  0.00    -0.017 A 
ATOM     21  C2  non d ame     -32.546  17.035  26.631  0.00  0.00     0.077 A 
ATOM     22  H1  non d ame     -33.042  16.072  28.598  0.00  0.00     0.091 H 
ATOM     23  O1  non d ame     -31.871  16.575  25.619  0.00  0.00    -0.218 OA
ATOM     24  N1  non d ame     -31.439  15.355  25.840  0.00  0.00    -0.123 NA
BRANCH  21  25
ATOM     25  C3  non d ame     -33.196  18.408  26.733  0.00  0.00    -0.029 C 
ATOM     26  H2  non d ame     -33.854  18.436  27.601  0.00  0.00     0.036 H 
ATOM     27  H3  non d ame     -32.422  19.169  26.842  0.00  0.00     0.036 H 
ATOM     28  H4  non d ame     -33.774  18.606  25.831  0.00  0.00     0.036 H 
ENDBRANCH  21  25
ENDBRANCH  16  19
ENDBRANCH  13  15
BRANCH  13  29
ATOM     29  C8  non d ame     -30.676  12.105  30.636  0.00  0.00    -0.049 C 
ATOM     30  H7  non d ame     -29.761  11.667  30.238  0.00  0.00     0.030 H 
ATOM     31  H8  non d ame     -30.508  13.159  30.854  0.00  0.00     0.030 H 
ATOM     32  H9  non d ame     -30.958  11.585  31.553  0.00  0.00     0.030 H 
ENDBRANCH  13  29
ENDBRANCH  10  13
ENDBRANCH   7   9
BRANCH   7  33
ATOM     33  C11 non d ame     -36.290   9.944  29.257  0.00  0.00    -0.033 C 
ATOM     34  H12 non d ame     -36.350   8.925  28.874  0.00  0.00     0.042 H 
BRANCH  33  35
ATOM     35  C12 non d ame     -37.661  10.275  29.925  0.00  0.00    -0.071 C 
ATOM     36  H13 non d ame     -37.499  10.925  30.785  0.00  0.00     0.028 H 
ATOM     37  H14 non d ame     -38.305  10.779  29.205  0.00  0.00     0.028 H 
ATOM     38  H15 non d ame     -38.137   9.351  30.254  0.00  0.00     0.028 H 
ENDBRANCH  33  35
BRANCH  33  39
ATOM     39  C13 non d ame     -36.001  10.897  28.053  0.00  0.00    -0.071 C 
ATOM     40  H16 non d ame     -36.870  10.925  27.395  0.00  0.00     0.028 H 
ATOM     41  H17 non d ame     -35.793  11.900  28.425  0.00  0.00     0.028 H 
ATOM     42  H18 non d ame     -35.138  10.530  27.498  0.00  0.00     0.028 H 
ENDBRANCH  33  39
ENDBRANCH   7  33
ENDBRANCH   4   7
ENDBRANCH   1   3
BRANCH   1  43
ATOM     43  C15 non d ame     -34.022   5.260  29.304  0.00  0.00     0.240 C 
ATOM     44  O5  non d ame     -33.417   4.281  29.598  0.00  0.00    -0.271 OA
ATOM     45  N6  non d ame     -34.071   5.702  27.881  0.00  0.00    -0.355 N 
ATOM     46  H46 non d ame     -34.586   6.530  27.618  0.00  0.00     0.162 HD
BRANCH  45  47
ATOM     47  C20 non d ame     -33.358   4.921  26.847  0.00  0.00     0.013 C 
ATOM     48  H30 non d ame     -32.950   4.030  27.323  0.00  0.00     0.072 H 
BRANCH  47  49
ATOM     49  C21 non d ame     -32.238   5.759  26.271  0.00  0.00    -0.038 C 
ATOM     50  H31 non d ame     -31.365   5.107  26.248  0.00  0.00     0.036 H 
ATOM     51  H32 non d ame     -32.631   6.178  25.345  0.00  0.00     0.036 H 
BRANCH  49  52
ATOM     52  C22 non d ame     -31.865   6.959  27.169  0.00  0.00     0.018 C 
ATOM     53  H33 non d ame     -32.200   6.693  28.171  0.00  0.00     0.048 H 
ATOM     54  H34 non d ame     -30.809   7.151  26.980  0.00  0.00     0.048 H 
BRANCH  52  55
ATOM     55  C23 non d ame     -32.612   8.271  26.802  0.00  0.00     0.259 C 
ATOM     56  O7  non d ame     -33.662   8.526  27.298  0.00  0.00    -0.265 OA
BRANCH  55  57
ATOM     57  O8  non d ame     -32.033   9.161  25.855  0.00  0.00    -0.317 OA
BRANCH  57  58
ATOM     58  C29 non d ame     -32.941   9.605  24.842  0.00  0.00     0.052 C 
ATOM     59  H47 non d ame     -33.936   9.356  25.209  0.00  0.00     0.082 H 
ATOM     60  H48 non d ame     -32.676  10.642  24.643  0.00  0.00     0.082 H 
BRANCH  58  61
ATOM     61  C35 non d ame     -32.669   8.775  23.559  0.00  0.00    -0.034 A 
ATOM     62  C30 non d ame     -31.496   8.034  23.445  0.00  0.00    -0.075 A 
ATOM     63  C31 non d ame     -31.252   7.289  22.292  0.00  0.00    -0.082 A 
ATOM     64  H49 non d ame     -30.769   8.037  24.257  0.00  0.00     0.084 H 
ATOM     65  C32 non d ame     -32.183   7.287  21.251  0.00  0.00    -0.083 A 
ATOM     66  H50 non d ame     -30.333   6.707  22.206  0.00  0.00     0.083 H 
ATOM     67  C33 non d ame     -33.349   8.031  21.368  0.00  0.00    -0.082 A 
ATOM     68  H51 non d ame     -32.000   6.706  20.346  0.00  0.00     0.083 H 
ATOM     69  C34 non d ame     -33.599   8.776  22.519  0.00  0.00    -0.075 A 
ATOM     70  H52 non d ame     -34.074   8.030  20.552  0.00  0.00     0.083 H 
ATOM     71  H53 non d ame     -34.518   9.356  22.604  0.00  0.00     0.084 H 
ENDBRANCH  58  61
ENDBRANCH  57  58
ENDBRANCH  55  57
ENDBRANCH  52  55
ENDBRANCH  49  52
ENDBRANCH  47  49
BRANCH  47  72
ATOM     72  C24 non d ame     -34.328   4.532  25.734  0.00  0.00    -0.039 C 
ATOM     73  H35 non d ame     -33.931   3.606  25.314  0.00  0.00     0.036 H 
ATOM     74  H36 non d ame     -35.316   4.541  26.194  0.00  0.00     0.036 H 
BRANCH  72  75
ATOM     75  C25 non d ame     -34.345   5.616  24.555  0.00  0.00    -0.001 C 
ATOM     76  C26 non d ame     -35.667   6.581  24.701  0.00  0.00    -0.035 C 
ATOM     77  C27 non d ame     -36.318   6.614  23.513  0.00  0.00     0.085 C 
ATOM     78  H38 non d ame     -36.391   6.125  25.376  0.00  0.00     0.036 H 
ATOM     79  H39 non d ame     -35.360   7.617  24.851  0.00  0.00     0.036 H 
ATOM     80  N5  non d ame     -35.746   5.501  22.667  0.00  0.00    -0.049 N 
ATOM     81  H40 non d ame     -37.359   6.385  23.745  0.00  0.00     0.075 H 
ATOM     82  H41 non d ame     -36.058   7.571  23.065  0.00  0.00     0.075 H 
ATOM     83  C28 non d ame     -34.380   5.046  23.397  0.00  0.00     0.193 C 
ATOM     84  H42 non d ame     -36.405   4.739  22.713  0.00  0.00     0.280 HD
ATOM     85  H43 non d ame     -35.512   5.914  21.775  0.00  0.00     0.280 HD
ATOM     86  H44 non d ame     -33.412   5.350  22.997  0.00  0.00     0.129 H 
ATOM     87  H37 non d ame     -33.381   6.110  24.435  0.00  0.00     0.046 H 
BRANCH  83  88
ATOM     88  O6  non d ame     -34.325   3.622  23.494  0.00  0.00    -0.369 OA
ATOM     89  H45 non d ame     -34.703   3.231  22.702  0.00  0.00     0.212 HD
ENDBRANCH  83  88
ENDBRANCH  72  75
ENDBRANCH  47  72
ENDBRANCH  45  47
ENDBRANCH   1  43
BRANCH   1  90
ATOM     90  C16 non d ame     -36.100   5.405  30.712  0.00  0.00    -0.035 C 
ATOM     91  H21 non d ame     -36.026   4.402  30.294  0.00  0.00     0.037 H 
ATOM     92  H22 non d ame     -36.250   5.541  31.783  0.00  0.00     0.037 H 
BRANCH  90  93
ATOM     93  C17 non d ame     -37.316   6.086  30.005  0.00  0.00    -0.059 C 
ATOM     94  H23 non d ame     -36.921   6.826  29.309  0.00  0.00     0.038 H 
BRANCH  93  95
ATOM     95  C18 non d ame     -38.168   5.067  29.185  0.00  0.00    -0.073 C 
ATOM     96  H24 non d ame     -38.195   5.373  28.139  0.00  0.00     0.028 H 
ATOM     97  H25 non d ame     -37.721   4.076  29.260  0.00  0.00     0.028 H 
ATOM     98  H26 non d ame     -39.183   5.039  29.582  0.00  0.00     0.028 H 
ENDBRANCH  93  95
BRANCH  93  99
ATOM     99  C19 non d ame     -38.188   6.834  31.018  0.00  0.00    -0.073 C 
ATOM    100  H27 non d ame     -38.462   6.159  31.830  0.00  0.00     0.028 H 
ATOM    101  H28 non d ame     -37.632   7.681  31.422  0.00  0.00     0.028 H 
ATOM    102  H29 non d ame     -39.090   7.195  30.524  0.00  0.00     0.028 H 
ENDBRANCH  93  99
ENDBRANCH  90  93
ENDBRANCH   1  90
TORSDOF 26
ENDMDL
