MODEL 1
REMARK VINA RESULT:      -6.9      0.000      0.000
REMARK  26 active torsions:
REMARK  status: ('A' for Active; 'I' for Inactive)
REMARK    1  A    between atoms: C2_2  and  C3_3 
REMARK    2  A    between atoms: C4_6  and  C5_7 
REMARK       I    between atoms: C5_7  and  N2_9 
REMARK    3  A    between atoms: N2_9  and  C6_10 
REMARK    4  A    between atoms: C6_10  and  C7_11 
REMARK    5  A    between atoms: C6_10  and  C8_13 
REMARK       I    between atoms: C7_11  and  N3_14 
REMARK    6  A    between atoms: N3_14  and  C9_15 
REMARK    7  A    between atoms: C9_15  and  C10_16 
REMARK    8  A    between atoms: C9_15  and  C11_18 
REMARK       I    between atoms: C10_16  and  N4_21 
REMARK    9  A    between atoms: C11_18  and  C12_19 
REMARK   10  A    between atoms: C11_18  and  C13_20 
REMARK   11  A    between atoms: N4_21  and  C14_22 
REMARK   12  A    between atoms: C14_22  and  C15_23 
REMARK   13  A    between atoms: C14_22  and  C16_25 
REMARK       I    between atoms: C15_23  and  N6_40 
REMARK   14  A    between atoms: C16_25  and  C17_26 
REMARK   15  A    between atoms: C17_26  and  C18_27 
REMARK   16  A    between atoms: C17_26  and  C19_28 
REMARK   17  A    between atoms: C20_29  and  C21_30 
REMARK   18  A    between atoms: C20_29  and  C24_33 
REMARK   19  A    between atoms: C20_29  and  N6_40 
REMARK   20  A    between atoms: C21_30  and  C22_31 
REMARK   21  A    between atoms: C22_31  and  C23_32 
REMARK   22  A    between atoms: C23_32  and  O8_43 
REMARK   23  A    between atoms: C24_33  and  C25_34 
REMARK   24  A    between atoms: C28_38  and  O6_39 
REMARK   25  A    between atoms: C29_42  and  O8_43 
REMARK   26  A    between atoms: C29_42  and  C35_49 
ROOT
ATOM      1  C14 non d ame     -30.997  14.095  24.281  0.00  0.00     0.089 C 
ATOM      2  H20 non d ame     -30.007  13.706  24.522  0.00  0.00     0.087 H 
ENDROOT
BRANCH   1   3
ATOM      3  N4  non d ame     -31.955  13.021  24.496  0.00  0.00    -0.346 N 
ATOM      4  C10 non d ame     -31.747  12.027  25.610  0.00  0.00     0.241 C 
ATOM      5  O4  non d ame     -30.800  12.110  26.321  0.00  0.00    -0.271 OA
ATOM      6  H19 non d ame     -32.752  12.965  23.879  0.00  0.00     0.163 HD
BRANCH   4   7
ATOM      7  C9  non d ame     -32.751  10.924  25.821  0.00  0.00     0.092 C 
ATOM      8  H11 non d ame     -32.905  10.779  26.890  0.00  0.00     0.088 H 
BRANCH   7   9
ATOM      9  N3  non d ame     -34.040  11.319  25.246  0.00  0.00    -0.346 N 
ATOM     10  C7  non d ame     -35.258  11.088  25.983  0.00  0.00     0.240 C 
ATOM     11  O3  non d ame     -35.220  10.585  27.039  0.00  0.00    -0.271 OA
ATOM     12  H10 non d ame     -34.089  11.752  24.336  0.00  0.00     0.163 HD
BRANCH  10  13
ATOM     13  C6  non d ame     -36.628  11.508  25.365  0.00  0.00     0.086 C 
ATOM     14  H6  non d ame     -37.477  11.210  25.980  0.00  0.00     0.086 H 
BRANCH  13  15
ATOM     15  N2  non d ame     -36.676  12.957  25.263  0.00  0.00    -0.343 N 
ATOM     16  C5  non d ame     -37.435  13.725  26.251  0.00  0.00     0.273 C 
ATOM     17  O2  non d ame     -38.007  13.168  27.123  0.00  0.00    -0.266 OA
ATOM     18  H5  non d ame     -36.186  13.424  24.513  0.00  0.00     0.163 HD
BRANCH  16  19
ATOM     19  C4  non d ame     -37.493  15.258  26.156  0.00  0.00     0.154 A 
ATOM     20  C1  non d ame     -37.290  16.059  24.988  0.00  0.00    -0.017 A 
ATOM     21  C2  non d ame     -37.450  17.392  25.430  0.00  0.00     0.077 A 
ATOM     22  H1  non d ame     -37.063  15.726  23.976  0.00  0.00     0.091 H 
ATOM     23  O1  non d ame     -37.714  17.349  26.703  0.00  0.00    -0.218 OA
ATOM     24  N1  non d ame     -37.744  16.114  27.149  0.00  0.00    -0.123 NA
BRANCH  21  25
ATOM     25  C3  non d ame     -37.335  18.646  24.574  0.00  0.00    -0.029 C 
ATOM     26  H2  non d ame     -37.694  18.433  23.568  0.00  0.00     0.036 H 
ATOM     27  H3  non d ame     -37.938  19.441  25.012  0.00  0.00     0.036 H 
ATOM     28  H4  non d ame     -36.294  18.962  24.529  0.00  0.00     0.036 H 
ENDBRANCH  21  25
ENDBRANCH  16  19
ENDBRANCH  13  15
BRANCH  13  29
ATOM     29  C8  non d ame     -36.777  10.888  23.998  0.00  0.00    -0.049 C 
ATOM     30  H7  non d ame     -35.984  10.158  23.842  0.00  0.00     0.030 H 
ATOM     31  H8  non d ame     -37.745  10.393  23.927  0.00  0.00     0.030 H 
ATOM     32  H9  non d ame     -36.709  11.667  23.237  0.00  0.00     0.030 H 
ENDBRANCH  13  29
ENDBRANCH  10  13
ENDBRANCH   7   9
BRANCH   7  33
ATOM     33  C11 non d ame     -32.250   9.626  25.120  0.00  0.00    -0.033 C 
ATOM     34  H12 non d ame     -31.160   9.657  25.112  0.00  0.00     0.042 H 
BRANCH  33  35
ATOM     35  C12 non d ame     -32.677   8.352  25.913  0.00  0.00    -0.071 C 
ATOM     36  H13 non d ame     -33.574   7.927  25.462  0.00  0.00     0.028 H 
ATOM     37  H14 non d ame     -31.873   7.617  25.882  0.00  0.00     0.028 H 
ATOM     38  H15 non d ame     -32.885   8.621  26.949  0.00  0.00     0.028 H 
ENDBRANCH  33  35
BRANCH  33  39
ATOM     39  C13 non d ame     -32.742   9.565  23.639  0.00  0.00    -0.071 C 
ATOM     40  H16 non d ame     -33.009   8.538  23.387  0.00  0.00     0.028 H 
ATOM     41  H17 non d ame     -33.615  10.208  23.519  0.00  0.00     0.028 H 
ATOM     42  H18 non d ame     -31.947   9.907  22.977  0.00  0.00     0.028 H 
ENDBRANCH  33  39
ENDBRANCH   7  33
ENDBRANCH   4   7
ENDBRANCH   1   3
BRANCH   1  43
ATOM     43  C15 non d ame     -31.391  15.298  25.186  0.00  0.00     0.240 C 
ATOM     44  O5  non d ame     -31.108  16.404  24.855  0.00  0.00    -0.271 OA
ATOM     45  N6  non d ame     -32.130  15.072  26.461  0.00  0.00    -0.355 N 
ATOM     46  H46 non d ame     -32.381  14.137  26.750  0.00  0.00     0.162 HD
BRANCH  45  47
ATOM     47  C20 non d ame     -32.498  16.226  27.309  0.00  0.00     0.013 C 
ATOM     48  H30 non d ame     -31.823  17.047  27.068  0.00  0.00     0.072 H 
BRANCH  47  49
ATOM     49  C21 non d ame     -32.352  15.844  28.764  0.00  0.00    -0.038 C 
ATOM     50  H31 non d ame     -31.323  15.500  28.876  0.00  0.00     0.036 H 
ATOM     51  H32 non d ame     -32.703  16.707  29.332  0.00  0.00     0.036 H 
BRANCH  49  52
ATOM     52  C22 non d ame     -33.256  14.659  29.167  0.00  0.00     0.018 C 
ATOM     53  H33 non d ame     -33.704  14.940  30.119  0.00  0.00     0.048 H 
ATOM     54  H34 non d ame     -33.890  14.465  28.301  0.00  0.00     0.048 H 
BRANCH  52  55
ATOM     55  C23 non d ame     -32.478  13.340  29.431  0.00  0.00     0.259 C 
ATOM     56  O7  non d ame     -31.367  13.370  29.851  0.00  0.00    -0.265 OA
BRANCH  55  57
ATOM     57  O8  non d ame     -33.105  12.093  29.153  0.00  0.00    -0.317 OA
BRANCH  57  58
ATOM     58  C29 non d ame     -32.573  10.994  29.898  0.00  0.00     0.052 C 
ATOM     59  H47 non d ame     -32.312  10.236  29.160  0.00  0.00     0.082 H 
ATOM     60  H48 non d ame     -31.802  11.419  30.541  0.00  0.00     0.082 H 
BRANCH  58  61
ATOM     61  C35 non d ame     -33.706  10.433  30.798  0.00  0.00    -0.034 A 
ATOM     62  C30 non d ame     -34.165  11.175  31.883  0.00  0.00    -0.075 A 
ATOM     63  C31 non d ame     -35.183  10.671  32.692  0.00  0.00    -0.082 A 
ATOM     64  H49 non d ame     -33.728  12.149  32.099  0.00  0.00     0.084 H 
ATOM     65  C32 non d ame     -35.741   9.420  32.414  0.00  0.00    -0.083 A 
ATOM     66  H50 non d ame     -35.543  11.255  33.540  0.00  0.00     0.083 H 
ATOM     67  C33 non d ame     -35.276   8.682  31.334  0.00  0.00    -0.082 A 
ATOM     68  H51 non d ame     -36.537   9.019  33.041  0.00  0.00     0.083 H 
ATOM     69  C34 non d ame     -34.261   9.183  30.522  0.00  0.00    -0.075 A 
ATOM     70  H52 non d ame     -35.711   7.705  31.121  0.00  0.00     0.083 H 
ATOM     71  H53 non d ame     -33.902   8.598  29.674  0.00  0.00     0.084 H 
ENDBRANCH  58  61
ENDBRANCH  57  58
ENDBRANCH  55  57
ENDBRANCH  52  55
ENDBRANCH  49  52
ENDBRANCH  47  49
BRANCH  47  72
ATOM     72  C24 non d ame     -33.944  16.631  27.030  0.00  0.00    -0.039 C 
ATOM     73  H35 non d ame     -34.223  16.101  26.118  0.00  0.00     0.036 H 
ATOM     74  H36 non d ame     -34.483  16.439  27.958  0.00  0.00     0.036 H 
BRANCH  72  75
ATOM     75  C25 non d ame     -34.073  18.198  26.724  0.00  0.00    -0.001 C 
ATOM     76  C26 non d ame     -32.590  18.904  26.787  0.00  0.00    -0.035 C 
ATOM     77  C27 non d ame     -32.653  19.982  27.606  0.00  0.00     0.085 C 
ATOM     78  H38 non d ame     -31.882  18.244  27.288  0.00  0.00     0.036 H 
ATOM     79  H39 non d ame     -32.339  19.336  25.818  0.00  0.00     0.036 H 
ATOM     80  N5  non d ame     -33.956  19.884  28.363  0.00  0.00    -0.049 N 
ATOM     81  H40 non d ame     -31.825  19.864  28.306  0.00  0.00     0.075 H 
ATOM     82  H41 non d ame     -32.689  20.847  26.946  0.00  0.00     0.075 H 
ATOM     83  C28 non d ame     -34.840  18.781  27.584  0.00  0.00     0.193 C 
ATOM     84  H42 non d ame     -33.728  19.525  29.279  0.00  0.00     0.280 HD
ATOM     85  H43 non d ame     -34.407  20.783  28.270  0.00  0.00     0.280 HD
ATOM     86  H44 non d ame     -35.664  19.087  26.938  0.00  0.00     0.129 H 
ATOM     87  H37 non d ame     -34.680  18.398  25.842  0.00  0.00     0.046 H 
BRANCH  83  88
ATOM     88  O6  non d ame     -35.407  17.856  28.514  0.00  0.00    -0.369 OA
ATOM     89  H45 non d ame     -36.055  18.308  29.060  0.00  0.00     0.212 HD
ENDBRANCH  83  88
ENDBRANCH  72  75
ENDBRANCH  47  72
ENDBRANCH  45  47
ENDBRANCH   1  43
BRANCH   1  90
ATOM     90  C16 non d ame     -31.042  14.518  22.822  0.00  0.00    -0.035 C 
ATOM     91  H21 non d ame     -31.812  13.896  22.365  0.00  0.00     0.037 H 
ATOM     92  H22 non d ame     -31.155  15.602  22.839  0.00  0.00     0.037 H 
BRANCH  90  93
ATOM     93  C17 non d ame     -29.720  14.223  22.043  0.00  0.00    -0.059 C 
ATOM     94  H23 non d ame     -29.864  14.548  21.013  0.00  0.00     0.038 H 
BRANCH  93  95
ATOM     95  C18 non d ame     -28.505  15.012  22.626  0.00  0.00    -0.073 C 
ATOM     96  H24 non d ame     -28.006  15.556  21.824  0.00  0.00     0.028 H 
ATOM     97  H25 non d ame     -28.857  15.718  23.378  0.00  0.00     0.028 H 
ATOM     98  H26 non d ame     -27.803  14.314  23.083  0.00  0.00     0.028 H 
ENDBRANCH  93  95
BRANCH  93  99
ATOM     99  C19 non d ame     -29.428  12.720  22.010  0.00  0.00    -0.073 C 
ATOM    100  H27 non d ame     -29.297  12.354  23.029  0.00  0.00     0.028 H 
ATOM    101  H28 non d ame     -30.262  12.197  21.542  0.00  0.00     0.028 H 
ATOM    102  H29 non d ame     -28.519  12.539  21.438  0.00  0.00     0.028 H 
ENDBRANCH  93  99
ENDBRANCH  90  93
ENDBRANCH   1  90
TORSDOF 26
ENDMDL
MODEL 2
REMARK VINA RESULT:      -6.5      3.444      6.500
REMARK  26 active torsions:
REMARK  status: ('A' for Active; 'I' for Inactive)
REMARK    1  A    between atoms: C2_2  and  C3_3 
REMARK    2  A    between atoms: C4_6  and  C5_7 
REMARK       I    between atoms: C5_7  and  N2_9 
REMARK    3  A    between atoms: N2_9  and  C6_10 
REMARK    4  A    between atoms: C6_10  and  C7_11 
REMARK    5  A    between atoms: C6_10  and  C8_13 
REMARK       I    between atoms: C7_11  and  N3_14 
REMARK    6  A    between atoms: N3_14  and  C9_15 
REMARK    7  A    between atoms: C9_15  and  C10_16 
REMARK    8  A    between atoms: C9_15  and  C11_18 
REMARK       I    between atoms: C10_16  and  N4_21 
REMARK    9  A    between atoms: C11_18  and  C12_19 
REMARK   10  A    between atoms: C11_18  and  C13_20 
REMARK   11  A    between atoms: N4_21  and  C14_22 
REMARK   12  A    between atoms: C14_22  and  C15_23 
REMARK   13  A    between atoms: C14_22  and  C16_25 
REMARK       I    between atoms: C15_23  and  N6_40 
REMARK   14  A    between atoms: C16_25  and  C17_26 
REMARK   15  A    between atoms: C17_26  and  C18_27 
REMARK   16  A    between atoms: C17_26  and  C19_28 
REMARK   17  A    between atoms: C20_29  and  C21_30 
REMARK   18  A    between atoms: C20_29  and  C24_33 
REMARK   19  A    between atoms: C20_29  and  N6_40 
REMARK   20  A    between atoms: C21_30  and  C22_31 
REMARK   21  A    between atoms: C22_31  and  C23_32 
REMARK   22  A    between atoms: C23_32  and  O8_43 
REMARK   23  A    between atoms: C24_33  and  C25_34 
REMARK   24  A    between atoms: C28_38  and  O6_39 
REMARK   25  A    between atoms: C29_42  and  O8_43 
REMARK   26  A    between atoms: C29_42  and  C35_49 
ROOT
ATOM      1  C14 non d ame     -31.100  14.913  24.120  0.00  0.00     0.089 C 
ATOM      2  H20 non d ame     -30.078  14.745  24.462  0.00  0.00     0.087 H 
ENDROOT
BRANCH   1   3
ATOM      3  N4  non d ame     -31.750  13.615  24.028  0.00  0.00    -0.346 N 
ATOM      4  C10 non d ame     -31.521  12.570  25.090  0.00  0.00     0.241 C 
ATOM      5  O4  non d ame     -30.806  12.797  26.011  0.00  0.00    -0.271 OA
ATOM      6  H19 non d ame     -32.352  13.441  23.236  0.00  0.00     0.163 HD
BRANCH   4   7
ATOM      7  C9  non d ame     -32.206  11.233  24.982  0.00  0.00     0.092 C 
ATOM      8  H11 non d ame     -33.010  11.301  24.250  0.00  0.00     0.088 H 
BRANCH   7   9
ATOM      9  N3  non d ame     -31.253  10.234  24.488  0.00  0.00    -0.346 N 
ATOM     10  C7  non d ame     -31.594   9.412  23.353  0.00  0.00     0.240 C 
ATOM     11  O3  non d ame     -32.631   9.541  22.826  0.00  0.00    -0.271 OA
ATOM     12  H10 non d ame     -30.355  10.111  24.934  0.00  0.00     0.163 HD
BRANCH  10  13
ATOM     13  C6  non d ame     -30.577   8.349  22.834  0.00  0.00     0.086 C 
ATOM     14  H6  non d ame     -30.375   7.566  23.565  0.00  0.00     0.086 H 
BRANCH  13  15
ATOM     15  N2  non d ame     -31.137   7.691  21.666  0.00  0.00    -0.343 N 
ATOM     16  C5  non d ame     -31.715   6.352  21.799  0.00  0.00     0.273 C 
ATOM     17  O2  non d ame     -31.721   5.811  22.849  0.00  0.00    -0.266 OA
ATOM     18  H5  non d ame     -31.125   8.160  20.771  0.00  0.00     0.163 HD
BRANCH  16  19
ATOM     19  C4  non d ame     -32.311   5.646  20.571  0.00  0.00     0.154 A 
ATOM     20  C1  non d ame     -32.340   4.239  20.312  0.00  0.00    -0.017 A 
ATOM     21  C2  non d ame     -32.992   4.112  19.065  0.00  0.00     0.077 A 
ATOM     22  H1  non d ame     -31.949   3.434  20.934  0.00  0.00     0.091 H 
ATOM     23  O1  non d ame     -33.298   5.311  18.664  0.00  0.00    -0.218 OA
ATOM     24  N1  non d ame     -32.911   6.223  19.527  0.00  0.00    -0.123 NA
BRANCH  21  25
ATOM     25  C3  non d ame     -33.283   2.812  18.328  0.00  0.00    -0.029 C 
ATOM     26  H2  non d ame     -32.810   1.983  18.853  0.00  0.00     0.036 H 
ATOM     27  H3  non d ame     -34.360   2.649  18.290  0.00  0.00     0.036 H 
ATOM     28  H4  non d ame     -32.889   2.873  17.314  0.00  0.00     0.036 H 
ENDBRANCH  21  25
ENDBRANCH  16  19
ENDBRANCH  13  15
BRANCH  13  29
ATOM     29  C8  non d ame     -29.279   9.025  22.474  0.00  0.00    -0.049 C 
ATOM     30  H7  non d ame     -29.404  10.106  22.527  0.00  0.00     0.030 H 
ATOM     31  H8  non d ame     -28.502   8.716  23.173  0.00  0.00     0.030 H 
ATOM     32  H9  non d ame     -28.990   8.741  21.461  0.00  0.00     0.030 H 
ENDBRANCH  13  29
ENDBRANCH  10  13
ENDBRANCH   7   9
BRANCH   7  33
ATOM     33  C11 non d ame     -32.725  10.801  26.385  0.00  0.00    -0.033 C 
ATOM     34  H12 non d ame     -32.292  11.480  27.119  0.00  0.00     0.042 H 
BRANCH  33  35
ATOM     35  C12 non d ame     -34.277  10.934  26.481  0.00  0.00    -0.071 C 
ATOM     36  H13 non d ame     -34.703   9.987  26.813  0.00  0.00     0.028 H 
ATOM     37  H14 non d ame     -34.531  11.716  27.196  0.00  0.00     0.028 H 
ATOM     38  H15 non d ame     -34.681  11.190  25.502  0.00  0.00     0.028 H 
ENDBRANCH  33  35
BRANCH  33  39
ATOM     39  C13 non d ame     -32.257   9.352  26.732  0.00  0.00    -0.071 C 
ATOM     40  H16 non d ame     -31.244   9.198  26.360  0.00  0.00     0.028 H 
ATOM     41  H17 non d ame     -32.272   9.214  27.814  0.00  0.00     0.028 H 
ATOM     42  H18 non d ame     -32.929   8.631  26.267  0.00  0.00     0.028 H 
ENDBRANCH  33  39
ENDBRANCH   7  33
ENDBRANCH   4   7
ENDBRANCH   1   3
BRANCH   1  43
ATOM     43  C15 non d ame     -31.910  15.804  25.107  0.00  0.00     0.240 C 
ATOM     44  O5  non d ame     -31.572  15.885  26.243  0.00  0.00    -0.271 OA
ATOM     45  N6  non d ame     -33.101  16.564  24.632  0.00  0.00    -0.355 N 
ATOM     46  H46 non d ame     -33.395  16.507  23.667  0.00  0.00     0.162 HD
BRANCH  45  47
ATOM     47  C20 non d ame     -33.859  17.406  25.582  0.00  0.00     0.013 C 
ATOM     48  H30 non d ame     -33.344  17.374  26.542  0.00  0.00     0.072 H 
BRANCH  47  49
ATOM     49  C21 non d ame     -35.261  16.859  25.727  0.00  0.00    -0.038 C 
ATOM     50  H31 non d ame     -35.888  17.718  25.968  0.00  0.00     0.036 H 
ATOM     51  H32 non d ame     -35.448  16.285  24.819  0.00  0.00     0.036 H 
BRANCH  49  52
ATOM     52  C22 non d ame     -35.400  15.871  26.905  0.00  0.00     0.018 C 
ATOM     53  H33 non d ame     -36.462  15.844  27.143  0.00  0.00     0.048 H 
ATOM     54  H34 non d ame     -34.888  14.962  26.589  0.00  0.00     0.048 H 
BRANCH  52  55
ATOM     55  C23 non d ame     -34.682  16.338  28.202  0.00  0.00     0.259 C 
ATOM     56  O7  non d ame     -34.986  17.361  28.724  0.00  0.00    -0.265 OA
BRANCH  55  57
ATOM     57  O8  non d ame     -33.644  15.535  28.751  0.00  0.00    -0.317 OA
BRANCH  57  58
ATOM     58  C29 non d ame     -33.550  14.229  28.175  0.00  0.00     0.052 C 
ATOM     59  H47 non d ame     -34.557  13.815  28.217  0.00  0.00     0.082 H 
ATOM     60  H48 non d ame     -33.056  14.365  27.214  0.00  0.00     0.082 H 
BRANCH  58  61
ATOM     61  C35 non d ame     -32.628  13.371  29.082  0.00  0.00    -0.034 A 
ATOM     62  C30 non d ame     -31.278  13.686  29.199  0.00  0.00    -0.075 A 
ATOM     63  C31 non d ame     -30.449  12.915  30.013  0.00  0.00    -0.082 A 
ATOM     64  H49 non d ame     -30.868  14.536  28.652  0.00  0.00     0.084 H 
ATOM     65  C32 non d ame     -30.975  11.824  30.710  0.00  0.00    -0.083 A 
ATOM     66  H50 non d ame     -29.391  13.166  30.104  0.00  0.00     0.083 H 
ATOM     67  C33 non d ame     -32.321  11.511  30.587  0.00  0.00    -0.082 A 
ATOM     68  H51 non d ame     -30.333  11.217  31.350  0.00  0.00     0.083 H 
ATOM     69  C34 non d ame     -33.154  12.280  29.776  0.00  0.00    -0.075 A 
ATOM     70  H52 non d ame     -32.728  10.658  31.131  0.00  0.00     0.083 H 
ATOM     71  H53 non d ame     -34.211  12.029  29.686  0.00  0.00     0.084 H 
ENDBRANCH  58  61
ENDBRANCH  57  58
ENDBRANCH  55  57
ENDBRANCH  52  55
ENDBRANCH  49  52
ENDBRANCH  47  49
BRANCH  47  72
ATOM     72  C24 non d ame     -33.921  18.841  25.063  0.00  0.00    -0.039 C 
ATOM     73  H35 non d ame     -33.345  18.839  24.137  0.00  0.00     0.036 H 
ATOM     74  H36 non d ame     -34.981  19.097  25.044  0.00  0.00     0.036 H 
BRANCH  72  75
ATOM     75  C25 non d ame     -33.204  19.866  26.064  0.00  0.00    -0.001 C 
ATOM     76  C26 non d ame     -32.230  19.044  27.102  0.00  0.00    -0.035 C 
ATOM     77  C27 non d ame     -32.523  19.423  28.369  0.00  0.00     0.085 C 
ATOM     78  H38 non d ame     -32.478  17.984  27.089  0.00  0.00     0.036 H 
ATOM     79  H39 non d ame     -31.194  19.363  26.975  0.00  0.00     0.036 H 
ATOM     80  N5  non d ame     -33.829  20.181  28.311  0.00  0.00    -0.049 N 
ATOM     81  H40 non d ame     -32.674  18.496  28.922  0.00  0.00     0.075 H 
ATOM     82  H41 non d ame     -31.728  20.108  28.660  0.00  0.00     0.075 H 
ATOM     83  C28 non d ame     -34.072  20.528  26.754  0.00  0.00     0.193 C 
ATOM     84  H42 non d ame     -34.546  19.538  28.613  0.00  0.00     0.280 HD
ATOM     85  H43 non d ame     -33.679  21.044  28.815  0.00  0.00     0.280 HD
ATOM     86  H44 non d ame     -33.895  21.537  26.378  0.00  0.00     0.129 H 
ATOM     87  H37 non d ame     -32.767  20.716  25.541  0.00  0.00     0.046 H 
BRANCH  83  88
ATOM     88  O6  non d ame     -35.414  20.211  26.381  0.00  0.00    -0.369 OA
ATOM     89  H45 non d ame     -35.916  21.022  26.273  0.00  0.00     0.212 HD
ENDBRANCH  83  88
ENDBRANCH  72  75
ENDBRANCH  47  72
ENDBRANCH  45  47
ENDBRANCH   1  43
BRANCH   1  90
ATOM     90  C16 non d ame     -31.083  15.560  22.745  0.00  0.00    -0.035 C 
ATOM     91  H21 non d ame     -32.094  15.443  22.358  0.00  0.00     0.037 H 
ATOM     92  H22 non d ame     -30.669  16.557  22.900  0.00  0.00     0.037 H 
BRANCH  90  93
ATOM     93  C17 non d ame     -30.137  14.843  21.728  0.00  0.00    -0.059 C 
ATOM     94  H23 non d ame     -30.322  13.772  21.805  0.00  0.00     0.038 H 
BRANCH  93  95
ATOM     95  C18 non d ame     -30.424  15.271  20.254  0.00  0.00    -0.073 C 
ATOM     96  H24 non d ame     -29.547  15.069  19.638  0.00  0.00     0.028 H 
ATOM     97  H25 non d ame     -31.273  14.706  19.870  0.00  0.00     0.028 H 
ATOM     98  H26 non d ame     -30.652  16.337  20.222  0.00  0.00     0.028 H 
ENDBRANCH  93  95
BRANCH  93  99
ATOM     99  C19 non d ame     -28.668  15.080  22.087  0.00  0.00    -0.073 C 
ATOM    100  H27 non d ame     -28.555  15.083  23.172  0.00  0.00     0.028 H 
ATOM    101  H28 non d ame     -28.056  14.284  21.662  0.00  0.00     0.028 H 
ATOM    102  H29 non d ame     -28.345  16.040  21.686  0.00  0.00     0.028 H 
ENDBRANCH  93  99
ENDBRANCH  90  93
ENDBRANCH   1  90
TORSDOF 26
ENDMDL
MODEL 3
REMARK VINA RESULT:      -6.4      2.069      5.677
REMARK  26 active torsions:
REMARK  status: ('A' for Active; 'I' for Inactive)
REMARK    1  A    between atoms: C2_2  and  C3_3 
REMARK    2  A    between atoms: C4_6  and  C5_7 
REMARK       I    between atoms: C5_7  and  N2_9 
REMARK    3  A    between atoms: N2_9  and  C6_10 
REMARK    4  A    between atoms: C6_10  and  C7_11 
REMARK    5  A    between atoms: C6_10  and  C8_13 
REMARK       I    between atoms: C7_11  and  N3_14 
REMARK    6  A    between atoms: N3_14  and  C9_15 
REMARK    7  A    between atoms: C9_15  and  C10_16 
REMARK    8  A    between atoms: C9_15  and  C11_18 
REMARK       I    between atoms: C10_16  and  N4_21 
REMARK    9  A    between atoms: C11_18  and  C12_19 
REMARK   10  A    between atoms: C11_18  and  C13_20 
REMARK   11  A    between atoms: N4_21  and  C14_22 
REMARK   12  A    between atoms: C14_22  and  C15_23 
REMARK   13  A    between atoms: C14_22  and  C16_25 
REMARK       I    between atoms: C15_23  and  N6_40 
REMARK   14  A    between atoms: C16_25  and  C17_26 
REMARK   15  A    between atoms: C17_26  and  C18_27 
REMARK   16  A    between atoms: C17_26  and  C19_28 
REMARK   17  A    between atoms: C20_29  and  C21_30 
REMARK   18  A    between atoms: C20_29  and  C24_33 
REMARK   19  A    between atoms: C20_29  and  N6_40 
REMARK   20  A    between atoms: C21_30  and  C22_31 
REMARK   21  A    between atoms: C22_31  and  C23_32 
REMARK   22  A    between atoms: C23_32  and  O8_43 
REMARK   23  A    between atoms: C24_33  and  C25_34 
REMARK   24  A    between atoms: C28_38  and  O6_39 
REMARK   25  A    between atoms: C29_42  and  O8_43 
REMARK   26  A    between atoms: C29_42  and  C35_49 
ROOT
ATOM      1  C14 non d ame     -30.971  13.618  24.557  0.00  0.00     0.089 C 
ATOM      2  H20 non d ame     -29.955  13.435  24.906  0.00  0.00     0.087 H 
ENDROOT
BRANCH   1   3
ATOM      3  N4  non d ame     -31.463  12.381  23.970  0.00  0.00    -0.346 N 
ATOM      4  C10 non d ame     -31.289  11.071  24.696  0.00  0.00     0.241 C 
ATOM      5  O4  non d ame     -30.749  11.037  25.752  0.00  0.00    -0.271 OA
ATOM      6  H19 non d ame     -31.917  12.431  23.069  0.00  0.00     0.163 HD
BRANCH   4   7
ATOM      7  C9  non d ame     -31.808   9.801  24.075  0.00  0.00     0.092 C 
ATOM      8  H11 non d ame     -31.656   8.974  24.768  0.00  0.00     0.088 H 
BRANCH   7   9
ATOM      9  N3  non d ame     -33.253   9.919  23.852  0.00  0.00    -0.346 N 
ATOM     10  C7  non d ame     -34.169   9.718  24.948  0.00  0.00     0.240 C 
ATOM     11  O3  non d ame     -33.761   9.459  26.014  0.00  0.00    -0.271 OA
ATOM     12  H10 non d ame     -33.618  10.140  22.937  0.00  0.00     0.163 HD
BRANCH  10  13
ATOM     13  C6  non d ame     -35.705   9.842  24.705  0.00  0.00     0.086 C 
ATOM     14  H6  non d ame     -36.295   9.343  25.473  0.00  0.00     0.086 H 
BRANCH  13  15
ATOM     15  N2  non d ame     -36.076  11.246  24.742  0.00  0.00    -0.343 N 
ATOM     16  C5  non d ame     -36.897  11.747  25.847  0.00  0.00     0.273 C 
ATOM     17  O2  non d ame     -37.256  11.011  26.699  0.00  0.00    -0.266 OA
ATOM     18  H5  non d ame     -35.768  11.868  24.007  0.00  0.00     0.163 HD
BRANCH  16  19
ATOM     19  C4  non d ame     -37.296  13.230  25.899  0.00  0.00     0.154 A 
ATOM     20  C1  non d ame     -36.561  14.303  26.495  0.00  0.00    -0.017 A 
ATOM     21  C2  non d ame     -37.352  15.452  26.273  0.00  0.00     0.077 A 
ATOM     22  H1  non d ame     -35.602  14.255  27.009  0.00  0.00     0.091 H 
ATOM     23  O1  non d ame     -38.413  15.073  25.623  0.00  0.00    -0.218 OA
ATOM     24  N1  non d ame     -38.403  13.780  25.393  0.00  0.00    -0.123 NA
BRANCH  21  25
ATOM     25  C3  non d ame     -37.022  16.872  26.711  0.00  0.00    -0.029 C 
ATOM     26  H2  non d ame     -36.657  17.441  25.857  0.00  0.00     0.036 H 
ATOM     27  H3  non d ame     -37.919  17.349  27.106  0.00  0.00     0.036 H 
ATOM     28  H4  non d ame     -36.255  16.846  27.485  0.00  0.00     0.036 H 
ENDBRANCH  21  25
ENDBRANCH  16  19
ENDBRANCH  13  15
BRANCH  13  29
ATOM     29  C8  non d ame     -36.054   9.250  23.363  0.00  0.00    -0.049 C 
ATOM     30  H7  non d ame     -36.323  10.048  22.672  0.00  0.00     0.030 H 
ATOM     31  H8  non d ame     -35.194   8.706  22.971  0.00  0.00     0.030 H 
ATOM     32  H9  non d ame     -36.897   8.567  23.475  0.00  0.00     0.030 H 
ENDBRANCH  13  29
ENDBRANCH  10  13
ENDBRANCH   7   9
BRANCH   7  33
ATOM     33  C11 non d ame     -31.095   9.561  22.711  0.00  0.00    -0.033 C 
ATOM     34  H12 non d ame     -31.276  10.436  22.087  0.00  0.00     0.042 H 
BRANCH  33  35
ATOM     35  C12 non d ame     -29.551   9.428  22.895  0.00  0.00    -0.071 C 
ATOM     36  H13 non d ame     -29.068   9.417  21.917  0.00  0.00     0.028 H 
ATOM     37  H14 non d ame     -29.179  10.273  23.473  0.00  0.00     0.028 H 
ATOM     38  H15 non d ame     -29.325   8.500  23.420  0.00  0.00     0.028 H 
ENDBRANCH  33  35
BRANCH  33  39
ATOM     39  C13 non d ame     -31.688   8.315  21.981  0.00  0.00    -0.071 C 
ATOM     40  H16 non d ame     -31.850   8.552  20.929  0.00  0.00     0.028 H 
ATOM     41  H17 non d ame     -30.992   7.479  22.062  0.00  0.00     0.028 H 
ATOM     42  H18 non d ame     -32.637   8.041  22.442  0.00  0.00     0.028 H 
ENDBRANCH  33  39
ENDBRANCH   7  33
ENDBRANCH   4   7
ENDBRANCH   1   3
BRANCH   1  43
ATOM     43  C15 non d ame     -31.924  14.028  25.718  0.00  0.00     0.240 C 
ATOM     44  O5  non d ame     -33.101  14.002  25.554  0.00  0.00    -0.271 OA
ATOM     45  N6  non d ame     -31.369  14.441  27.038  0.00  0.00    -0.355 N 
ATOM     46  H46 non d ame     -30.370  14.462  27.191  0.00  0.00     0.162 HD
BRANCH  45  47
ATOM     47  C20 non d ame     -32.288  14.827  28.131  0.00  0.00     0.013 C 
ATOM     48  H30 non d ame     -33.267  14.402  27.910  0.00  0.00     0.072 H 
BRANCH  47  49
ATOM     49  C21 non d ame     -32.380  16.334  28.199  0.00  0.00    -0.038 C 
ATOM     50  H31 non d ame     -32.584  16.570  29.244  0.00  0.00     0.036 H 
ATOM     51  H32 non d ame     -31.472  16.706  27.724  0.00  0.00     0.036 H 
BRANCH  49  52
ATOM     52  C22 non d ame     -33.563  16.900  27.383  0.00  0.00     0.018 C 
ATOM     53  H33 non d ame     -33.975  16.053  26.837  0.00  0.00     0.048 H 
ATOM     54  H34 non d ame     -34.181  17.442  28.099  0.00  0.00     0.048 H 
BRANCH  52  55
ATOM     55  C23 non d ame     -33.141  17.939  26.308  0.00  0.00     0.259 C 
ATOM     56  O7  non d ame     -32.458  17.615  25.391  0.00  0.00    -0.265 OA
BRANCH  55  57
ATOM     57  O8  non d ame     -33.569  19.290  26.439  0.00  0.00    -0.317 OA
BRANCH  57  58
ATOM     58  C29 non d ame     -33.929  19.661  27.773  0.00  0.00     0.052 C 
ATOM     59  H47 non d ame     -33.848  18.749  28.364  0.00  0.00     0.082 H 
ATOM     60  H48 non d ame     -33.312  20.525  28.016  0.00  0.00     0.082 H 
BRANCH  58  61
ATOM     61  C35 non d ame     -35.415  20.108  27.760  0.00  0.00    -0.034 A 
ATOM     62  C30 non d ame     -35.958  20.689  26.618  0.00  0.00    -0.075 A 
ATOM     63  C31 non d ame     -37.293  21.091  26.607  0.00  0.00    -0.082 A 
ATOM     64  H49 non d ame     -35.338  20.830  25.733  0.00  0.00     0.084 H 
ATOM     65  C32 non d ame     -38.085  20.912  27.743  0.00  0.00    -0.083 A 
ATOM     66  H50 non d ame     -37.716  21.544  25.709  0.00  0.00     0.083 H 
ATOM     67  C33 non d ame     -37.538  20.335  28.882  0.00  0.00    -0.082 A 
ATOM     68  H51 non d ame     -39.131  21.223  27.742  0.00  0.00     0.083 H 
ATOM     69  C34 non d ame     -36.205  19.930  28.897  0.00  0.00    -0.075 A 
ATOM     70  H52 non d ame     -38.159  20.199  29.768  0.00  0.00     0.083 H 
ATOM     71  H53 non d ame     -35.783  19.477  29.794  0.00  0.00     0.084 H 
ENDBRANCH  58  61
ENDBRANCH  57  58
ENDBRANCH  55  57
ENDBRANCH  52  55
ENDBRANCH  49  52
ENDBRANCH  47  49
BRANCH  47  72
ATOM     72  C24 non d ame     -31.764  14.286  29.460  0.00  0.00    -0.039 C 
ATOM     73  H35 non d ame     -30.848  14.844  29.658  0.00  0.00     0.036 H 
ATOM     74  H36 non d ame     -32.603  14.354  30.152  0.00  0.00     0.036 H 
BRANCH  72  75
ATOM     75  C25 non d ame     -31.362  12.739  29.355  0.00  0.00    -0.001 C 
ATOM     76  C26 non d ame     -32.677  11.847  28.934  0.00  0.00    -0.035 C 
ATOM     77  C27 non d ame     -32.806  10.820  29.807  0.00  0.00     0.085 C 
ATOM     78  H38 non d ame     -33.587  12.427  29.087  0.00  0.00     0.036 H 
ATOM     79  H39 non d ame     -32.503  11.349  27.980  0.00  0.00     0.036 H 
ATOM     80  N5  non d ame     -31.895  11.117  30.975  0.00  0.00    -0.049 N 
ATOM     81  H40 non d ame     -33.842  10.854  30.147  0.00  0.00     0.075 H 
ATOM     82  H41 non d ame     -32.434   9.942  29.281  0.00  0.00     0.075 H 
ATOM     83  C28 non d ame     -30.910  12.296  30.480  0.00  0.00     0.193 C 
ATOM     84  H42 non d ame     -32.483  11.477  31.712  0.00  0.00     0.280 HD
ATOM     85  H43 non d ame     -31.347  10.282  31.127  0.00  0.00     0.280 HD
ATOM     86  H44 non d ame     -29.878  12.076  30.206  0.00  0.00     0.129 H 
ATOM     87  H37 non d ame     -30.453  12.588  28.773  0.00  0.00     0.046 H 
BRANCH  83  88
ATOM     88  O6  non d ame     -30.832  13.322  31.471  0.00  0.00    -0.369 OA
ATOM     89  H45 non d ame     -31.713  13.662  31.650  0.00  0.00     0.212 HD
ENDBRANCH  83  88
ENDBRANCH  72  75
ENDBRANCH  47  72
ENDBRANCH  45  47
ENDBRANCH   1  43
BRANCH   1  90
ATOM     90  C16 non d ame     -30.964  14.705  23.495  0.00  0.00    -0.035 C 
ATOM     91  H21 non d ame     -31.757  14.434  22.800  0.00  0.00     0.037 H 
ATOM     92  H22 non d ame     -31.018  15.645  24.044  0.00  0.00     0.037 H 
BRANCH  90  93
ATOM     93  C17 non d ame     -29.645  14.756  22.660  0.00  0.00    -0.059 C 
ATOM     94  H23 non d ame     -28.836  15.030  23.337  0.00  0.00     0.038 H 
BRANCH  93  95
ATOM     95  C18 non d ame     -29.291  13.370  22.033  0.00  0.00    -0.073 C 
ATOM     96  H24 non d ame     -29.774  13.275  21.061  0.00  0.00     0.028 H 
ATOM     97  H25 non d ame     -28.210  13.293  21.909  0.00  0.00     0.028 H 
ATOM     98  H26 non d ame     -29.638  12.573  22.691  0.00  0.00     0.028 H 
ENDBRANCH  93  95
BRANCH  93  99
ATOM     99  C19 non d ame     -29.722  15.838  21.579  0.00  0.00    -0.073 C 
ATOM    100  H27 non d ame     -28.713  16.140  21.296  0.00  0.00     0.028 H 
ATOM    101  H28 non d ame     -30.241  15.443  20.706  0.00  0.00     0.028 H 
ATOM    102  H29 non d ame     -30.266  16.699  21.966  0.00  0.00     0.028 H 
ENDBRANCH  93  99
ENDBRANCH  90  93
ENDBRANCH   1  90
TORSDOF 26
ENDMDL
MODEL 4
REMARK VINA RESULT:      -6.3      2.506      7.763
REMARK  26 active torsions:
REMARK  status: ('A' for Active; 'I' for Inactive)
REMARK    1  A    between atoms: C2_2  and  C3_3 
REMARK    2  A    between atoms: C4_6  and  C5_7 
REMARK       I    between atoms: C5_7  and  N2_9 
REMARK    3  A    between atoms: N2_9  and  C6_10 
REMARK    4  A    between atoms: C6_10  and  C7_11 
REMARK    5  A    between atoms: C6_10  and  C8_13 
REMARK       I    between atoms: C7_11  and  N3_14 
REMARK    6  A    between atoms: N3_14  and  C9_15 
REMARK    7  A    between atoms: C9_15  and  C10_16 
REMARK    8  A    between atoms: C9_15  and  C11_18 
REMARK       I    between atoms: C10_16  and  N4_21 
REMARK    9  A    between atoms: C11_18  and  C12_19 
REMARK   10  A    between atoms: C11_18  and  C13_20 
REMARK   11  A    between atoms: N4_21  and  C14_22 
REMARK   12  A    between atoms: C14_22  and  C15_23 
REMARK   13  A    between atoms: C14_22  and  C16_25 
REMARK       I    between atoms: C15_23  and  N6_40 
REMARK   14  A    between atoms: C16_25  and  C17_26 
REMARK   15  A    between atoms: C17_26  and  C18_27 
REMARK   16  A    between atoms: C17_26  and  C19_28 
REMARK   17  A    between atoms: C20_29  and  C21_30 
REMARK   18  A    between atoms: C20_29  and  C24_33 
REMARK   19  A    between atoms: C20_29  and  N6_40 
REMARK   20  A    between atoms: C21_30  and  C22_31 
REMARK   21  A    between atoms: C22_31  and  C23_32 
REMARK   22  A    between atoms: C23_32  and  O8_43 
REMARK   23  A    between atoms: C24_33  and  C25_34 
REMARK   24  A    between atoms: C28_38  and  O6_39 
REMARK   25  A    between atoms: C29_42  and  O8_43 
REMARK   26  A    between atoms: C29_42  and  C35_49 
ROOT
ATOM      1  C14 non d ame     -33.108  11.907  28.585  0.00  0.00     0.089 C 
ATOM      2  H20 non d ame     -33.254  12.333  29.578  0.00  0.00     0.087 H 
ENDROOT
BRANCH   1   3
ATOM      3  N4  non d ame     -33.811  10.633  28.547  0.00  0.00    -0.346 N 
ATOM      4  C10 non d ame     -34.106   9.888  29.823  0.00  0.00     0.241 C 
ATOM      5  O4  non d ame     -33.767  10.332  30.870  0.00  0.00    -0.271 OA
ATOM      6  H19 non d ame     -34.088  10.271  27.645  0.00  0.00     0.163 HD
BRANCH   4   7
ATOM      7  C9  non d ame     -34.838   8.572  29.766  0.00  0.00     0.092 C 
ATOM      8  H11 non d ame     -35.774   8.706  29.225  0.00  0.00     0.088 H 
BRANCH   7   9
ATOM      9  N3  non d ame     -34.038   7.600  29.014  0.00  0.00    -0.346 N 
ATOM     10  C7  non d ame     -34.468   7.172  27.706  0.00  0.00     0.240 C 
ATOM     11  O3  non d ame     -35.455   7.599  27.243  0.00  0.00    -0.271 OA
ATOM     12  H10 non d ame     -33.186   7.222  29.401  0.00  0.00     0.163 HD
BRANCH  10  13
ATOM     13  C6  non d ame     -33.615   6.134  26.912  0.00  0.00     0.086 C 
ATOM     14  H6  non d ame     -34.224   5.464  26.306  0.00  0.00     0.086 H 
BRANCH  13  15
ATOM     15  N2  non d ame     -32.741   6.846  25.994  0.00  0.00    -0.343 N 
ATOM     16  C5  non d ame     -33.163   7.046  24.606  0.00  0.00     0.273 C 
ATOM     17  O2  non d ame     -34.205   6.628  24.236  0.00  0.00    -0.266 OA
ATOM     18  H5  non d ame     -31.851   7.197  26.317  0.00  0.00     0.163 HD
BRANCH  16  19
ATOM     19  C4  non d ame     -32.249   7.798  23.625  0.00  0.00     0.154 A 
ATOM     20  C1  non d ame     -31.554   9.026  23.858  0.00  0.00    -0.017 A 
ATOM     21  C2  non d ame     -30.862   9.286  22.655  0.00  0.00     0.077 A 
ATOM     22  H1  non d ame     -31.552   9.635  24.762  0.00  0.00     0.091 H 
ATOM     23  O1  non d ame     -31.133   8.315  21.834  0.00  0.00    -0.218 OA
ATOM     24  N1  non d ame     -31.940   7.434  22.377  0.00  0.00    -0.123 NA
BRANCH  21  25
ATOM     25  C3  non d ame     -29.963  10.483  22.372  0.00  0.00    -0.029 C 
ATOM     26  H2  non d ame     -29.274  10.624  23.204  0.00  0.00     0.036 H 
ATOM     27  H3  non d ame     -29.395  10.303  21.459  0.00  0.00     0.036 H 
ATOM     28  H4  non d ame     -30.574  11.377  22.250  0.00  0.00     0.036 H 
ENDBRANCH  21  25
ENDBRANCH  16  19
ENDBRANCH  13  15
BRANCH  13  29
ATOM     29  C8  non d ame     -32.795   5.313  27.873  0.00  0.00    -0.049 C 
ATOM     30  H7  non d ame     -33.245   4.327  27.984  0.00  0.00     0.030 H 
ATOM     31  H8  non d ame     -31.781   5.207  27.489  0.00  0.00     0.030 H 
ATOM     32  H9  non d ame     -32.767   5.810  28.844  0.00  0.00     0.030 H 
ENDBRANCH  13  29
ENDBRANCH  10  13
ENDBRANCH   7   9
BRANCH   7  33
ATOM     33  C11 non d ame     -35.066   8.043  31.212  0.00  0.00    -0.033 C 
ATOM     34  H12 non d ame     -34.253   8.419  31.832  0.00  0.00     0.042 H 
BRANCH  33  35
ATOM     35  C12 non d ame     -36.402   8.586  31.810  0.00  0.00    -0.071 C 
ATOM     36  H13 non d ame     -36.227   9.560  32.266  0.00  0.00     0.028 H 
ATOM     37  H14 non d ame     -37.143   8.683  31.018  0.00  0.00     0.028 H 
ATOM     38  H15 non d ame     -36.769   7.893  32.568  0.00  0.00     0.028 H 
ENDBRANCH  33  35
BRANCH  33  39
ATOM     39  C13 non d ame     -35.021   6.482  31.251  0.00  0.00    -0.071 C 
ATOM     40  H16 non d ame     -34.160   6.130  30.683  0.00  0.00     0.028 H 
ATOM     41  H17 non d ame     -34.938   6.146  32.285  0.00  0.00     0.028 H 
ATOM     42  H18 non d ame     -35.934   6.081  30.812  0.00  0.00     0.028 H 
ENDBRANCH  33  39
ENDBRANCH   7  33
ENDBRANCH   4   7
ENDBRANCH   1   3
BRANCH   1  43
ATOM     43  C15 non d ame     -33.682  12.822  27.464  0.00  0.00     0.240 C 
ATOM     44  O5  non d ame     -33.574  12.500  26.325  0.00  0.00    -0.271 OA
ATOM     45  N6  non d ame     -34.375  14.095  27.812  0.00  0.00    -0.355 N 
ATOM     46  H46 non d ame     -34.477  14.377  28.776  0.00  0.00     0.162 HD
BRANCH  45  47
ATOM     47  C20 non d ame     -34.915  14.953  26.735  0.00  0.00     0.013 C 
ATOM     48  H30 non d ame     -34.435  14.659  25.801  0.00  0.00     0.072 H 
BRANCH  47  49
ATOM     49  C21 non d ame     -34.603  16.400  27.044  0.00  0.00    -0.038 C 
ATOM     50  H31 non d ame     -34.810  16.948  26.125  0.00  0.00     0.036 H 
ATOM     51  H32 non d ame     -35.158  16.632  27.954  0.00  0.00     0.036 H 
BRANCH  49  52
ATOM     52  C22 non d ame     -33.112  16.636  27.369  0.00  0.00     0.018 C 
ATOM     53  H33 non d ame     -33.099  17.190  28.306  0.00  0.00     0.048 H 
ATOM     54  H34 non d ame     -32.639  15.656  27.308  0.00  0.00     0.048 H 
BRANCH  52  55
ATOM     55  C23 non d ame     -32.380  17.531  26.331  0.00  0.00     0.259 C 
ATOM     56  O7  non d ame     -32.102  18.656  26.595  0.00  0.00    -0.265 OA
BRANCH  55  57
ATOM     57  O8  non d ame     -32.055  16.994  25.054  0.00  0.00    -0.317 OA
BRANCH  57  58
ATOM     58  C29 non d ame     -31.287  15.788  25.106  0.00  0.00     0.052 C 
ATOM     59  H47 non d ame     -30.405  16.027  25.700  0.00  0.00     0.082 H 
ATOM     60  H48 non d ame     -31.976  15.013  25.439  0.00  0.00     0.082 H 
BRANCH  58  61
ATOM     61  C35 non d ame     -30.830  15.449  23.662  0.00  0.00    -0.034 A 
ATOM     62  C30 non d ame     -31.294  16.205  22.590  0.00  0.00    -0.075 A 
ATOM     63  C31 non d ame     -30.885  15.900  21.292  0.00  0.00    -0.082 A 
ATOM     64  H49 non d ame     -31.979  17.035  22.765  0.00  0.00     0.084 H 
ATOM     65  C32 non d ame     -30.008  14.835  21.069  0.00  0.00    -0.083 A 
ATOM     66  H50 non d ame     -31.249  16.496  20.454  0.00  0.00     0.083 H 
ATOM     67  C33 non d ame     -29.551  14.082  22.142  0.00  0.00    -0.082 A 
ATOM     68  H51 non d ame     -29.682  14.590  20.057  0.00  0.00     0.083 H 
ATOM     69  C34 non d ame     -29.957  14.383  23.440  0.00  0.00    -0.075 A 
ATOM     70  H52 non d ame     -28.869  13.249  21.964  0.00  0.00     0.083 H 
ATOM     71  H53 non d ame     -29.592  13.789  24.278  0.00  0.00     0.084 H 
ENDBRANCH  58  61
ENDBRANCH  57  58
ENDBRANCH  55  57
ENDBRANCH  52  55
ENDBRANCH  49  52
ENDBRANCH  47  49
BRANCH  47  72
ATOM     72  C24 non d ame     -36.427  14.766  26.636  0.00  0.00    -0.039 C 
ATOM     73  H35 non d ame     -36.731  14.349  27.597  0.00  0.00     0.036 H 
ATOM     74  H36 non d ame     -36.818  15.731  26.312  0.00  0.00     0.036 H 
BRANCH  72  75
ATOM     75  C25 non d ame     -36.820  13.695  25.511  0.00  0.00    -0.001 C 
ATOM     76  C26 non d ame     -38.006  14.303  24.550  0.00  0.00    -0.035 C 
ATOM     77  C27 non d ame     -39.014  13.401  24.475  0.00  0.00     0.085 C 
ATOM     78  H38 non d ame     -38.471  15.165  25.028  0.00  0.00     0.036 H 
ATOM     79  H39 non d ame     -37.654  14.376  23.520  0.00  0.00     0.036 H 
ATOM     80  N5  non d ame     -38.769  12.376  25.558  0.00  0.00    -0.049 N 
ATOM     81  H40 non d ame     -39.921  13.957  24.710  0.00  0.00     0.075 H 
ATOM     82  H41 non d ame     -38.905  12.923  23.503  0.00  0.00     0.075 H 
ATOM     83  C28 non d ame     -37.245  12.597  26.040  0.00  0.00     0.193 C 
ATOM     84  H42 non d ame     -39.385  12.614  26.321  0.00  0.00     0.280 HD
ATOM     85  H43 non d ame     -38.839  11.471  25.114  0.00  0.00     0.280 HD
ATOM     86  H44 non d ame     -36.460  11.908  25.724  0.00  0.00     0.129 H 
ATOM     87  H37 non d ame     -35.944  13.278  25.014  0.00  0.00     0.046 H 
BRANCH  83  88
ATOM     88  O6  non d ame     -37.178  12.624  27.467  0.00  0.00    -0.369 OA
ATOM     89  H45 non d ame     -36.489  12.026  27.767  0.00  0.00     0.212 HD
ENDBRANCH  83  88
ENDBRANCH  72  75
ENDBRANCH  47  72
ENDBRANCH  45  47
ENDBRANCH   1  43
BRANCH   1  90
ATOM     90  C16 non d ame     -31.627  11.666  28.340  0.00  0.00    -0.035 C 
ATOM     91  H21 non d ame     -31.445  10.641  28.659  0.00  0.00     0.037 H 
ATOM     92  H22 non d ame     -31.456  11.953  27.302  0.00  0.00     0.037 H 
BRANCH  90  93
ATOM     93  C17 non d ame     -30.694  12.570  29.208  0.00  0.00    -0.059 C 
ATOM     94  H23 non d ame     -29.712  12.099  29.236  0.00  0.00     0.038 H 
BRANCH  93  95
ATOM     95  C18 non d ame     -30.520  13.997  28.596  0.00  0.00    -0.073 C 
ATOM     96  H24 non d ame     -29.690  14.504  29.087  0.00  0.00     0.028 H 
ATOM     97  H25 non d ame     -30.314  13.912  27.530  0.00  0.00     0.028 H 
ATOM     98  H26 non d ame     -31.435  14.570  28.745  0.00  0.00     0.028 H 
ENDBRANCH  93  95
BRANCH  93  99
ATOM     99  C19 non d ame     -31.202  12.654  30.650  0.00  0.00    -0.073 C 
ATOM    100  H27 non d ame     -30.416  13.060  31.288  0.00  0.00     0.028 H 
ATOM    101  H28 non d ame     -32.075  13.304  30.692  0.00  0.00     0.028 H 
ATOM    102  H29 non d ame     -31.474  11.657  30.998  0.00  0.00     0.028 H 
ENDBRANCH  93  99
ENDBRANCH  90  93
ENDBRANCH   1  90
TORSDOF 26
ENDMDL
MODEL 5
REMARK VINA RESULT:      -6.2      3.952      8.514
REMARK  26 active torsions:
REMARK  status: ('A' for Active; 'I' for Inactive)
REMARK    1  A    between atoms: C2_2  and  C3_3 
REMARK    2  A    between atoms: C4_6  and  C5_7 
REMARK       I    between atoms: C5_7  and  N2_9 
REMARK    3  A    between atoms: N2_9  and  C6_10 
REMARK    4  A    between atoms: C6_10  and  C7_11 
REMARK    5  A    between atoms: C6_10  and  C8_13 
REMARK       I    between atoms: C7_11  and  N3_14 
REMARK    6  A    between atoms: N3_14  and  C9_15 
REMARK    7  A    between atoms: C9_15  and  C10_16 
REMARK    8  A    between atoms: C9_15  and  C11_18 
REMARK       I    between atoms: C10_16  and  N4_21 
REMARK    9  A    between atoms: C11_18  and  C12_19 
REMARK   10  A    between atoms: C11_18  and  C13_20 
REMARK   11  A    between atoms: N4_21  and  C14_22 
REMARK   12  A    between atoms: C14_22  and  C15_23 
REMARK   13  A    between atoms: C14_22  and  C16_25 
REMARK       I    between atoms: C15_23  and  N6_40 
REMARK   14  A    between atoms: C16_25  and  C17_26 
REMARK   15  A    between atoms: C17_26  and  C18_27 
REMARK   16  A    between atoms: C17_26  and  C19_28 
REMARK   17  A    between atoms: C20_29  and  C21_30 
REMARK   18  A    between atoms: C20_29  and  C24_33 
REMARK   19  A    between atoms: C20_29  and  N6_40 
REMARK   20  A    between atoms: C21_30  and  C22_31 
REMARK   21  A    between atoms: C22_31  and  C23_32 
REMARK   22  A    between atoms: C23_32  and  O8_43 
REMARK   23  A    between atoms: C24_33  and  C25_34 
REMARK   24  A    between atoms: C28_38  and  O6_39 
REMARK   25  A    between atoms: C29_42  and  O8_43 
REMARK   26  A    between atoms: C29_42  and  C35_49 
ROOT
ATOM      1  C14 non d ame     -35.168   9.256  26.846  0.00  0.00     0.089 C 
ATOM      2  H20 non d ame     -34.340   9.903  27.136  0.00  0.00     0.087 H 
ENDROOT
BRANCH   1   3
ATOM      3  N4  non d ame     -34.658   8.299  25.875  0.00  0.00    -0.346 N 
ATOM      4  C10 non d ame     -33.439   8.626  25.052  0.00  0.00     0.241 C 
ATOM      5  O4  non d ame     -32.885   9.668  25.186  0.00  0.00    -0.271 OA
ATOM      6  H19 non d ame     -35.145   7.420  25.774  0.00  0.00     0.163 HD
BRANCH   4   7
ATOM      7  C9  non d ame     -32.921   7.623  24.055  0.00  0.00     0.092 C 
ATOM      8  H11 non d ame     -33.528   7.670  23.151  0.00  0.00     0.088 H 
BRANCH   7   9
ATOM      9  N3  non d ame     -31.549   7.973  23.675  0.00  0.00    -0.346 N 
ATOM     10  C7  non d ame     -31.216   8.179  22.288  0.00  0.00     0.240 C 
ATOM     11  O3  non d ame     -32.039   8.067  21.463  0.00  0.00    -0.271 OA
ATOM     12  H10 non d ame     -30.828   8.071  24.376  0.00  0.00     0.163 HD
BRANCH  10  13
ATOM     13  C6  non d ame     -29.753   8.548  21.890  0.00  0.00     0.086 C 
ATOM     14  H6  non d ame     -29.437   8.075  20.960  0.00  0.00     0.086 H 
BRANCH  13  15
ATOM     15  N2  non d ame     -29.670   9.983  21.674  0.00  0.00    -0.343 N 
ATOM     16  C5  non d ame     -29.969  10.897  22.779  0.00  0.00     0.273 C 
ATOM     17  O2  non d ame     -30.278  10.468  23.836  0.00  0.00    -0.266 OA
ATOM     18  H5  non d ame     -29.408  10.341  20.767  0.00  0.00     0.163 HD
BRANCH  16  19
ATOM     19  C4  non d ame     -29.884  12.417  22.565  0.00  0.00     0.154 A 
ATOM     20  C1  non d ame     -30.655  13.426  23.223  0.00  0.00    -0.017 A 
ATOM     21  C2  non d ame     -30.199  14.646  22.675  0.00  0.00     0.077 A 
ATOM     22  H1  non d ame     -31.427  13.294  23.982  0.00  0.00     0.091 H 
ATOM     23  O1  non d ame     -29.274  14.359  21.807  0.00  0.00    -0.218 OA
ATOM     24  N1  non d ame     -29.073  13.064  21.725  0.00  0.00    -0.123 NA
BRANCH  21  25
ATOM     25  C3  non d ame     -30.697  16.039  23.037  0.00  0.00    -0.029 C 
ATOM     26  H2  non d ame     -31.598  16.262  22.466  0.00  0.00     0.036 H 
ATOM     27  H3  non d ame     -30.925  16.079  24.102  0.00  0.00     0.036 H 
ATOM     28  H4  non d ame     -29.927  16.773  22.803  0.00  0.00     0.036 H 
ENDBRANCH  21  25
ENDBRANCH  16  19
ENDBRANCH  13  15
BRANCH  13  29
ATOM     29  C8  non d ame     -28.810   8.135  22.991  0.00  0.00    -0.049 C 
ATOM     30  H7  non d ame     -29.342   8.130  23.942  0.00  0.00     0.030 H 
ATOM     31  H8  non d ame     -28.425   7.137  22.785  0.00  0.00     0.030 H 
ATOM     32  H9  non d ame     -27.980   8.842  23.043  0.00  0.00     0.030 H 
ENDBRANCH  13  29
ENDBRANCH  10  13
ENDBRANCH   7   9
BRANCH   7  33
ATOM     33  C11 non d ame     -32.933   6.203  24.695  0.00  0.00    -0.033 C 
ATOM     34  H12 non d ame     -33.924   6.042  25.119  0.00  0.00     0.042 H 
BRANCH  33  35
ATOM     35  C12 non d ame     -32.696   5.095  23.622  0.00  0.00    -0.071 C 
ATOM     36  H13 non d ame     -33.606   4.954  23.038  0.00  0.00     0.028 H 
ATOM     37  H14 non d ame     -31.883   5.395  22.962  0.00  0.00     0.028 H 
ATOM     38  H15 non d ame     -32.436   4.159  24.118  0.00  0.00     0.028 H 
ENDBRANCH  33  35
BRANCH  33  39
ATOM     39  C13 non d ame     -31.890   6.103  25.853  0.00  0.00    -0.071 C 
ATOM     40  H16 non d ame     -32.108   6.862  26.606  0.00  0.00     0.028 H 
ATOM     41  H17 non d ame     -31.944   5.113  26.307  0.00  0.00     0.028 H 
ATOM     42  H18 non d ame     -30.888   6.265  25.455  0.00  0.00     0.028 H 
ENDBRANCH  33  39
ENDBRANCH   7  33
ENDBRANCH   4   7
ENDBRANCH   1   3
BRANCH   1  43
ATOM     43  C15 non d ame     -35.751   8.470  28.057  0.00  0.00     0.240 C 
ATOM     44  O5  non d ame     -36.926   8.442  28.232  0.00  0.00    -0.271 OA
ATOM     45  N6  non d ame     -34.844   7.744  28.991  0.00  0.00    -0.355 N 
ATOM     46  H46 non d ame     -33.844   7.757  28.849  0.00  0.00     0.162 HD
BRANCH  45  47
ATOM     47  C20 non d ame     -35.413   7.002  30.136  0.00  0.00     0.013 C 
ATOM     48  H30 non d ame     -36.499   7.090  30.085  0.00  0.00     0.072 H 
BRANCH  47  49
ATOM     49  C21 non d ame     -34.904   7.604  31.426  0.00  0.00    -0.038 C 
ATOM     50  H31 non d ame     -35.141   6.877  32.203  0.00  0.00     0.036 H 
ATOM     51  H32 non d ame     -33.867   7.878  31.233  0.00  0.00     0.036 H 
BRANCH  49  52
ATOM     52  C22 non d ame     -35.637   8.908  31.809  0.00  0.00     0.018 C 
ATOM     53  H33 non d ame     -36.451   9.010  31.093  0.00  0.00     0.048 H 
ATOM     54  H34 non d ame     -35.854   8.822  32.874  0.00  0.00     0.048 H 
BRANCH  52  55
ATOM     55  C23 non d ame     -34.765  10.185  31.651  0.00  0.00     0.259 C 
ATOM     56  O7  non d ame     -34.493  10.850  32.598  0.00  0.00    -0.265 OA
BRANCH  55  57
ATOM     57  O8  non d ame     -34.305  10.560  30.358  0.00  0.00    -0.317 OA
BRANCH  57  58
ATOM     58  C29 non d ame     -32.882  10.543  30.218  0.00  0.00     0.052 C 
ATOM     59  H47 non d ame     -32.485  10.765  31.209  0.00  0.00     0.082 H 
ATOM     60  H48 non d ame     -32.644   9.596  29.735  0.00  0.00     0.082 H 
BRANCH  58  61
ATOM     61  C35 non d ame     -32.482  11.696  29.259  0.00  0.00    -0.034 A 
ATOM     62  C30 non d ame     -32.609  13.019  29.671  0.00  0.00    -0.075 A 
ATOM     63  C31 non d ame     -32.250  14.056  28.810  0.00  0.00    -0.082 A 
ATOM     64  H49 non d ame     -32.990  13.245  30.667  0.00  0.00     0.084 H 
ATOM     65  C32 non d ame     -31.764  13.765  27.533  0.00  0.00    -0.083 A 
ATOM     66  H50 non d ame     -32.349  15.092  29.136  0.00  0.00     0.083 H 
ATOM     67  C33 non d ame     -31.643  12.444  27.125  0.00  0.00    -0.082 A 
ATOM     68  H51 non d ame     -31.481  14.570  26.853  0.00  0.00     0.083 H 
ATOM     69  C34 non d ame     -31.999  11.405  27.983  0.00  0.00    -0.075 A 
ATOM     70  H52 non d ame     -31.266  12.220  26.126  0.00  0.00     0.083 H 
ATOM     71  H53 non d ame     -31.899  10.370  27.656  0.00  0.00     0.084 H 
ENDBRANCH  58  61
ENDBRANCH  57  58
ENDBRANCH  55  57
ENDBRANCH  52  55
ENDBRANCH  49  52
ENDBRANCH  47  49
BRANCH  47  72
ATOM     72  C24 non d ame     -34.997   5.534  30.058  0.00  0.00    -0.039 C 
ATOM     73  H35 non d ame     -34.383   5.360  30.942  0.00  0.00     0.036 H 
ATOM     74  H36 non d ame     -35.924   4.977  29.920  0.00  0.00     0.036 H 
BRANCH  72  75
ATOM     75  C25 non d ame     -34.078   5.246  28.778  0.00  0.00    -0.001 C 
ATOM     76  C26 non d ame     -34.940   4.429  27.642  0.00  0.00    -0.035 C 
ATOM     77  C27 non d ame     -34.237   3.334  27.264  0.00  0.00     0.085 C 
ATOM     78  H38 non d ame     -35.843   4.010  28.086  0.00  0.00     0.036 H 
ATOM     79  H39 non d ame     -35.006   5.017  26.726  0.00  0.00     0.036 H 
ATOM     80  N5  non d ame     -33.127   3.153  28.272  0.00  0.00    -0.049 N 
ATOM     81  H40 non d ame     -34.933   2.499  27.346  0.00  0.00     0.075 H 
ATOM     82  H41 non d ame     -33.802   3.587  26.298  0.00  0.00     0.075 H 
ATOM     83  C28 non d ame     -33.045   4.539  29.095  0.00  0.00     0.193 C 
ATOM     84  H42 non d ame     -33.429   2.423  28.900  0.00  0.00     0.280 HD
ATOM     85  H43 non d ame     -32.276   3.043  27.740  0.00  0.00     0.280 HD
ATOM     86  H44 non d ame     -32.247   5.254  28.895  0.00  0.00     0.129 H 
ATOM     87  H37 non d ame     -33.540   6.134  28.448  0.00  0.00     0.046 H 
BRANCH  83  88
ATOM     88  O6  non d ame     -32.981   4.276  30.498  0.00  0.00    -0.369 OA
ATOM     89  H45 non d ame     -32.336   4.860  30.904  0.00  0.00     0.212 HD
ENDBRANCH  83  88
ENDBRANCH  72  75
ENDBRANCH  47  72
ENDBRANCH  45  47
ENDBRANCH   1  43
BRANCH   1  90
ATOM     90  C16 non d ame     -36.266  10.084  26.199  0.00  0.00    -0.035 C 
ATOM     91  H21 non d ame     -36.515   9.562  25.276  0.00  0.00     0.037 H 
ATOM     92  H22 non d ame     -37.022  10.215  26.973  0.00  0.00     0.037 H 
BRANCH  90  93
ATOM     93  C17 non d ame     -35.806  11.518  25.783  0.00  0.00    -0.059 C 
ATOM     94  H23 non d ame     -34.893  11.414  25.196  0.00  0.00     0.038 H 
BRANCH  93  95
ATOM     95  C18 non d ame     -36.864  12.241  24.891  0.00  0.00    -0.073 C 
ATOM     96  H24 non d ame     -36.493  13.228  24.613  0.00  0.00     0.028 H 
ATOM     97  H25 non d ame     -37.042  11.655  23.990  0.00  0.00     0.028 H 
ATOM     98  H26 non d ame     -37.796  12.347  25.446  0.00  0.00     0.028 H 
ENDBRANCH  93  95
BRANCH  93  99
ATOM     99  C19 non d ame     -35.463  12.361  27.014  0.00  0.00    -0.073 C 
ATOM    100  H27 non d ame     -35.689  11.793  27.917  0.00  0.00     0.028 H 
ATOM    101  H28 non d ame     -34.403  12.612  27.000  0.00  0.00     0.028 H 
ATOM    102  H29 non d ame     -36.054  13.277  27.003  0.00  0.00     0.028 H 
ENDBRANCH  93  99
ENDBRANCH  90  93
ENDBRANCH   1  90
TORSDOF 26
ENDMDL
MODEL 6
REMARK VINA RESULT:      -6.2      3.579      9.443
REMARK  26 active torsions:
REMARK  status: ('A' for Active; 'I' for Inactive)
REMARK    1  A    between atoms: C2_2  and  C3_3 
REMARK    2  A    between atoms: C4_6  and  C5_7 
REMARK       I    between atoms: C5_7  and  N2_9 
REMARK    3  A    between atoms: N2_9  and  C6_10 
REMARK    4  A    between atoms: C6_10  and  C7_11 
REMARK    5  A    between atoms: C6_10  and  C8_13 
REMARK       I    between atoms: C7_11  and  N3_14 
REMARK    6  A    between atoms: N3_14  and  C9_15 
REMARK    7  A    between atoms: C9_15  and  C10_16 
REMARK    8  A    between atoms: C9_15  and  C11_18 
REMARK       I    between atoms: C10_16  and  N4_21 
REMARK    9  A    between atoms: C11_18  and  C12_19 
REMARK   10  A    between atoms: C11_18  and  C13_20 
REMARK   11  A    between atoms: N4_21  and  C14_22 
REMARK   12  A    between atoms: C14_22  and  C15_23 
REMARK   13  A    between atoms: C14_22  and  C16_25 
REMARK       I    between atoms: C15_23  and  N6_40 
REMARK   14  A    between atoms: C16_25  and  C17_26 
REMARK   15  A    between atoms: C17_26  and  C18_27 
REMARK   16  A    between atoms: C17_26  and  C19_28 
REMARK   17  A    between atoms: C20_29  and  C21_30 
REMARK   18  A    between atoms: C20_29  and  C24_33 
REMARK   19  A    between atoms: C20_29  and  N6_40 
REMARK   20  A    between atoms: C21_30  and  C22_31 
REMARK   21  A    between atoms: C22_31  and  C23_32 
REMARK   22  A    between atoms: C23_32  and  O8_43 
REMARK   23  A    between atoms: C24_33  and  C25_34 
REMARK   24  A    between atoms: C28_38  and  O6_39 
REMARK   25  A    between atoms: C29_42  and  O8_43 
REMARK   26  A    between atoms: C29_42  and  C35_49 
ROOT
ATOM      1  C14 non d ame     -34.840   8.150  31.414  0.00  0.00     0.089 C 
ATOM      2  H20 non d ame     -34.335   8.130  32.380  0.00  0.00     0.087 H 
ENDROOT
BRANCH   1   3
ATOM      3  N4  non d ame     -34.001   8.908  30.497  0.00  0.00    -0.346 N 
ATOM      4  C10 non d ame     -33.589  10.319  30.831  0.00  0.00     0.241 C 
ATOM      5  O4  non d ame     -33.946  10.826  31.843  0.00  0.00    -0.271 OA
ATOM      6  H19 non d ame     -33.710   8.460  29.640  0.00  0.00     0.163 HD
BRANCH   4   7
ATOM      7  C9  non d ame     -32.716  11.087  29.872  0.00  0.00     0.092 C 
ATOM      8  H11 non d ame     -32.003  10.404  29.411  0.00  0.00     0.088 H 
BRANCH   7   9
ATOM      9  N3  non d ame     -33.543  11.642  28.796  0.00  0.00    -0.346 N 
ATOM     10  C7  non d ame     -33.323  11.229  27.433  0.00  0.00     0.240 C 
ATOM     11  O3  non d ame     -32.486  10.450  27.183  0.00  0.00    -0.271 OA
ATOM     12  H10 non d ame     -34.268  12.316  28.997  0.00  0.00     0.163 HD
BRANCH  10  13
ATOM     13  C6  non d ame     -34.204  11.826  26.291  0.00  0.00     0.086 C 
ATOM     14  H6  non d ame     -34.953  12.527  26.659  0.00  0.00     0.086 H 
BRANCH  13  15
ATOM     15  N2  non d ame     -33.352  12.569  25.378  0.00  0.00    -0.343 N 
ATOM     16  C5  non d ame     -32.901  13.913  25.745  0.00  0.00     0.273 C 
ATOM     17  O2  non d ame     -33.232  14.390  26.775  0.00  0.00    -0.266 OA
ATOM     18  H5  non d ame     -33.077  12.156  24.499  0.00  0.00     0.163 HD
BRANCH  16  19
ATOM     19  C4  non d ame     -31.999  14.710  24.789  0.00  0.00     0.154 A 
ATOM     20  C1  non d ame     -30.943  14.200  23.969  0.00  0.00    -0.017 A 
ATOM     21  C2  non d ame     -30.434  15.328  23.289  0.00  0.00     0.077 A 
ATOM     22  H1  non d ame     -30.600  13.169  23.882  0.00  0.00     0.091 H 
ATOM     23  O1  non d ame     -31.125  16.360  23.677  0.00  0.00    -0.218 OA
ATOM     24  N1  non d ame     -32.044  16.024  24.553  0.00  0.00    -0.123 NA
BRANCH  21  25
ATOM     25  C3  non d ame     -29.290  15.335  22.284  0.00  0.00    -0.029 C 
ATOM     26  H2  non d ame     -29.055  16.362  22.007  0.00  0.00     0.036 H 
ATOM     27  H3  non d ame     -28.411  14.871  22.731  0.00  0.00     0.036 H 
ATOM     28  H4  non d ame     -29.582  14.777  21.395  0.00  0.00     0.036 H 
ENDBRANCH  21  25
ENDBRANCH  16  19
ENDBRANCH  13  15
BRANCH  13  29
ATOM     29  C8  non d ame     -34.901  10.711  25.555  0.00  0.00    -0.049 C 
ATOM     30  H7  non d ame     -35.137   9.906  26.251  0.00  0.00     0.030 H 
ATOM     31  H8  non d ame     -35.823  11.088  25.112  0.00  0.00     0.030 H 
ATOM     32  H9  non d ame     -34.248  10.330  24.768  0.00  0.00     0.030 H 
ENDBRANCH  13  29
ENDBRANCH  10  13
ENDBRANCH   7   9
BRANCH   7  33
ATOM     33  C11 non d ame     -32.010  12.248  30.632  0.00  0.00    -0.033 C 
ATOM     34  H12 non d ame     -32.518  12.373  31.588  0.00  0.00     0.042 H 
BRANCH  33  35
ATOM     35  C12 non d ame     -30.518  11.903  30.936  0.00  0.00    -0.071 C 
ATOM     36  H13 non d ame     -29.868  12.560  30.357  0.00  0.00     0.028 H 
ATOM     37  H14 non d ame     -30.322  12.041  31.998  0.00  0.00     0.028 H 
ATOM     38  H15 non d ame     -30.322  10.867  30.661  0.00  0.00     0.028 H 
ENDBRANCH  33  35
BRANCH  33  39
ATOM     39  C13 non d ame     -32.132  13.589  29.841  0.00  0.00    -0.071 C 
ATOM     40  H16 non d ame     -33.180  13.784  29.615  0.00  0.00     0.028 H 
ATOM     41  H17 non d ame     -31.731  14.405  30.444  0.00  0.00     0.028 H 
ATOM     42  H18 non d ame     -31.568  13.516  28.911  0.00  0.00     0.028 H 
ENDBRANCH  33  39
ENDBRANCH   7  33
ENDBRANCH   4   7
ENDBRANCH   1   3
BRANCH   1  43
ATOM     43  C15 non d ame     -35.048   6.723  30.830  0.00  0.00     0.240 C 
ATOM     44  O5  non d ame     -35.555   5.880  31.497  0.00  0.00    -0.271 OA
ATOM     45  N6  non d ame     -34.623   6.409  29.436  0.00  0.00    -0.355 N 
ATOM     46  H46 non d ame     -34.195   7.119  28.858  0.00  0.00     0.162 HD
BRANCH  45  47
ATOM     47  C20 non d ame     -34.829   5.048  28.896  0.00  0.00     0.013 C 
ATOM     48  H30 non d ame     -35.154   4.409  29.717  0.00  0.00     0.072 H 
BRANCH  47  49
ATOM     49  C21 non d ame     -33.527   4.535  28.325  0.00  0.00    -0.038 C 
ATOM     50  H31 non d ame     -32.959   4.158  29.177  0.00  0.00     0.036 H 
ATOM     51  H32 non d ame     -33.806   3.860  27.515  0.00  0.00     0.036 H 
BRANCH  49  52
ATOM     52  C22 non d ame     -32.670   5.651  27.687  0.00  0.00     0.018 C 
ATOM     53  H33 non d ame     -33.182   6.584  27.919  0.00  0.00     0.048 H 
ATOM     54  H34 non d ame     -31.654   5.483  28.044  0.00  0.00     0.048 H 
BRANCH  52  55
ATOM     55  C23 non d ame     -32.597   5.575  26.137  0.00  0.00     0.259 C 
ATOM     56  O7  non d ame     -33.229   4.762  25.543  0.00  0.00    -0.265 OA
BRANCH  55  57
ATOM     57  O8  non d ame     -31.754   6.481  25.434  0.00  0.00    -0.317 OA
BRANCH  57  58
ATOM     58  C29 non d ame     -32.053   6.591  24.039  0.00  0.00     0.052 C 
ATOM     59  H47 non d ame     -31.567   5.739  23.565  0.00  0.00     0.082 H 
ATOM     60  H48 non d ame     -33.134   6.707  23.977  0.00  0.00     0.082 H 
BRANCH  58  61
ATOM     61  C35 non d ame     -31.390   7.892  23.510  0.00  0.00    -0.034 A 
ATOM     62  C30 non d ame     -30.315   7.816  22.631  0.00  0.00    -0.075 A 
ATOM     63  C31 non d ame     -29.719   8.984  22.156  0.00  0.00    -0.082 A 
ATOM     64  H49 non d ame     -29.938   6.844  22.314  0.00  0.00     0.084 H 
ATOM     65  C32 non d ame     -30.201  10.230  22.564  0.00  0.00    -0.083 A 
ATOM     66  H50 non d ame     -28.877   8.922  21.465  0.00  0.00     0.083 H 
ATOM     67  C33 non d ame     -31.272  10.300  23.445  0.00  0.00    -0.082 A 
ATOM     68  H51 non d ame     -29.742  11.148  22.197  0.00  0.00     0.083 H 
ATOM     69  C34 non d ame     -31.872   9.136  23.921  0.00  0.00    -0.075 A 
ATOM     70  H52 non d ame     -31.645  11.274  23.764  0.00  0.00     0.083 H 
ATOM     71  H53 non d ame     -32.714   9.198  24.611  0.00  0.00     0.084 H 
ENDBRANCH  58  61
ENDBRANCH  57  58
ENDBRANCH  55  57
ENDBRANCH  52  55
ENDBRANCH  49  52
ENDBRANCH  47  49
BRANCH  47  72
ATOM     72  C24 non d ame     -35.890   5.083  27.798  0.00  0.00    -0.039 C 
ATOM     73  H35 non d ame     -35.457   5.683  26.996  0.00  0.00     0.036 H 
ATOM     74  H36 non d ame     -36.154   4.041  27.617  0.00  0.00     0.036 H 
BRANCH  72  75
ATOM     75  C25 non d ame     -37.220   5.832  28.283  0.00  0.00    -0.001 C 
ATOM     76  C26 non d ame     -38.121   4.823  29.218  0.00  0.00    -0.035 C 
ATOM     77  C27 non d ame     -39.390   4.805  28.745  0.00  0.00     0.085 C 
ATOM     78  H38 non d ame     -37.786   3.794  29.089  0.00  0.00     0.036 H 
ATOM     79  H39 non d ame     -38.229   5.239  30.220  0.00  0.00     0.036 H 
ATOM     80  N5  non d ame     -39.360   5.451  27.380  0.00  0.00    -0.049 N 
ATOM     81  H40 non d ame     -39.644   3.751  28.634  0.00  0.00     0.075 H 
ATOM     82  H41 non d ame     -39.963   5.435  29.423  0.00  0.00     0.075 H 
ATOM     83  C28 non d ame     -37.938   6.207  27.277  0.00  0.00     0.193 C 
ATOM     84  H42 non d ame     -39.374   4.699  26.707  0.00  0.00     0.280 HD
ATOM     85  H43 non d ame     -40.095   6.145  27.377  0.00  0.00     0.280 HD
ATOM     86  H44 non d ame     -37.878   7.290  27.385  0.00  0.00     0.129 H 
ATOM     87  H37 non d ame     -37.013   6.825  28.681  0.00  0.00     0.046 H 
BRANCH  83  88
ATOM     88  O6  non d ame     -37.312   5.911  26.027  0.00  0.00    -0.369 OA
ATOM     89  H45 non d ame     -37.680   5.100  25.669  0.00  0.00     0.212 HD
ENDBRANCH  83  88
ENDBRANCH  72  75
ENDBRANCH  47  72
ENDBRANCH  45  47
ENDBRANCH   1  43
BRANCH   1  90
ATOM     90  C16 non d ame     -36.184   8.848  31.549  0.00  0.00    -0.035 C 
ATOM     91  H21 non d ame     -36.655   8.398  32.422  0.00  0.00     0.037 H 
ATOM     92  H22 non d ame     -35.958   9.914  31.540  0.00  0.00     0.037 H 
BRANCH  90  93
ATOM     93  C17 non d ame     -37.147   8.589  30.347  0.00  0.00    -0.059 C 
ATOM     94  H23 non d ame     -36.738   7.761  29.768  0.00  0.00     0.038 H 
BRANCH  93  95
ATOM     95  C18 non d ame     -38.580   8.181  30.815  0.00  0.00    -0.073 C 
ATOM     96  H24 non d ame     -39.317   8.827  30.339  0.00  0.00     0.028 H 
ATOM     97  H25 non d ame     -38.772   7.145  30.536  0.00  0.00     0.028 H 
ATOM     98  H26 non d ame     -38.651   8.285  31.898  0.00  0.00     0.028 H 
ENDBRANCH  93  95
BRANCH  93  99
ATOM     99  C19 non d ame     -37.204   9.807  29.420  0.00  0.00    -0.073 C 
ATOM    100  H27 non d ame     -38.079  10.410  29.666  0.00  0.00     0.028 H 
ATOM    101  H28 non d ame     -36.303  10.407  29.551  0.00  0.00     0.028 H 
ATOM    102  H29 non d ame     -37.271   9.473  28.385  0.00  0.00     0.028 H 
ENDBRANCH  93  99
ENDBRANCH  90  93
ENDBRANCH   1  90
TORSDOF 26
ENDMDL
MODEL 7
REMARK VINA RESULT:      -6.2      3.368      7.675
REMARK  26 active torsions:
REMARK  status: ('A' for Active; 'I' for Inactive)
REMARK    1  A    between atoms: C2_2  and  C3_3 
REMARK    2  A    between atoms: C4_6  and  C5_7 
REMARK       I    between atoms: C5_7  and  N2_9 
REMARK    3  A    between atoms: N2_9  and  C6_10 
REMARK    4  A    between atoms: C6_10  and  C7_11 
REMARK    5  A    between atoms: C6_10  and  C8_13 
REMARK       I    between atoms: C7_11  and  N3_14 
REMARK    6  A    between atoms: N3_14  and  C9_15 
REMARK    7  A    between atoms: C9_15  and  C10_16 
REMARK    8  A    between atoms: C9_15  and  C11_18 
REMARK       I    between atoms: C10_16  and  N4_21 
REMARK    9  A    between atoms: C11_18  and  C12_19 
REMARK   10  A    between atoms: C11_18  and  C13_20 
REMARK   11  A    between atoms: N4_21  and  C14_22 
REMARK   12  A    between atoms: C14_22  and  C15_23 
REMARK   13  A    between atoms: C14_22  and  C16_25 
REMARK       I    between atoms: C15_23  and  N6_40 
REMARK   14  A    between atoms: C16_25  and  C17_26 
REMARK   15  A    between atoms: C17_26  and  C18_27 
REMARK   16  A    between atoms: C17_26  and  C19_28 
REMARK   17  A    between atoms: C20_29  and  C21_30 
REMARK   18  A    between atoms: C20_29  and  C24_33 
REMARK   19  A    between atoms: C20_29  and  N6_40 
REMARK   20  A    between atoms: C21_30  and  C22_31 
REMARK   21  A    between atoms: C22_31  and  C23_32 
REMARK   22  A    between atoms: C23_32  and  O8_43 
REMARK   23  A    between atoms: C24_33  and  C25_34 
REMARK   24  A    between atoms: C28_38  and  O6_39 
REMARK   25  A    between atoms: C29_42  and  O8_43 
REMARK   26  A    between atoms: C29_42  and  C35_49 
ROOT
ATOM      1  C14 non d ame     -32.174   8.865  24.704  0.00  0.00     0.089 C 
ATOM      2  H20 non d ame     -31.175   8.435  24.772  0.00  0.00     0.087 H 
ENDROOT
BRANCH   1   3
ATOM      3  N4  non d ame     -33.124   7.763  24.659  0.00  0.00    -0.346 N 
ATOM      4  C10 non d ame     -32.658   6.347  24.885  0.00  0.00     0.241 C 
ATOM      5  O4  non d ame     -31.514   6.118  25.100  0.00  0.00    -0.271 OA
ATOM      6  H19 non d ame     -34.092   7.979  24.472  0.00  0.00     0.163 HD
BRANCH   4   7
ATOM      7  C9  non d ame     -33.656   5.219  24.840  0.00  0.00     0.092 C 
ATOM      8  H11 non d ame     -33.133   4.273  24.979  0.00  0.00     0.088 H 
BRANCH   7   9
ATOM      9  N3  non d ame     -34.603   5.358  25.951  0.00  0.00    -0.346 N 
ATOM     10  C7  non d ame     -34.493   4.498  27.103  0.00  0.00     0.240 C 
ATOM     11  O3  non d ame     -33.650   3.688  27.153  0.00  0.00    -0.271 OA
ATOM     12  H10 non d ame     -35.336   6.052  25.920  0.00  0.00     0.163 HD
BRANCH  10  13
ATOM     13  C6  non d ame     -35.506   4.649  28.280  0.00  0.00     0.086 C 
ATOM     14  H6  non d ame     -35.221   4.069  29.158  0.00  0.00     0.086 H 
BRANCH  13  15
ATOM     15  N2  non d ame     -35.543   6.041  28.696  0.00  0.00    -0.343 N 
ATOM     16  C5  non d ame     -35.253   6.386  30.089  0.00  0.00     0.273 C 
ATOM     17  O2  non d ame     -34.995   5.537  30.869  0.00  0.00    -0.266 OA
ATOM     18  H5  non d ame     -35.767   6.761  28.023  0.00  0.00     0.163 HD
BRANCH  16  19
ATOM     19  C4  non d ame     -35.288   7.855  30.541  0.00  0.00     0.154 A 
ATOM     20  C1  non d ame     -35.200   8.349  31.881  0.00  0.00    -0.017 A 
ATOM     21  C2  non d ame     -35.281   9.754  31.756  0.00  0.00     0.077 A 
ATOM     22  H1  non d ame     -35.094   7.776  32.803  0.00  0.00     0.091 H 
ATOM     23  O1  non d ame     -35.399  10.024  30.490  0.00  0.00    -0.218 OA
ATOM     24  N1  non d ame     -35.406   8.932  29.760  0.00  0.00    -0.123 NA
BRANCH  21  25
ATOM     25  C3  non d ame     -35.235  10.764  32.894  0.00  0.00    -0.029 C 
ATOM     26  H2  non d ame     -35.467  10.264  33.834  0.00  0.00     0.036 H 
ATOM     27  H3  non d ame     -34.238  11.201  32.953  0.00  0.00     0.036 H 
ATOM     28  H4  non d ame     -35.966  11.552  32.712  0.00  0.00     0.036 H 
ENDBRANCH  21  25
ENDBRANCH  16  19
ENDBRANCH  13  15
BRANCH  13  29
ATOM     29  C8  non d ame     -36.875   4.208  27.829  0.00  0.00    -0.049 C 
ATOM     30  H7  non d ame     -36.932   3.120  27.852  0.00  0.00     0.030 H 
ATOM     31  H8  non d ame     -37.629   4.625  28.495  0.00  0.00     0.030 H 
ATOM     32  H9  non d ame     -37.053   4.560  26.812  0.00  0.00     0.030 H 
ENDBRANCH  13  29
ENDBRANCH  10  13
ENDBRANCH   7   9
BRANCH   7  33
ATOM     33  C11 non d ame     -34.432   5.268  23.491  0.00  0.00    -0.033 C 
ATOM     34  H12 non d ame     -34.819   6.279  23.371  0.00  0.00     0.042 H 
BRANCH  33  35
ATOM     35  C12 non d ame     -33.488   4.981  22.282  0.00  0.00    -0.071 C 
ATOM     36  H13 non d ame     -32.462   4.882  22.638  0.00  0.00     0.028 H 
ATOM     37  H14 non d ame     -33.793   4.056  21.793  0.00  0.00     0.028 H 
ATOM     38  H15 non d ame     -33.546   5.805  21.571  0.00  0.00     0.028 H 
ENDBRANCH  33  35
BRANCH  33  39
ATOM     39  C13 non d ame     -35.646   4.285  23.509  0.00  0.00    -0.071 C 
ATOM     40  H16 non d ame     -36.335   4.544  22.705  0.00  0.00     0.028 H 
ATOM     41  H17 non d ame     -35.289   3.264  23.367  0.00  0.00     0.028 H 
ATOM     42  H18 non d ame     -36.160   4.359  24.467  0.00  0.00     0.028 H 
ENDBRANCH  33  39
ENDBRANCH   7  33
ENDBRANCH   4   7
ENDBRANCH   1   3
BRANCH   1  43
ATOM     43  C15 non d ame     -32.513   9.761  25.930  0.00  0.00     0.240 C 
ATOM     44  O5  non d ame     -32.801   9.258  26.968  0.00  0.00    -0.271 OA
ATOM     45  N6  non d ame     -32.467  11.246  25.814  0.00  0.00    -0.355 N 
ATOM     46  H46 non d ame     -32.218  11.685  24.939  0.00  0.00     0.162 HD
BRANCH  45  47
ATOM     47  C20 non d ame     -32.791  12.083  26.990  0.00  0.00     0.013 C 
ATOM     48  H30 non d ame     -33.227  11.437  27.751  0.00  0.00     0.072 H 
BRANCH  47  49
ATOM     49  C21 non d ame     -33.783  13.150  26.586  0.00  0.00    -0.038 C 
ATOM     50  H31 non d ame     -34.696  12.617  26.318  0.00  0.00     0.036 H 
ATOM     51  H32 non d ame     -33.792  13.869  27.406  0.00  0.00     0.036 H 
BRANCH  49  52
ATOM     52  C22 non d ame     -33.346  13.930  25.327  0.00  0.00     0.018 C 
ATOM     53  H33 non d ame     -32.292  13.693  25.184  0.00  0.00     0.048 H 
ATOM     54  H34 non d ame     -34.072  13.675  24.556  0.00  0.00     0.048 H 
BRANCH  52  55
ATOM     55  C23 non d ame     -33.419  15.474  25.490  0.00  0.00     0.259 C 
ATOM     56  O7  non d ame     -34.406  15.989  25.908  0.00  0.00    -0.265 OA
BRANCH  55  57
ATOM     57  O8  non d ame     -32.298  16.268  25.121  0.00  0.00    -0.317 OA
BRANCH  57  58
ATOM     58  C29 non d ame     -31.068  15.541  25.049  0.00  0.00     0.052 C 
ATOM     59  H47 non d ame     -30.327  16.166  25.549  0.00  0.00     0.082 H 
ATOM     60  H48 non d ame     -31.290  14.546  25.432  0.00  0.00     0.082 H 
BRANCH  58  61
ATOM     61  C35 non d ame     -30.674  15.414  23.553  0.00  0.00    -0.034 A 
ATOM     62  C30 non d ame     -29.690  14.508  23.167  0.00  0.00    -0.075 A 
ATOM     63  C31 non d ame     -29.336  14.394  21.824  0.00  0.00    -0.082 A 
ATOM     64  H49 non d ame     -29.196  13.890  23.916  0.00  0.00     0.084 H 
ATOM     65  C32 non d ame     -29.968  15.190  20.865  0.00  0.00    -0.083 A 
ATOM     66  H50 non d ame     -28.566  13.682  21.524  0.00  0.00     0.083 H 
ATOM     67  C33 non d ame     -30.946  16.094  21.256  0.00  0.00    -0.082 A 
ATOM     68  H51 non d ame     -29.697  15.106  19.812  0.00  0.00     0.083 H 
ATOM     69  C34 non d ame     -31.304  16.211  22.597  0.00  0.00    -0.075 A 
ATOM     70  H52 non d ame     -31.436  16.716  20.505  0.00  0.00     0.083 H 
ATOM     71  H53 non d ame     -32.075  16.922  22.896  0.00  0.00     0.084 H 
ENDBRANCH  58  61
ENDBRANCH  57  58
ENDBRANCH  55  57
ENDBRANCH  52  55
ENDBRANCH  49  52
ENDBRANCH  47  49
BRANCH  47  72
ATOM     72  C24 non d ame     -31.519  12.743  27.520  0.00  0.00    -0.039 C 
ATOM     73  H35 non d ame     -30.757  12.551  26.763  0.00  0.00     0.036 H 
ATOM     74  H36 non d ame     -31.802  13.768  27.760  0.00  0.00     0.036 H 
BRANCH  72  75
ATOM     75  C25 non d ame     -31.018  12.059  28.879  0.00  0.00    -0.001 C 
ATOM     76  C26 non d ame     -32.288  11.361  29.655  0.00  0.00    -0.035 C 
ATOM     77  C27 non d ame     -32.304  11.790  30.940  0.00  0.00     0.085 C 
ATOM     78  H38 non d ame     -33.227  11.738  29.250  0.00  0.00     0.036 H 
ATOM     79  H39 non d ame     -32.127  10.287  29.747  0.00  0.00     0.036 H 
ATOM     80  N5  non d ame     -31.359  12.965  31.024  0.00  0.00    -0.049 N 
ATOM     81  H40 non d ame     -33.322  12.137  31.119  0.00  0.00     0.075 H 
ATOM     82  H41 non d ame     -31.899  10.966  31.527  0.00  0.00     0.075 H 
ATOM     83  C28 non d ame     -30.483  12.928  29.669  0.00  0.00     0.193 C 
ATOM     84  H42 non d ame     -31.934  13.795  31.012  0.00  0.00     0.280 HD
ATOM     85  H43 non d ame     -30.749  12.785  31.808  0.00  0.00     0.280 HD
ATOM     86  H44 non d ame     -29.452  12.571  29.687  0.00  0.00     0.129 H 
ATOM     87  H37 non d ame     -30.131  11.445  28.729  0.00  0.00     0.046 H 
BRANCH  83  88
ATOM     88  O6  non d ame     -30.427  14.229  29.082  0.00  0.00    -0.369 OA
ATOM     89  H45 non d ame     -30.623  14.891  29.750  0.00  0.00     0.212 HD
ENDBRANCH  83  88
ENDBRANCH  72  75
ENDBRANCH  47  72
ENDBRANCH  45  47
ENDBRANCH   1  43
BRANCH   1  90
ATOM     90  C16 non d ame     -32.297   9.680  23.426  0.00  0.00    -0.035 C 
ATOM     91  H21 non d ame     -33.085   9.197  22.851  0.00  0.00     0.037 H 
ATOM     92  H22 non d ame     -32.416  10.713  23.754  0.00  0.00     0.037 H 
BRANCH  90  93
ATOM     93  C17 non d ame     -31.015   9.644  22.535  0.00  0.00    -0.059 C 
ATOM     94  H23 non d ame     -31.333   9.733  21.496  0.00  0.00     0.038 H 
BRANCH  93  95
ATOM     95  C18 non d ame     -30.050  10.833  22.841  0.00  0.00    -0.073 C 
ATOM     96  H24 non d ame     -29.042  10.578  22.513  0.00  0.00     0.028 H 
ATOM     97  H25 non d ame     -30.389  11.722  22.309  0.00  0.00     0.028 H 
ATOM     98  H26 non d ame     -30.045  11.031  23.912  0.00  0.00     0.028 H 
ENDBRANCH  93  95
BRANCH  93  99
ATOM     99  C19 non d ame     -30.289   8.303  22.676  0.00  0.00    -0.073 C 
ATOM    100  H27 non d ame     -30.906   7.615  23.255  0.00  0.00     0.028 H 
ATOM    101  H28 non d ame     -30.107   7.882  21.687  0.00  0.00     0.028 H 
ATOM    102  H29 non d ame     -29.339   8.457  23.186  0.00  0.00     0.028 H 
ENDBRANCH  93  99
ENDBRANCH  90  93
ENDBRANCH   1  90
TORSDOF 26
ENDMDL
MODEL 8
REMARK VINA RESULT:      -6.2      3.535      7.592
REMARK  26 active torsions:
REMARK  status: ('A' for Active; 'I' for Inactive)
REMARK    1  A    between atoms: C2_2  and  C3_3 
REMARK    2  A    between atoms: C4_6  and  C5_7 
REMARK       I    between atoms: C5_7  and  N2_9 
REMARK    3  A    between atoms: N2_9  and  C6_10 
REMARK    4  A    between atoms: C6_10  and  C7_11 
REMARK    5  A    between atoms: C6_10  and  C8_13 
REMARK       I    between atoms: C7_11  and  N3_14 
REMARK    6  A    between atoms: N3_14  and  C9_15 
REMARK    7  A    between atoms: C9_15  and  C10_16 
REMARK    8  A    between atoms: C9_15  and  C11_18 
REMARK       I    between atoms: C10_16  and  N4_21 
REMARK    9  A    between atoms: C11_18  and  C12_19 
REMARK   10  A    between atoms: C11_18  and  C13_20 
REMARK   11  A    between atoms: N4_21  and  C14_22 
REMARK   12  A    between atoms: C14_22  and  C15_23 
REMARK   13  A    between atoms: C14_22  and  C16_25 
REMARK       I    between atoms: C15_23  and  N6_40 
REMARK   14  A    between atoms: C16_25  and  C17_26 
REMARK   15  A    between atoms: C17_26  and  C18_27 
REMARK   16  A    between atoms: C17_26  and  C19_28 
REMARK   17  A    between atoms: C20_29  and  C21_30 
REMARK   18  A    between atoms: C20_29  and  C24_33 
REMARK   19  A    between atoms: C20_29  and  N6_40 
REMARK   20  A    between atoms: C21_30  and  C22_31 
REMARK   21  A    between atoms: C22_31  and  C23_32 
REMARK   22  A    between atoms: C23_32  and  O8_43 
REMARK   23  A    between atoms: C24_33  and  C25_34 
REMARK   24  A    between atoms: C28_38  and  O6_39 
REMARK   25  A    between atoms: C29_42  and  O8_43 
REMARK   26  A    between atoms: C29_42  and  C35_49 
ROOT
ATOM      1  C14 non d ame     -31.458   7.917  23.715  0.00  0.00     0.089 C 
ATOM      2  H20 non d ame     -30.517   7.696  24.219  0.00  0.00     0.087 H 
ENDROOT
BRANCH   1   3
ATOM      3  N4  non d ame     -32.347   6.786  23.930  0.00  0.00    -0.346 N 
ATOM      4  C10 non d ame     -32.434   6.132  25.285  0.00  0.00     0.241 C 
ATOM      5  O4  non d ame     -31.777   6.532  26.189  0.00  0.00    -0.271 OA
ATOM      6  H19 non d ame     -32.896   6.458  23.147  0.00  0.00     0.163 HD
BRANCH   4   7
ATOM      7  C9  non d ame     -33.364   4.964  25.491  0.00  0.00     0.092 C 
ATOM      8  H11 non d ame     -32.795   4.117  25.872  0.00  0.00     0.088 H 
BRANCH   7   9
ATOM      9  N3  non d ame     -34.364   5.308  26.506  0.00  0.00    -0.346 N 
ATOM     10  C7  non d ame     -34.285   4.723  27.822  0.00  0.00     0.240 C 
ATOM     11  O3  non d ame     -33.424   3.973  28.080  0.00  0.00    -0.271 OA
ATOM     12  H10 non d ame     -35.113   5.952  26.297  0.00  0.00     0.163 HD
BRANCH  10  13
ATOM     13  C6  non d ame     -35.354   5.090  28.898  0.00  0.00     0.086 C 
ATOM     14  H6  non d ame     -35.294   4.458  29.783  0.00  0.00     0.086 H 
BRANCH  13  15
ATOM     15  N2  non d ame     -35.125   6.454  29.344  0.00  0.00    -0.343 N 
ATOM     16  C5  non d ame     -34.965   6.728  30.773  0.00  0.00     0.273 C 
ATOM     17  O2  non d ame     -35.025   5.845  31.557  0.00  0.00    -0.266 OA
ATOM     18  H5  non d ame     -35.077   7.203  28.668  0.00  0.00     0.163 HD
BRANCH  16  19
ATOM     19  C4  non d ame     -34.721   8.166  31.259  0.00  0.00     0.154 A 
ATOM     20  C1  non d ame     -34.070   9.221  30.545  0.00  0.00    -0.017 A 
ATOM     21  C2  non d ame     -34.104  10.328  31.422  0.00  0.00     0.077 A 
ATOM     22  H1  non d ame     -33.638   9.188  29.545  0.00  0.00     0.091 H 
ATOM     23  O1  non d ame     -34.708   9.944  32.508  0.00  0.00    -0.218 OA
ATOM     24  N1  non d ame     -35.078   8.686  32.437  0.00  0.00    -0.123 NA
BRANCH  21  25
ATOM     25  C3  non d ame     -33.541  11.715  31.146  0.00  0.00    -0.029 C 
ATOM     26  H2  non d ame     -32.454  11.687  31.220  0.00  0.00     0.036 H 
ATOM     27  H3  non d ame     -33.826  12.030  30.142  0.00  0.00     0.036 H 
ATOM     28  H4  non d ame     -33.937  12.421  31.875  0.00  0.00     0.036 H 
ENDBRANCH  21  25
ENDBRANCH  16  19
ENDBRANCH  13  15
BRANCH  13  29
ATOM     29  C8  non d ame     -36.733   4.965  28.303  0.00  0.00    -0.049 C 
ATOM     30  H7  non d ame     -37.445   5.515  28.917  0.00  0.00     0.030 H 
ATOM     31  H8  non d ame     -36.732   5.376  27.293  0.00  0.00     0.030 H 
ATOM     32  H9  non d ame     -37.020   3.913  28.267  0.00  0.00     0.030 H 
ENDBRANCH  13  29
ENDBRANCH  10  13
ENDBRANCH   7   9
BRANCH   7  33
ATOM     33  C11 non d ame     -34.083   4.632  24.150  0.00  0.00    -0.033 C 
ATOM     34  H12 non d ame     -33.965   5.493  23.492  0.00  0.00     0.042 H 
BRANCH  33  35
ATOM     35  C12 non d ame     -33.427   3.406  23.442  0.00  0.00    -0.071 C 
ATOM     36  H13 non d ame     -32.352   3.412  23.627  0.00  0.00     0.028 H 
ATOM     37  H14 non d ame     -33.858   2.486  23.835  0.00  0.00     0.028 H 
ATOM     38  H15 non d ame     -33.610   3.465  22.369  0.00  0.00     0.028 H 
ENDBRANCH  33  35
BRANCH  33  39
ATOM     39  C13 non d ame     -35.612   4.405  24.377  0.00  0.00    -0.071 C 
ATOM     40  H16 non d ame     -35.775   4.005  25.379  0.00  0.00     0.028 H 
ATOM     41  H17 non d ame     -36.141   5.353  24.273  0.00  0.00     0.028 H 
ATOM     42  H18 non d ame     -35.988   3.697  23.639  0.00  0.00     0.028 H 
ENDBRANCH  33  39
ENDBRANCH   7  33
ENDBRANCH   4   7
ENDBRANCH   1   3
BRANCH   1  43
ATOM     43  C15 non d ame     -32.139   9.197  24.280  0.00  0.00     0.240 C 
ATOM     44  O5  non d ame     -33.033   9.704  23.683  0.00  0.00    -0.271 OA
ATOM     45  N6  non d ame     -31.685   9.785  25.573  0.00  0.00    -0.355 N 
ATOM     46  H46 non d ame     -30.930   9.360  26.092  0.00  0.00     0.162 HD
BRANCH  45  47
ATOM     47  C20 non d ame     -32.344  11.000  26.097  0.00  0.00     0.013 C 
ATOM     48  H30 non d ame     -32.910  11.452  25.282  0.00  0.00     0.072 H 
BRANCH  47  49
ATOM     49  C21 non d ame     -31.291  11.965  26.593  0.00  0.00    -0.038 C 
ATOM     50  H31 non d ame     -30.362  11.396  26.625  0.00  0.00     0.036 H 
ATOM     51  H32 non d ame     -31.371  12.843  25.951  0.00  0.00     0.036 H 
BRANCH  49  52
ATOM     52  C22 non d ame     -31.556  12.453  28.034  0.00  0.00     0.018 C 
ATOM     53  H33 non d ame     -32.614  12.269  28.218  0.00  0.00     0.048 H 
ATOM     54  H34 non d ame     -30.802  11.967  28.653  0.00  0.00     0.048 H 
BRANCH  52  55
ATOM     55  C23 non d ame     -31.348  13.981  28.226  0.00  0.00     0.259 C 
ATOM     56  O7  non d ame     -30.545  14.387  29.004  0.00  0.00    -0.265 OA
BRANCH  55  57
ATOM     57  O8  non d ame     -32.138  14.892  27.472  0.00  0.00    -0.317 OA
BRANCH  57  58
ATOM     58  C29 non d ame     -32.908  15.795  28.271  0.00  0.00     0.052 C 
ATOM     59  H47 non d ame     -33.927  15.409  28.253  0.00  0.00     0.082 H 
ATOM     60  H48 non d ame     -32.374  15.882  29.216  0.00  0.00     0.082 H 
BRANCH  58  61
ATOM     61  C35 non d ame     -32.896  17.181  27.572  0.00  0.00    -0.034 A 
ATOM     62  C30 non d ame     -32.551  18.321  28.293  0.00  0.00    -0.075 A 
ATOM     63  C31 non d ame     -32.541  19.566  27.666  0.00  0.00    -0.082 A 
ATOM     64  H49 non d ame     -32.290  18.239  29.348  0.00  0.00     0.084 H 
ATOM     65  C32 non d ame     -32.878  19.670  26.313  0.00  0.00    -0.083 A 
ATOM     66  H50 non d ame     -32.268  20.458  28.233  0.00  0.00     0.083 H 
ATOM     67  C33 non d ame     -33.225  18.530  25.600  0.00  0.00    -0.082 A 
ATOM     68  H51 non d ame     -32.871  20.640  25.815  0.00  0.00     0.083 H 
ATOM     69  C34 non d ame     -33.235  17.284  26.222  0.00  0.00    -0.075 A 
ATOM     70  H52 non d ame     -33.490  18.615  24.545  0.00  0.00     0.083 H 
ATOM     71  H53 non d ame     -33.507  16.393  25.655  0.00  0.00     0.084 H 
ENDBRANCH  58  61
ENDBRANCH  57  58
ENDBRANCH  55  57
ENDBRANCH  52  55
ENDBRANCH  49  52
ENDBRANCH  47  49
BRANCH  47  72
ATOM     72  C24 non d ame     -33.277  10.627  27.247  0.00  0.00    -0.039 C 
ATOM     73  H35 non d ame     -32.938   9.648  27.588  0.00  0.00     0.036 H 
ATOM     74  H36 non d ame     -33.254  11.478  27.927  0.00  0.00     0.036 H 
BRANCH  72  75
ATOM     75  C25 non d ame     -34.790  10.458  26.751  0.00  0.00    -0.001 C 
ATOM     76  C26 non d ame     -35.799  11.308  27.732  0.00  0.00    -0.035 C 
ATOM     77  C27 non d ame     -36.798  10.491  28.146  0.00  0.00     0.085 C 
ATOM     78  H38 non d ame     -35.287  11.572  28.657  0.00  0.00     0.036 H 
ATOM     79  H39 non d ame     -36.319  12.076  27.160  0.00  0.00     0.036 H 
ATOM     80  N5  non d ame     -36.384   9.080  27.802  0.00  0.00    -0.049 N 
ATOM     81  H40 non d ame     -36.832  10.598  29.230  0.00  0.00     0.075 H 
ATOM     82  H41 non d ame     -37.664  10.764  27.544  0.00  0.00     0.075 H 
ATOM     83  C28 non d ame     -35.152   9.218  26.768  0.00  0.00     0.193 C 
ATOM     84  H42 non d ame     -36.042   8.666  28.657  0.00  0.00     0.280 HD
ATOM     85  H43 non d ame     -37.167   8.664  27.316  0.00  0.00     0.280 HD
ATOM     86  H44 non d ame     -35.301   9.041  25.703  0.00  0.00     0.129 H 
ATOM     87  H37 non d ame     -34.893  10.615  25.678  0.00  0.00     0.046 H 
BRANCH  83  88
ATOM     88  O6  non d ame     -34.084   8.350  27.155  0.00  0.00    -0.369 OA
ATOM     89  H45 non d ame     -33.578   8.761  27.861  0.00  0.00     0.212 HD
ENDBRANCH  83  88
ENDBRANCH  72  75
ENDBRANCH  47  72
ENDBRANCH  45  47
ENDBRANCH   1  43
BRANCH   1  90
ATOM     90  C16 non d ame     -31.216   8.084  22.223  0.00  0.00    -0.035 C 
ATOM     91  H21 non d ame     -31.195   7.073  21.820  0.00  0.00     0.037 H 
ATOM     92  H22 non d ame     -31.974   8.791  21.886  0.00  0.00     0.037 H 
BRANCH  90  93
ATOM     93  C17 non d ame     -29.832   8.723  21.881  0.00  0.00    -0.059 C 
ATOM     94  H23 non d ame     -29.699   8.663  20.801  0.00  0.00     0.038 H 
BRANCH  93  95
ATOM     95  C18 non d ame     -29.763  10.230  22.286  0.00  0.00    -0.073 C 
ATOM     96  H24 non d ame     -29.712  10.314  23.372  0.00  0.00     0.028 H 
ATOM     97  H25 non d ame     -28.874  10.684  21.846  0.00  0.00     0.028 H 
ATOM     98  H26 non d ame     -30.652  10.746  21.923  0.00  0.00     0.028 H 
ENDBRANCH  93  95
BRANCH  93  99
ATOM     99  C19 non d ame     -28.691   7.933  22.527  0.00  0.00    -0.073 C 
ATOM    100  H27 non d ame     -29.073   7.377  23.383  0.00  0.00     0.028 H 
ATOM    101  H28 non d ame     -28.273   7.237  21.799  0.00  0.00     0.028 H 
ATOM    102  H29 non d ame     -27.914   8.622  22.858  0.00  0.00     0.028 H 
ENDBRANCH  93  99
ENDBRANCH  90  93
ENDBRANCH   1  90
TORSDOF 26
ENDMDL
MODEL 9
REMARK VINA RESULT:      -6.1      1.987      5.049
REMARK  26 active torsions:
REMARK  status: ('A' for Active; 'I' for Inactive)
REMARK    1  A    between atoms: C2_2  and  C3_3 
REMARK    2  A    between atoms: C4_6  and  C5_7 
REMARK       I    between atoms: C5_7  and  N2_9 
REMARK    3  A    between atoms: N2_9  and  C6_10 
REMARK    4  A    between atoms: C6_10  and  C7_11 
REMARK    5  A    between atoms: C6_10  and  C8_13 
REMARK       I    between atoms: C7_11  and  N3_14 
REMARK    6  A    between atoms: N3_14  and  C9_15 
REMARK    7  A    between atoms: C9_15  and  C10_16 
REMARK    8  A    between atoms: C9_15  and  C11_18 
REMARK       I    between atoms: C10_16  and  N4_21 
REMARK    9  A    between atoms: C11_18  and  C12_19 
REMARK   10  A    between atoms: C11_18  and  C13_20 
REMARK   11  A    between atoms: N4_21  and  C14_22 
REMARK   12  A    between atoms: C14_22  and  C15_23 
REMARK   13  A    between atoms: C14_22  and  C16_25 
REMARK       I    between atoms: C15_23  and  N6_40 
REMARK   14  A    between atoms: C16_25  and  C17_26 
REMARK   15  A    between atoms: C17_26  and  C18_27 
REMARK   16  A    between atoms: C17_26  and  C19_28 
REMARK   17  A    between atoms: C20_29  and  C21_30 
REMARK   18  A    between atoms: C20_29  and  C24_33 
REMARK   19  A    between atoms: C20_29  and  N6_40 
REMARK   20  A    between atoms: C21_30  and  C22_31 
REMARK   21  A    between atoms: C22_31  and  C23_32 
REMARK   22  A    between atoms: C23_32  and  O8_43 
REMARK   23  A    between atoms: C24_33  and  C25_34 
REMARK   24  A    between atoms: C28_38  and  O6_39 
REMARK   25  A    between atoms: C29_42  and  O8_43 
REMARK   26  A    between atoms: C29_42  and  C35_49 
ROOT
ATOM      1  C14 non d ame     -32.552   9.499  24.734  0.00  0.00     0.089 C 
ATOM      2  H20 non d ame     -32.351   8.725  25.476  0.00  0.00     0.087 H 
ENDROOT
BRANCH   1   3
ATOM      3  N4  non d ame     -33.946   9.890  24.875  0.00  0.00    -0.346 N 
ATOM      4  C10 non d ame     -34.570  10.010  26.242  0.00  0.00     0.241 C 
ATOM      5  O4  non d ame     -33.930   9.785  27.216  0.00  0.00    -0.271 OA
ATOM      6  H19 non d ame     -34.474  10.074  24.034  0.00  0.00     0.163 HD
BRANCH   4   7
ATOM      7  C9  non d ame     -36.013  10.420  26.369  0.00  0.00     0.092 C 
ATOM      8  H11 non d ame     -36.224  10.672  27.408  0.00  0.00     0.088 H 
BRANCH   7   9
ATOM      9  N3  non d ame     -36.250  11.629  25.574  0.00  0.00    -0.346 N 
ATOM     10  C7  non d ame     -36.924  12.759  26.164  0.00  0.00     0.240 C 
ATOM     11  O3  non d ame     -37.282  12.714  27.277  0.00  0.00    -0.271 OA
ATOM     12  H10 non d ame     -35.948  11.682  24.612  0.00  0.00     0.163 HD
BRANCH  10  13
ATOM     13  C6  non d ame     -37.176  14.042  25.312  0.00  0.00     0.086 C 
ATOM     14  H6  non d ame     -38.179  14.445  25.444  0.00  0.00     0.086 H 
BRANCH  13  15
ATOM     15  N2  non d ame     -36.251  15.079  25.736  0.00  0.00    -0.343 N 
ATOM     16  C5  non d ame     -36.705  16.114  26.666  0.00  0.00     0.273 C 
ATOM     17  O2  non d ame     -37.818  16.106  27.066  0.00  0.00    -0.266 OA
ATOM     18  H5  non d ame     -35.303  15.081  25.387  0.00  0.00     0.163 HD
BRANCH  16  19
ATOM     19  C4  non d ame     -35.737  17.217  27.123  0.00  0.00     0.154 A 
ATOM     20  C1  non d ame     -35.086  18.191  26.302  0.00  0.00    -0.017 A 
ATOM     21  C2  non d ame     -34.313  18.963  27.198  0.00  0.00     0.077 A 
ATOM     22  H1  non d ame     -35.163  18.319  25.222  0.00  0.00     0.091 H 
ATOM     23  O1  non d ame     -34.506  18.482  28.390  0.00  0.00    -0.218 OA
ATOM     24  N1  non d ame     -35.333  17.462  28.373  0.00  0.00    -0.123 NA
BRANCH  21  25
ATOM     25  C3  non d ame     -33.421  20.142  26.834  0.00  0.00    -0.029 C 
ATOM     26  H2  non d ame     -32.410  19.786  26.638  0.00  0.00     0.036 H 
ATOM     27  H3  non d ame     -33.810  20.631  25.941  0.00  0.00     0.036 H 
ATOM     28  H4  non d ame     -33.402  20.853  27.658  0.00  0.00     0.036 H 
ENDBRANCH  21  25
ENDBRANCH  16  19
ENDBRANCH  13  15
BRANCH  13  29
ATOM     29  C8  non d ame     -36.966  13.727  23.852  0.00  0.00    -0.049 C 
ATOM     30  H7  non d ame     -37.650  14.325  23.250  0.00  0.00     0.030 H 
ATOM     31  H8  non d ame     -35.939  13.961  23.574  0.00  0.00     0.030 H 
ATOM     32  H9  non d ame     -37.159  12.668  23.677  0.00  0.00     0.030 H 
ENDBRANCH  13  29
ENDBRANCH  10  13
ENDBRANCH   7   9
BRANCH   7  33
ATOM     33  C11 non d ame     -36.926   9.272  25.847  0.00  0.00    -0.033 C 
ATOM     34  H12 non d ame     -36.912   9.310  24.758  0.00  0.00     0.042 H 
BRANCH  33  35
ATOM     35  C12 non d ame     -36.381   7.874  26.275  0.00  0.00    -0.071 C 
ATOM     36  H13 non d ame     -36.541   7.733  27.344  0.00  0.00     0.028 H 
ATOM     37  H14 non d ame     -36.904   7.094  25.722  0.00  0.00     0.028 H 
ATOM     38  H15 non d ame     -35.314   7.819  26.059  0.00  0.00     0.028 H 
ENDBRANCH  33  35
BRANCH  33  39
ATOM     39  C13 non d ame     -38.402   9.473  26.318  0.00  0.00    -0.071 C 
ATOM     40  H16 non d ame     -38.693   8.645  26.965  0.00  0.00     0.028 H 
ATOM     41  H17 non d ame     -38.484  10.411  26.868  0.00  0.00     0.028 H 
ATOM     42  H18 non d ame     -39.060   9.504  25.450  0.00  0.00     0.028 H 
ENDBRANCH  33  39
ENDBRANCH   7  33
ENDBRANCH   4   7
ENDBRANCH   1   3
BRANCH   1  43
ATOM     43  C15 non d ame     -31.661  10.757  24.945  0.00  0.00     0.240 C 
ATOM     44  O5  non d ame     -31.051  10.887  25.957  0.00  0.00    -0.271 OA
ATOM     45  N6  non d ame     -31.559  11.795  23.880  0.00  0.00    -0.355 N 
ATOM     46  H46 non d ame     -32.069  11.694  23.014  0.00  0.00     0.162 HD
BRANCH  45  47
ATOM     47  C20 non d ame     -30.707  12.985  24.096  0.00  0.00     0.013 C 
ATOM     48  H30 non d ame     -29.926  12.713  24.805  0.00  0.00     0.072 H 
BRANCH  47  49
ATOM     49  C21 non d ame     -31.549  14.108  24.658  0.00  0.00    -0.038 C 
ATOM     50  H31 non d ame     -31.450  14.933  23.951  0.00  0.00     0.036 H 
ATOM     51  H32 non d ame     -32.530  13.672  24.852  0.00  0.00     0.036 H 
BRANCH  49  52
ATOM     52  C22 non d ame     -31.026  14.628  26.014  0.00  0.00     0.018 C 
ATOM     53  H33 non d ame     -31.029  13.767  26.681  0.00  0.00     0.048 H 
ATOM     54  H34 non d ame     -30.091  15.143  25.792  0.00  0.00     0.048 H 
BRANCH  52  55
ATOM     55  C23 non d ame     -31.950  15.687  26.677  0.00  0.00     0.259 C 
ATOM     56  O7  non d ame     -31.857  16.836  26.386  0.00  0.00    -0.265 OA
BRANCH  55  57
ATOM     57  O8  non d ame     -32.903  15.271  27.648  0.00  0.00    -0.317 OA
BRANCH  57  58
ATOM     58  C29 non d ame     -32.447  15.388  28.999  0.00  0.00     0.052 C 
ATOM     59  H47 non d ame     -31.500  15.925  28.945  0.00  0.00     0.082 H 
ATOM     60  H48 non d ame     -33.282  15.808  29.558  0.00  0.00     0.082 H 
BRANCH  58  61
ATOM     61  C35 non d ame     -32.170  13.958  29.536  0.00  0.00    -0.034 A 
ATOM     62  C30 non d ame     -33.152  12.976  29.438  0.00  0.00    -0.075 A 
ATOM     63  C31 non d ame     -32.903  11.691  29.921  0.00  0.00    -0.082 A 
ATOM     64  H49 non d ame     -34.114  13.212  28.985  0.00  0.00     0.084 H 
ATOM     65  C32 non d ame     -31.670  11.391  30.504  0.00  0.00    -0.083 A 
ATOM     66  H50 non d ame     -33.674  10.923  29.841  0.00  0.00     0.083 H 
ATOM     67  C33 non d ame     -30.696  12.375  30.603  0.00  0.00    -0.082 A 
ATOM     68  H51 non d ame     -31.467  10.388  30.883  0.00  0.00     0.083 H 
ATOM     69  C34 non d ame     -30.939  13.659  30.121  0.00  0.00    -0.075 A 
ATOM     70  H52 non d ame     -29.735  12.138  31.061  0.00  0.00     0.083 H 
ATOM     71  H53 non d ame     -30.168  14.426  30.200  0.00  0.00     0.084 H 
ENDBRANCH  58  61
ENDBRANCH  57  58
ENDBRANCH  55  57
ENDBRANCH  52  55
ENDBRANCH  49  52
ENDBRANCH  47  49
BRANCH  47  72
ATOM     72  C24 non d ame     -30.089  13.424  22.770  0.00  0.00    -0.039 C 
ATOM     73  H35 non d ame     -29.034  13.159  22.841  0.00  0.00     0.036 H 
ATOM     74  H36 non d ame     -30.713  12.975  21.996  0.00  0.00     0.036 H 
BRANCH  72  75
ATOM     75  C25 non d ame     -30.166  15.012  22.577  0.00  0.00    -0.001 C 
ATOM     76  C26 non d ame     -31.126  15.374  21.292  0.00  0.00    -0.035 C 
ATOM     77  C27 non d ame     -30.457  16.217  20.470  0.00  0.00     0.085 C 
ATOM     78  H38 non d ame     -31.280  14.487  20.678  0.00  0.00     0.036 H 
ATOM     79  H39 non d ame     -31.983  15.965  21.619  0.00  0.00     0.036 H 
ATOM     80  N5  non d ame     -29.011  16.203  20.907  0.00  0.00    -0.049 N 
ATOM     81  H40 non d ame     -30.532  15.775  19.476  0.00  0.00     0.075 H 
ATOM     82  H41 non d ame     -30.876  17.204  20.660  0.00  0.00     0.075 H 
ATOM     83  C28 non d ame     -28.995  15.514  22.367  0.00  0.00     0.193 C 
ATOM     84  H42 non d ame     -28.523  15.600  20.262  0.00  0.00     0.280 HD
ATOM     85  H43 non d ame     -28.734  17.170  21.004  0.00  0.00     0.280 HD
ATOM     86  H44 non d ame     -28.877  16.123  23.264  0.00  0.00     0.129 H 
ATOM     87  H37 non d ame     -30.373  15.532  23.512  0.00  0.00     0.046 H 
BRANCH  83  88
ATOM     88  O6  non d ame     -27.965  14.527  22.435  0.00  0.00    -0.369 OA
ATOM     89  H45 non d ame     -28.347  13.683  22.688  0.00  0.00     0.212 HD
ENDBRANCH  83  88
ENDBRANCH  72  75
ENDBRANCH  47  72
ENDBRANCH  45  47
ENDBRANCH   1  43
BRANCH   1  90
ATOM     90  C16 non d ame     -32.329   8.943  23.337  0.00  0.00    -0.035 C 
ATOM     91  H21 non d ame     -33.067   8.151  23.221  0.00  0.00     0.037 H 
ATOM     92  H22 non d ame     -32.349   9.810  22.676  0.00  0.00     0.037 H 
BRANCH  90  93
ATOM     93  C17 non d ame     -30.931   8.273  23.145  0.00  0.00    -0.059 C 
ATOM     94  H23 non d ame     -30.369   8.412  24.069  0.00  0.00     0.038 H 
BRANCH  93  95
ATOM     95  C18 non d ame     -31.044   6.737  22.884  0.00  0.00    -0.073 C 
ATOM     96  H24 non d ame     -32.012   6.515  22.434  0.00  0.00     0.028 H 
ATOM     97  H25 non d ame     -30.250   6.425  22.207  0.00  0.00     0.028 H 
ATOM     98  H26 non d ame     -30.950   6.200  23.828  0.00  0.00     0.028 H 
ENDBRANCH  93  95
BRANCH  93  99
ATOM     99  C19 non d ame     -30.145   8.959  22.025  0.00  0.00    -0.073 C 
ATOM    100  H27 non d ame     -29.891   9.976  22.329  0.00  0.00     0.028 H 
ATOM    101  H28 non d ame     -29.229   8.401  21.828  0.00  0.00     0.028 H 
ATOM    102  H29 non d ame     -30.753   8.991  21.121  0.00  0.00     0.028 H 
ENDBRANCH  93  99
ENDBRANCH  90  93
ENDBRANCH   1  90
TORSDOF 26
ENDMDL
MODEL 10
REMARK VINA RESULT:      -6.1      2.174      8.543
REMARK  26 active torsions:
REMARK  status: ('A' for Active; 'I' for Inactive)
REMARK    1  A    between atoms: C2_2  and  C3_3 
REMARK    2  A    between atoms: C4_6  and  C5_7 
REMARK       I    between atoms: C5_7  and  N2_9 
REMARK    3  A    between atoms: N2_9  and  C6_10 
REMARK    4  A    between atoms: C6_10  and  C7_11 
REMARK    5  A    between atoms: C6_10  and  C8_13 
REMARK       I    between atoms: C7_11  and  N3_14 
REMARK    6  A    between atoms: N3_14  and  C9_15 
REMARK    7  A    between atoms: C9_15  and  C10_16 
REMARK    8  A    between atoms: C9_15  and  C11_18 
REMARK       I    between atoms: C10_16  and  N4_21 
REMARK    9  A    between atoms: C11_18  and  C12_19 
REMARK   10  A    between atoms: C11_18  and  C13_20 
REMARK   11  A    between atoms: N4_21  and  C14_22 
REMARK   12  A    between atoms: C14_22  and  C15_23 
REMARK   13  A    between atoms: C14_22  and  C16_25 
REMARK       I    between atoms: C15_23  and  N6_40 
REMARK   14  A    between atoms: C16_25  and  C17_26 
REMARK   15  A    between atoms: C17_26  and  C18_27 
REMARK   16  A    between atoms: C17_26  and  C19_28 
REMARK   17  A    between atoms: C20_29  and  C21_30 
REMARK   18  A    between atoms: C20_29  and  C24_33 
REMARK   19  A    between atoms: C20_29  and  N6_40 
REMARK   20  A    between atoms: C21_30  and  C22_31 
REMARK   21  A    between atoms: C22_31  and  C23_32 
REMARK   22  A    between atoms: C23_32  and  O8_43 
REMARK   23  A    between atoms: C24_33  and  C25_34 
REMARK   24  A    between atoms: C28_38  and  O6_39 
REMARK   25  A    between atoms: C29_42  and  O8_43 
REMARK   26  A    between atoms: C29_42  and  C35_49 
ROOT
ATOM      1  C14 non d ame     -36.543  15.656  26.250  0.00  0.00     0.089 C 
ATOM      2  H20 non d ame     -37.206  16.178  26.941  0.00  0.00     0.087 H 
ENDROOT
BRANCH   1   3
ATOM      3  N4  non d ame     -35.176  15.899  26.685  0.00  0.00    -0.346 N 
ATOM      4  C10 non d ame     -34.881  16.959  27.714  0.00  0.00     0.241 C 
ATOM      5  O4  non d ame     -35.760  17.607  28.178  0.00  0.00    -0.271 OA
ATOM      6  H19 non d ame     -34.442  15.339  26.275  0.00  0.00     0.163 HD
BRANCH   4   7
ATOM      7  C9  non d ame     -33.460  17.194  28.156  0.00  0.00     0.092 C 
ATOM      8  H11 non d ame     -33.464  17.722  29.109  0.00  0.00     0.088 H 
BRANCH   7   9
ATOM      9  N3  non d ame     -32.797  15.905  28.377  0.00  0.00    -0.346 N 
ATOM     10  C7  non d ame     -31.870  15.750  29.471  0.00  0.00     0.240 C 
ATOM     11  O3  non d ame     -31.645  16.652  30.182  0.00  0.00    -0.271 OA
ATOM     12  H10 non d ame     -32.981  15.119  27.771  0.00  0.00     0.163 HD
BRANCH  10  13
ATOM     13  C6  non d ame     -31.166  14.377  29.700  0.00  0.00     0.086 C 
ATOM     14  H6  non d ame     -30.541  14.367  30.593  0.00  0.00     0.086 H 
BRANCH  13  15
ATOM     15  N2  non d ame     -32.179  13.353  29.890  0.00  0.00    -0.343 N 
ATOM     16  C5  non d ame     -31.833  12.120  30.601  0.00  0.00     0.273 C 
ATOM     17  O2  non d ame     -30.737  11.959  31.012  0.00  0.00    -0.266 OA
ATOM     18  H5  non d ame     -33.112  13.496  29.533  0.00  0.00     0.163 HD
BRANCH  16  19
ATOM     19  C4  non d ame     -32.895  11.028  30.810  0.00  0.00     0.154 A 
ATOM     20  C1  non d ame     -33.202   9.941  29.932  0.00  0.00    -0.017 A 
ATOM     21  C2  non d ame     -34.242   9.236  30.578  0.00  0.00     0.077 A 
ATOM     22  H1  non d ame     -32.741   9.701  28.974  0.00  0.00     0.091 H 
ATOM     23  O1  non d ame     -34.494   9.853  31.694  0.00  0.00    -0.218 OA
ATOM     24  N1  non d ame     -33.721  10.902  31.852  0.00  0.00    -0.123 NA
BRANCH  21  25
ATOM     25  C3  non d ame     -34.938   7.984  30.062  0.00  0.00    -0.029 C 
ATOM     26  H2  non d ame     -35.088   8.068  28.986  0.00  0.00     0.036 H 
ATOM     27  H3  non d ame     -34.320   7.111  30.273  0.00  0.00     0.036 H 
ATOM     28  H4  non d ame     -35.903   7.873  30.556  0.00  0.00     0.036 H 
ENDBRANCH  21  25
ENDBRANCH  16  19
ENDBRANCH  13  15
BRANCH  13  29
ATOM     29  C8  non d ame     -30.311  14.043  28.504  0.00  0.00    -0.049 C 
ATOM     30  H7  non d ame     -30.887  14.189  27.592  0.00  0.00     0.030 H 
ATOM     31  H8  non d ame     -29.436  14.693  28.489  0.00  0.00     0.030 H 
ATOM     32  H9  non d ame     -29.989  13.002  28.567  0.00  0.00     0.030 H 
ENDBRANCH  13  29
ENDBRANCH  10  13
ENDBRANCH   7   9
BRANCH   7  33
ATOM     33  C11 non d ame     -32.697  17.983  27.051  0.00  0.00    -0.033 C 
ATOM     34  H12 non d ame     -31.816  18.427  27.513  0.00  0.00     0.042 H 
BRANCH  33  35
ATOM     35  C12 non d ame     -32.203  17.034  25.915  0.00  0.00    -0.071 C 
ATOM     36  H13 non d ame     -31.435  17.538  25.329  0.00  0.00     0.028 H 
ATOM     37  H14 non d ame     -31.789  16.127  26.353  0.00  0.00     0.028 H 
ATOM     38  H15 non d ame     -33.041  16.775  25.267  0.00  0.00     0.028 H 
ENDBRANCH  33  35
BRANCH  33  39
ATOM     39  C13 non d ame     -33.579  19.139  26.480  0.00  0.00    -0.071 C 
ATOM     40  H16 non d ame     -34.301  18.731  25.772  0.00  0.00     0.028 H 
ATOM     41  H17 non d ame     -34.108  19.631  27.297  0.00  0.00     0.028 H 
ATOM     42  H18 non d ame     -32.943  19.864  25.972  0.00  0.00     0.028 H 
ENDBRANCH  33  39
ENDBRANCH   7  33
ENDBRANCH   4   7
ENDBRANCH   1   3
BRANCH   1  43
ATOM     43  C15 non d ame     -36.795  14.120  26.242  0.00  0.00     0.240 C 
ATOM     44  O5  non d ame     -37.667  13.661  26.907  0.00  0.00    -0.271 OA
ATOM     45  N6  non d ame     -35.957  13.223  25.397  0.00  0.00    -0.355 N 
ATOM     46  H46 non d ame     -35.216  13.603  24.824  0.00  0.00     0.162 HD
BRANCH  45  47
ATOM     47  C20 non d ame     -36.210  11.766  25.400  0.00  0.00     0.013 C 
ATOM     48  H30 non d ame     -36.923  11.552  26.197  0.00  0.00     0.072 H 
BRANCH  47  49
ATOM     49  C21 non d ame     -34.912  11.034  25.657  0.00  0.00    -0.038 C 
ATOM     50  H31 non d ame     -35.061  10.490  26.591  0.00  0.00     0.036 H 
ATOM     51  H32 non d ame     -34.695  10.489  24.738  0.00  0.00     0.036 H 
BRANCH  49  52
ATOM     52  C22 non d ame     -33.721  11.988  25.890  0.00  0.00     0.018 C 
ATOM     53  H33 non d ame     -33.824  12.776  25.145  0.00  0.00     0.048 H 
ATOM     54  H34 non d ame     -33.745  12.235  26.952  0.00  0.00     0.048 H 
BRANCH  52  55
ATOM     55  C23 non d ame     -32.335  11.334  25.634  0.00  0.00     0.259 C 
ATOM     56  O7  non d ame     -32.090  10.254  26.066  0.00  0.00    -0.265 OA
BRANCH  55  57
ATOM     57  O8  non d ame     -31.355  12.046  24.889  0.00  0.00    -0.317 OA
BRANCH  57  58
ATOM     58  C29 non d ame     -31.531  13.466  24.901  0.00  0.00     0.052 C 
ATOM     59  H47 non d ame     -32.609  13.629  24.923  0.00  0.00     0.082 H 
ATOM     60  H48 non d ame     -30.907  13.834  25.713  0.00  0.00     0.082 H 
BRANCH  58  61
ATOM     61  C35 non d ame     -30.977  14.028  23.564  0.00  0.00    -0.034 A 
ATOM     62  C30 non d ame     -31.459  15.233  23.063  0.00  0.00    -0.075 A 
ATOM     63  C31 non d ame     -30.962  15.738  21.862  0.00  0.00    -0.082 A 
ATOM     64  H49 non d ame     -32.226  15.782  23.609  0.00  0.00     0.084 H 
ATOM     65  C32 non d ame     -29.981  15.032  21.160  0.00  0.00    -0.083 A 
ATOM     66  H50 non d ame     -31.341  16.684  21.472  0.00  0.00     0.083 H 
ATOM     67  C33 non d ame     -29.507  13.828  21.663  0.00  0.00    -0.082 A 
ATOM     68  H51 non d ame     -29.587  15.420  20.221  0.00  0.00     0.083 H 
ATOM     69  C34 non d ame     -29.999  13.321  22.863  0.00  0.00    -0.075 A 
ATOM     70  H52 non d ame     -28.742  13.278  21.112  0.00  0.00     0.083 H 
ATOM     71  H53 non d ame     -29.620  12.375  23.252  0.00  0.00     0.084 H 
ENDBRANCH  58  61
ENDBRANCH  57  58
ENDBRANCH  55  57
ENDBRANCH  52  55
ENDBRANCH  49  52
ENDBRANCH  47  49
BRANCH  47  72
ATOM     72  C24 non d ame     -36.779  11.339  24.050  0.00  0.00    -0.039 C 
ATOM     73  H35 non d ame     -36.233  11.922  23.307  0.00  0.00     0.036 H 
ATOM     74  H36 non d ame     -36.718  10.250  24.040  0.00  0.00     0.036 H 
BRANCH  72  75
ATOM     75  C25 non d ame     -38.327  11.726  23.909  0.00  0.00    -0.001 C 
ATOM     76  C26 non d ame     -39.198  10.990  25.094  0.00  0.00    -0.035 C 
ATOM     77  C27 non d ame     -40.243  10.340  24.529  0.00  0.00     0.085 C 
ATOM     78  H38 non d ame     -38.613  10.188  25.545  0.00  0.00     0.036 H 
ATOM     79  H39 non d ame     -39.676  11.738  25.727  0.00  0.00     0.036 H 
ATOM     80  N5  non d ame     -39.980  10.292  23.042  0.00  0.00    -0.049 N 
ATOM     81  H40 non d ame     -40.207   9.327  24.930  0.00  0.00     0.075 H 
ATOM     82  H41 non d ame     -41.113  10.968  24.715  0.00  0.00     0.075 H 
ATOM     83  C28 non d ame     -38.799  11.357  22.766  0.00  0.00     0.193 C 
ATOM     84  H42 non d ame     -39.631   9.365  22.844  0.00  0.00     0.280 HD
ATOM     85  H43 non d ame     -40.823  10.621  22.593  0.00  0.00     0.280 HD
ATOM     86  H44 non d ame     -39.023  12.327  22.321  0.00  0.00     0.129 H 
ATOM     87  H37 non d ame     -38.475  12.797  23.779  0.00  0.00     0.046 H 
BRANCH  83  88
ATOM     88  O6  non d ame     -37.797  10.775  21.930  0.00  0.00    -0.369 OA
ATOM     89  H45 non d ame     -37.086  10.430  22.477  0.00  0.00     0.212 HD
ENDBRANCH  83  88
ENDBRANCH  72  75
ENDBRANCH  47  72
ENDBRANCH  45  47
ENDBRANCH   1  43
BRANCH   1  90
ATOM     90  C16 non d ame     -36.725  16.211  24.846  0.00  0.00    -0.035 C 
ATOM     91  H21 non d ame     -35.742  16.574  24.550  0.00  0.00     0.037 H 
ATOM     92  H22 non d ame     -37.205  15.412  24.280  0.00  0.00     0.037 H 
BRANCH  90  93
ATOM     93  C17 non d ame     -37.687  17.439  24.778  0.00  0.00    -0.059 C 
ATOM     94  H23 non d ame     -38.214  17.394  23.825  0.00  0.00     0.038 H 
BRANCH  93  95
ATOM     95  C18 non d ame     -38.758  17.413  25.915  0.00  0.00    -0.073 C 
ATOM     96  H24 non d ame     -39.262  16.446  25.918  0.00  0.00     0.028 H 
ATOM     97  H25 non d ame     -38.271  17.570  26.877  0.00  0.00     0.028 H 
ATOM     98  H26 non d ame     -39.489  18.203  25.744  0.00  0.00     0.028 H 
ENDBRANCH  93  95
BRANCH  93  99
ATOM     99  C19 non d ame     -36.900  18.753  24.803  0.00  0.00    -0.073 C 
ATOM    100  H27 non d ame     -36.063  18.661  25.496  0.00  0.00     0.028 H 
ATOM    101  H28 non d ame     -36.522  18.969  23.803  0.00  0.00     0.028 H 
ATOM    102  H29 non d ame     -37.554  19.562  25.126  0.00  0.00     0.028 H 
ENDBRANCH  93  99
ENDBRANCH  90  93
ENDBRANCH   1  90
TORSDOF 26
ENDMDL
MODEL 11
REMARK VINA RESULT:      -6.0      2.795      7.625
REMARK  26 active torsions:
REMARK  status: ('A' for Active; 'I' for Inactive)
REMARK    1  A    between atoms: C2_2  and  C3_3 
REMARK    2  A    between atoms: C4_6  and  C5_7 
REMARK       I    between atoms: C5_7  and  N2_9 
REMARK    3  A    between atoms: N2_9  and  C6_10 
REMARK    4  A    between atoms: C6_10  and  C7_11 
REMARK    5  A    between atoms: C6_10  and  C8_13 
REMARK       I    between atoms: C7_11  and  N3_14 
REMARK    6  A    between atoms: N3_14  and  C9_15 
REMARK    7  A    between atoms: C9_15  and  C10_16 
REMARK    8  A    between atoms: C9_15  and  C11_18 
REMARK       I    between atoms: C10_16  and  N4_21 
REMARK    9  A    between atoms: C11_18  and  C12_19 
REMARK   10  A    between atoms: C11_18  and  C13_20 
REMARK   11  A    between atoms: N4_21  and  C14_22 
REMARK   12  A    between atoms: C14_22  and  C15_23 
REMARK   13  A    between atoms: C14_22  and  C16_25 
REMARK       I    between atoms: C15_23  and  N6_40 
REMARK   14  A    between atoms: C16_25  and  C17_26 
REMARK   15  A    between atoms: C17_26  and  C18_27 
REMARK   16  A    between atoms: C17_26  and  C19_28 
REMARK   17  A    between atoms: C20_29  and  C21_30 
REMARK   18  A    between atoms: C20_29  and  C24_33 
REMARK   19  A    between atoms: C20_29  and  N6_40 
REMARK   20  A    between atoms: C21_30  and  C22_31 
REMARK   21  A    between atoms: C22_31  and  C23_32 
REMARK   22  A    between atoms: C23_32  and  O8_43 
REMARK   23  A    between atoms: C24_33  and  C25_34 
REMARK   24  A    between atoms: C28_38  and  O6_39 
REMARK   25  A    between atoms: C29_42  and  O8_43 
REMARK   26  A    between atoms: C29_42  and  C35_49 
ROOT
ATOM      1  C14 non d ame     -35.213  10.557  24.840  0.00  0.00     0.089 C 
ATOM      2  H20 non d ame     -35.283  10.923  23.815  0.00  0.00     0.087 H 
ENDROOT
BRANCH   1   3
ATOM      3  N4  non d ame     -34.334   9.397  24.832  0.00  0.00    -0.346 N 
ATOM      4  C10 non d ame     -33.957   8.736  23.530  0.00  0.00     0.241 C 
ATOM      5  O4  non d ame     -34.375   9.154  22.501  0.00  0.00    -0.271 OA
ATOM      6  H19 non d ame     -33.991   9.056  25.718  0.00  0.00     0.163 HD
BRANCH   4   7
ATOM      7  C9  non d ame     -33.042   7.540  23.540  0.00  0.00     0.092 C 
ATOM      8  H11 non d ame     -33.281   6.899  22.692  0.00  0.00     0.088 H 
BRANCH   7   9
ATOM      9  N3  non d ame     -31.654   7.983  23.370  0.00  0.00    -0.346 N 
ATOM     10  C7  non d ame     -31.059   7.999  22.057  0.00  0.00     0.240 C 
ATOM     11  O3  non d ame     -31.681   7.658  21.126  0.00  0.00    -0.271 OA
ATOM     12  H10 non d ame     -31.105   8.279  24.164  0.00  0.00     0.163 HD
BRANCH  10  13
ATOM     13  C6  non d ame     -29.582   8.469  21.883  0.00  0.00     0.086 C 
ATOM     14  H6  non d ame     -29.093   8.013  21.022  0.00  0.00     0.086 H 
BRANCH  13  15
ATOM     15  N2  non d ame     -29.567   9.905  21.656  0.00  0.00    -0.343 N 
ATOM     16  C5  non d ame     -29.929  10.811  22.748  0.00  0.00     0.273 C 
ATOM     17  O2  non d ame     -30.235  10.376  23.804  0.00  0.00    -0.266 OA
ATOM     18  H5  non d ame     -29.307  10.268  20.750  0.00  0.00     0.163 HD
BRANCH  16  19
ATOM     19  C4  non d ame     -29.917  12.331  22.522  0.00  0.00     0.154 A 
ATOM     20  C1  non d ame     -30.699  13.313  23.208  0.00  0.00    -0.017 A 
ATOM     21  C2  non d ame     -30.318  14.546  22.635  0.00  0.00     0.077 A 
ATOM     22  H1  non d ame     -31.431  13.155  24.001  0.00  0.00     0.091 H 
ATOM     23  O1  non d ame     -29.421  14.292  21.728  0.00  0.00    -0.218 OA
ATOM     24  N1  non d ame     -29.170  13.005  21.644  0.00  0.00    -0.123 NA
BRANCH  21  25
ATOM     25  C3  non d ame     -30.856  15.920  23.010  0.00  0.00    -0.029 C 
ATOM     26  H2  non d ame     -30.108  16.458  23.592  0.00  0.00     0.036 H 
ATOM     27  H3  non d ame     -31.082  16.483  22.104  0.00  0.00     0.036 H 
ATOM     28  H4  non d ame     -31.764  15.807  23.602  0.00  0.00     0.036 H 
ENDBRANCH  21  25
ENDBRANCH  16  19
ENDBRANCH  13  15
BRANCH  13  29
ATOM     29  C8  non d ame     -28.795   8.133  23.123  0.00  0.00    -0.049 C 
ATOM     30  H7  non d ame     -27.844   7.682  22.841  0.00  0.00     0.030 H 
ATOM     31  H8  non d ame     -28.608   9.043  23.694  0.00  0.00     0.030 H 
ATOM     32  H9  non d ame     -29.363   7.430  23.735  0.00  0.00     0.030 H 
ENDBRANCH  13  29
ENDBRANCH  10  13
ENDBRANCH   7   9
BRANCH   7  33
ATOM     33  C11 non d ame     -33.181   6.792  24.899  0.00  0.00    -0.033 C 
ATOM     34  H12 non d ame     -33.473   7.526  25.649  0.00  0.00     0.042 H 
BRANCH  33  35
ATOM     35  C12 non d ame     -34.304   5.710  24.838  0.00  0.00    -0.071 C 
ATOM     36  H13 non d ame     -34.646   5.598  23.809  0.00  0.00     0.028 H 
ATOM     37  H14 non d ame     -33.912   4.758  25.196  0.00  0.00     0.028 H 
ATOM     38  H15 non d ame     -35.140   6.018  25.466  0.00  0.00     0.028 H 
ENDBRANCH  33  35
BRANCH  33  39
ATOM     39  C13 non d ame     -31.817   6.170  25.337  0.00  0.00    -0.071 C 
ATOM     40  H16 non d ame     -31.368   6.789  26.114  0.00  0.00     0.028 H 
ATOM     41  H17 non d ame     -31.983   5.163  25.724  0.00  0.00     0.028 H 
ATOM     42  H18 non d ame     -31.147   6.121  24.479  0.00  0.00     0.028 H 
ENDBRANCH  33  39
ENDBRANCH   7  33
ENDBRANCH   4   7
ENDBRANCH   1   3
BRANCH   1  43
ATOM     43  C15 non d ame     -34.618  11.623  25.805  0.00  0.00     0.240 C 
ATOM     44  O5  non d ame     -35.275  12.040  26.702  0.00  0.00    -0.271 OA
ATOM     45  N6  non d ame     -33.224  12.116  25.615  0.00  0.00    -0.355 N 
ATOM     46  H46 non d ame     -32.654  11.765  24.859  0.00  0.00     0.162 HD
BRANCH  45  47
ATOM     47  C20 non d ame     -32.673  13.129  26.542  0.00  0.00     0.013 C 
ATOM     48  H30 non d ame     -33.288  13.128  27.442  0.00  0.00     0.072 H 
BRANCH  47  49
ATOM     49  C21 non d ame     -32.721  14.488  25.882  0.00  0.00    -0.038 C 
ATOM     50  H31 non d ame     -31.715  14.898  25.979  0.00  0.00     0.036 H 
ATOM     51  H32 non d ame     -33.149  14.321  24.894  0.00  0.00     0.036 H 
BRANCH  49  52
ATOM     52  C22 non d ame     -33.666  15.473  26.606  0.00  0.00     0.018 C 
ATOM     53  H33 non d ame     -34.089  16.103  25.825  0.00  0.00     0.048 H 
ATOM     54  H34 non d ame     -34.319  14.854  27.222  0.00  0.00     0.048 H 
BRANCH  52  55
ATOM     55  C23 non d ame     -32.937  16.434  27.586  0.00  0.00     0.259 C 
ATOM     56  O7  non d ame     -32.566  16.046  28.647  0.00  0.00    -0.265 OA
BRANCH  55  57
ATOM     57  O8  non d ame     -32.729  17.789  27.207  0.00  0.00    -0.317 OA
BRANCH  57  58
ATOM     58  C29 non d ame     -33.219  18.111  25.902  0.00  0.00     0.052 C 
ATOM     59  H47 non d ame     -32.425  18.682  25.421  0.00  0.00     0.082 H 
ATOM     60  H48 non d ame     -33.551  17.168  25.470  0.00  0.00     0.082 H 
BRANCH  58  61
ATOM     61  C35 non d ame     -34.456  19.035  26.070  0.00  0.00    -0.034 A 
ATOM     62  C30 non d ame     -35.514  18.951  25.170  0.00  0.00    -0.075 A 
ATOM     63  C31 non d ame     -36.625  19.781  25.320  0.00  0.00    -0.082 A 
ATOM     64  H49 non d ame     -35.474  18.237  24.347  0.00  0.00     0.084 H 
ATOM     65  C32 non d ame     -36.674  20.697  26.374  0.00  0.00    -0.083 A 
ATOM     66  H50 non d ame     -37.454  19.711  24.615  0.00  0.00     0.083 H 
ATOM     67  C33 non d ame     -35.614  20.779  27.266  0.00  0.00    -0.082 A 
ATOM     68  H51 non d ame     -37.539  21.349  26.499  0.00  0.00     0.083 H 
ATOM     69  C34 non d ame     -34.503  19.951  27.121  0.00  0.00    -0.075 A 
ATOM     70  H52 non d ame     -35.654  21.497  28.087  0.00  0.00     0.083 H 
ATOM     71  H53 non d ame     -33.675  20.020  27.827  0.00  0.00     0.084 H 
ENDBRANCH  58  61
ENDBRANCH  57  58
ENDBRANCH  55  57
ENDBRANCH  52  55
ENDBRANCH  49  52
ENDBRANCH  47  49
BRANCH  47  72
ATOM     72  C24 non d ame     -31.227  12.779  26.887  0.00  0.00    -0.039 C 
ATOM     73  H35 non d ame     -30.982  11.916  26.268  0.00  0.00     0.036 H 
ATOM     74  H36 non d ame     -30.668  13.708  26.772  0.00  0.00     0.036 H 
BRANCH  72  75
ATOM     75  C25 non d ame     -31.076  12.324  28.416  0.00  0.00    -0.001 C 
ATOM     76  C26 non d ame     -32.561  12.064  29.071  0.00  0.00    -0.035 C 
ATOM     77  C27 non d ame     -32.653  12.756  30.233  0.00  0.00     0.085 C 
ATOM     78  H38 non d ame     -33.331  12.514  28.445  0.00  0.00     0.036 H 
ATOM     79  H39 non d ame     -32.654  11.024  29.387  0.00  0.00     0.036 H 
ATOM     80  N5  non d ame     -31.492  13.722  30.264  0.00  0.00    -0.049 N 
ATOM     81  H40 non d ame     -33.583  13.320  30.162  0.00  0.00     0.075 H 
ATOM     82  H41 non d ame     -32.522  12.018  31.023  0.00  0.00     0.075 H 
ATOM     83  C28 non d ame     -30.472  13.227  29.114  0.00  0.00     0.193 C 
ATOM     84  H42 non d ame     -31.863  14.622  29.998  0.00  0.00     0.280 HD
ATOM     85  H43 non d ame     -31.047  13.603  31.163  0.00  0.00     0.280 HD
ATOM     86  H44 non d ame     -29.558  12.694  29.378  0.00  0.00     0.129 H 
ATOM     87  H37 non d ame     -30.334  11.536  28.540  0.00  0.00     0.046 H 
BRANCH  83  88
ATOM     88  O6  non d ame     -30.053  14.335  28.317  0.00  0.00    -0.369 OA
ATOM     89  H45 non d ame     -29.208  14.660  28.639  0.00  0.00     0.212 HD
ENDBRANCH  83  88
ENDBRANCH  72  75
ENDBRANCH  47  72
ENDBRANCH  45  47
ENDBRANCH   1  43
BRANCH   1  90
ATOM     90  C16 non d ame     -36.588  10.135  25.331  0.00  0.00    -0.035 C 
ATOM     91  H21 non d ame     -36.963  10.982  25.903  0.00  0.00     0.037 H 
ATOM     92  H22 non d ame     -37.121   9.798  24.441  0.00  0.00     0.037 H 
BRANCH  90  93
ATOM     93  C17 non d ame     -36.557   8.920  26.313  0.00  0.00    -0.059 C 
ATOM     94  H23 non d ame     -35.513   8.643  26.461  0.00  0.00     0.038 H 
BRANCH  93  95
ATOM     95  C18 non d ame     -37.157   9.276  27.710  0.00  0.00    -0.073 C 
ATOM     96  H24 non d ame     -38.221   9.492  27.605  0.00  0.00     0.028 H 
ATOM     97  H25 non d ame     -37.026   8.432  28.387  0.00  0.00     0.028 H 
ATOM     98  H26 non d ame     -36.647  10.149  28.114  0.00  0.00     0.028 H 
ENDBRANCH  93  95
BRANCH  93  99
ATOM     99  C19 non d ame     -37.269   7.708  25.707  0.00  0.00    -0.073 C 
ATOM    100  H27 non d ame     -38.251   7.596  26.167  0.00  0.00     0.028 H 
ATOM    101  H28 non d ame     -37.387   7.854  24.633  0.00  0.00     0.028 H 
ATOM    102  H29 non d ame     -36.677   6.811  25.888  0.00  0.00     0.028 H 
ENDBRANCH  93  99
ENDBRANCH  90  93
ENDBRANCH   1  90
TORSDOF 26
ENDMDL
MODEL 12
REMARK VINA RESULT:      -6.0      1.723      4.467
REMARK  26 active torsions:
REMARK  status: ('A' for Active; 'I' for Inactive)
REMARK    1  A    between atoms: C2_2  and  C3_3 
REMARK    2  A    between atoms: C4_6  and  C5_7 
REMARK       I    between atoms: C5_7  and  N2_9 
REMARK    3  A    between atoms: N2_9  and  C6_10 
REMARK    4  A    between atoms: C6_10  and  C7_11 
REMARK    5  A    between atoms: C6_10  and  C8_13 
REMARK       I    between atoms: C7_11  and  N3_14 
REMARK    6  A    between atoms: N3_14  and  C9_15 
REMARK    7  A    between atoms: C9_15  and  C10_16 
REMARK    8  A    between atoms: C9_15  and  C11_18 
REMARK       I    between atoms: C10_16  and  N4_21 
REMARK    9  A    between atoms: C11_18  and  C12_19 
REMARK   10  A    between atoms: C11_18  and  C13_20 
REMARK   11  A    between atoms: N4_21  and  C14_22 
REMARK   12  A    between atoms: C14_22  and  C15_23 
REMARK   13  A    between atoms: C14_22  and  C16_25 
REMARK       I    between atoms: C15_23  and  N6_40 
REMARK   14  A    between atoms: C16_25  and  C17_26 
REMARK   15  A    between atoms: C17_26  and  C18_27 
REMARK   16  A    between atoms: C17_26  and  C19_28 
REMARK   17  A    between atoms: C20_29  and  C21_30 
REMARK   18  A    between atoms: C20_29  and  C24_33 
REMARK   19  A    between atoms: C20_29  and  N6_40 
REMARK   20  A    between atoms: C21_30  and  C22_31 
REMARK   21  A    between atoms: C22_31  and  C23_32 
REMARK   22  A    between atoms: C23_32  and  O8_43 
REMARK   23  A    between atoms: C24_33  and  C25_34 
REMARK   24  A    between atoms: C28_38  and  O6_39 
REMARK   25  A    between atoms: C29_42  and  O8_43 
REMARK   26  A    between atoms: C29_42  and  C35_49 
ROOT
ATOM      1  C14 non d ame     -32.606  10.041  24.780  0.00  0.00     0.089 C 
ATOM      2  H20 non d ame     -32.506   9.169  25.426  0.00  0.00     0.087 H 
ENDROOT
BRANCH   1   3
ATOM      3  N4  non d ame     -34.010  10.424  24.774  0.00  0.00    -0.346 N 
ATOM      4  C10 non d ame     -35.000   9.700  25.649  0.00  0.00     0.241 C 
ATOM      5  O4  non d ame     -34.645   8.810  26.350  0.00  0.00    -0.271 OA
ATOM      6  H19 non d ame     -34.292  11.181  24.169  0.00  0.00     0.163 HD
BRANCH   4   7
ATOM      7  C9  non d ame     -36.449  10.112  25.634  0.00  0.00     0.092 C 
ATOM      8  H11 non d ame     -36.816  10.172  26.658  0.00  0.00     0.088 H 
BRANCH   7   9
ATOM      9  N3  non d ame     -36.571  11.451  25.050  0.00  0.00    -0.346 N 
ATOM     10  C7  non d ame     -36.845  12.585  25.898  0.00  0.00     0.240 C 
ATOM     11  O3  non d ame     -36.971  12.437  27.053  0.00  0.00    -0.271 OA
ATOM     12  H10 non d ame     -36.465  11.593  24.056  0.00  0.00     0.163 HD
BRANCH  10  13
ATOM     13  C6  non d ame     -36.976  14.007  25.271  0.00  0.00     0.086 C 
ATOM     14  H6  non d ame     -37.875  14.530  25.597  0.00  0.00     0.086 H 
BRANCH  13  15
ATOM     15  N2  non d ame     -35.847  14.817  25.698  0.00  0.00    -0.343 N 
ATOM     16  C5  non d ame     -36.028  15.803  26.765  0.00  0.00     0.273 C 
ATOM     17  O2  non d ame     -37.087  15.940  27.272  0.00  0.00    -0.266 OA
ATOM     18  H5  non d ame     -34.946  14.695  25.257  0.00  0.00     0.163 HD
BRANCH  16  19
ATOM     19  C4  non d ame     -34.842  16.665  27.226  0.00  0.00     0.154 A 
ATOM     20  C1  non d ame     -34.196  17.711  26.493  0.00  0.00    -0.017 A 
ATOM     21  C2  non d ame     -33.177  18.180  27.351  0.00  0.00     0.077 A 
ATOM     22  H1  non d ame     -34.431  18.073  25.492  0.00  0.00     0.091 H 
ATOM     23  O1  non d ame     -33.240  17.481  28.446  0.00  0.00    -0.218 OA
ATOM     24  N1  non d ame     -34.204  16.590  28.397  0.00  0.00    -0.123 NA
BRANCH  21  25
ATOM     25  C3  non d ame     -32.190  19.299  27.050  0.00  0.00    -0.029 C 
ATOM     26  H2  non d ame     -31.239  19.086  27.537  0.00  0.00     0.036 H 
ATOM     27  H3  non d ame     -32.036  19.369  25.973  0.00  0.00     0.036 H 
ATOM     28  H4  non d ame     -32.585  20.244  27.422  0.00  0.00     0.036 H 
ENDBRANCH  21  25
ENDBRANCH  16  19
ENDBRANCH  13  15
BRANCH  13  29
ATOM     29  C8  non d ame     -36.995  13.897  23.768  0.00  0.00    -0.049 C 
ATOM     30  H7  non d ame     -36.811  14.877  23.329  0.00  0.00     0.030 H 
ATOM     31  H8  non d ame     -36.218  13.204  23.444  0.00  0.00     0.030 H 
ATOM     32  H9  non d ame     -37.969  13.530  23.443  0.00  0.00     0.030 H 
ENDBRANCH  13  29
ENDBRANCH  10  13
ENDBRANCH   7   9
BRANCH   7  33
ATOM     33  C11 non d ame     -37.266   9.100  24.777  0.00  0.00    -0.033 C 
ATOM     34  H12 non d ame     -36.557   8.521  24.186  0.00  0.00     0.042 H 
BRANCH  33  35
ATOM     35  C12 non d ame     -38.053   8.099  25.679  0.00  0.00    -0.071 C 
ATOM     36  H13 non d ame     -38.976   7.805  25.177  0.00  0.00     0.028 H 
ATOM     37  H14 non d ame     -37.442   7.216  25.861  0.00  0.00     0.028 H 
ATOM     38  H15 non d ame     -38.294   8.577  26.628  0.00  0.00     0.028 H 
ENDBRANCH  33  35
BRANCH  33  39
ATOM     39  C13 non d ame     -38.221   9.846  23.791  0.00  0.00    -0.071 C 
ATOM     40  H16 non d ame     -37.631  10.432  23.086  0.00  0.00     0.028 H 
ATOM     41  H17 non d ame     -38.822   9.117  23.245  0.00  0.00     0.028 H 
ATOM     42  H18 non d ame     -38.879  10.509  24.353  0.00  0.00     0.028 H 
ENDBRANCH  33  39
ENDBRANCH   7  33
ENDBRANCH   4   7
ENDBRANCH   1   3
BRANCH   1  43
ATOM     43  C15 non d ame     -31.766  11.248  25.291  0.00  0.00     0.240 C 
ATOM     44  O5  non d ame     -30.791  11.056  25.942  0.00  0.00    -0.271 OA
ATOM     45  N6  non d ame     -32.172  12.643  24.959  0.00  0.00    -0.355 N 
ATOM     46  H46 non d ame     -32.997  12.819  24.402  0.00  0.00     0.162 HD
BRANCH  45  47
ATOM     47  C20 non d ame     -31.363  13.779  25.451  0.00  0.00     0.013 C 
ATOM     48  H30 non d ame     -30.332  13.437  25.548  0.00  0.00     0.072 H 
BRANCH  47  49
ATOM     49  C21 non d ame     -31.890  14.223  26.797  0.00  0.00    -0.038 C 
ATOM     50  H31 non d ame     -32.108  15.286  26.691  0.00  0.00     0.036 H 
ATOM     51  H32 non d ame     -32.690  13.524  27.044  0.00  0.00     0.036 H 
BRANCH  49  52
ATOM     52  C22 non d ame     -30.840  14.100  27.922  0.00  0.00     0.018 C 
ATOM     53  H33 non d ame     -30.536  13.055  27.929  0.00  0.00     0.048 H 
ATOM     54  H34 non d ame     -30.105  14.881  27.725  0.00  0.00     0.048 H 
BRANCH  52  55
ATOM     55  C23 non d ame     -31.405  14.392  29.340  0.00  0.00     0.259 C 
ATOM     56  O7  non d ame     -31.024  15.333  29.959  0.00  0.00    -0.265 OA
BRANCH  55  57
ATOM     57  O8  non d ame     -32.375  13.514  29.898  0.00  0.00    -0.317 OA
BRANCH  57  58
ATOM     58  C29 non d ame     -31.818  12.358  30.532  0.00  0.00     0.052 C 
ATOM     59  H47 non d ame     -31.047  11.993  29.855  0.00  0.00     0.082 H 
ATOM     60  H48 non d ame     -31.554  12.673  31.541  0.00  0.00     0.082 H 
BRANCH  58  61
ATOM     61  C35 non d ame     -32.934  11.283  30.631  0.00  0.00    -0.034 A 
ATOM     62  C30 non d ame     -33.859  11.334  31.670  0.00  0.00    -0.075 A 
ATOM     63  C31 non d ame     -34.860  10.368  31.760  0.00  0.00    -0.082 A 
ATOM     64  H49 non d ame     -33.799  12.128  32.414  0.00  0.00     0.084 H 
ATOM     65  C32 non d ame     -34.934   9.348  30.807  0.00  0.00    -0.083 A 
ATOM     66  H50 non d ame     -35.585  10.411  32.574  0.00  0.00     0.083 H 
ATOM     67  C33 non d ame     -34.007   9.300  29.775  0.00  0.00    -0.082 A 
ATOM     68  H51 non d ame     -35.715   8.590  30.869  0.00  0.00     0.083 H 
ATOM     69  C34 non d ame     -33.005  10.264  29.681  0.00  0.00    -0.075 A 
ATOM     70  H52 non d ame     -34.065   8.501  29.034  0.00  0.00     0.083 H 
ATOM     71  H53 non d ame     -32.281  10.221  28.867  0.00  0.00     0.084 H 
ENDBRANCH  58  61
ENDBRANCH  57  58
ENDBRANCH  55  57
ENDBRANCH  52  55
ENDBRANCH  49  52
ENDBRANCH  47  49
BRANCH  47  72
ATOM     72  C24 non d ame     -31.446  14.939  24.462  0.00  0.00    -0.039 C 
ATOM     73  H35 non d ame     -32.512  15.103  24.297  0.00  0.00     0.036 H 
ATOM     74  H36 non d ame     -30.833  15.731  24.891  0.00  0.00     0.036 H 
BRANCH  72  75
ATOM     75  C25 non d ame     -30.802  14.558  23.045  0.00  0.00    -0.001 C 
ATOM     76  C26 non d ame     -29.254  14.047  23.254  0.00  0.00    -0.035 C 
ATOM     77  C27 non d ame     -28.448  14.739  22.413  0.00  0.00     0.085 C 
ATOM     78  H38 non d ame     -28.895  14.333  24.242  0.00  0.00     0.036 H 
ATOM     79  H39 non d ame     -29.150  13.016  22.914  0.00  0.00     0.036 H 
ATOM     80  N5  non d ame     -29.256  15.902  21.886  0.00  0.00    -0.049 N 
ATOM     81  H40 non d ame     -27.638  15.121  23.034  0.00  0.00     0.075 H 
ATOM     82  H41 non d ame     -28.230  14.058  21.592  0.00  0.00     0.075 H 
ATOM     83  C28 non d ame     -30.795  15.573  22.247  0.00  0.00     0.193 C 
ATOM     84  H42 non d ame     -28.968  16.712  22.414  0.00  0.00     0.280 HD
ATOM     85  H43 non d ame     -29.151  15.889  20.881  0.00  0.00     0.280 HD
ATOM     86  H44 non d ame     -31.482  15.223  21.476  0.00  0.00     0.129 H 
ATOM     87  H37 non d ame     -31.459  13.922  22.451  0.00  0.00     0.046 H 
BRANCH  83  88
ATOM     88  O6  non d ame     -31.421  16.719  22.827  0.00  0.00    -0.369 OA
ATOM     89  H45 non d ame     -32.365  16.689  22.656  0.00  0.00     0.212 HD
ENDBRANCH  83  88
ENDBRANCH  72  75
ENDBRANCH  47  72
ENDBRANCH  45  47
ENDBRANCH   1  43
BRANCH   1  90
ATOM     90  C16 non d ame     -32.181   9.686  23.365  0.00  0.00    -0.035 C 
ATOM     91  H21 non d ame     -33.070   9.827  22.753  0.00  0.00     0.037 H 
ATOM     92  H22 non d ame     -31.287  10.280  23.174  0.00  0.00     0.037 H 
BRANCH  90  93
ATOM     93  C17 non d ame     -31.762   8.190  23.194  0.00  0.00    -0.059 C 
ATOM     94  H23 non d ame     -31.007   7.971  23.949  0.00  0.00     0.038 H 
BRANCH  93  95
ATOM     95  C18 non d ame     -32.959   7.213  23.421  0.00  0.00    -0.073 C 
ATOM     96  H24 non d ame     -32.803   6.654  24.343  0.00  0.00     0.028 H 
ATOM     97  H25 non d ame     -33.884   7.784  23.496  0.00  0.00     0.028 H 
ATOM     98  H26 non d ame     -33.026   6.520  22.582  0.00  0.00     0.028 H 
ENDBRANCH  93  95
BRANCH  93  99
ATOM     99  C19 non d ame     -31.119   7.955  21.825  0.00  0.00    -0.073 C 
ATOM    100  H27 non d ame     -30.088   8.312  21.841  0.00  0.00     0.028 H 
ATOM    101  H28 non d ame     -31.129   6.889  21.595  0.00  0.00     0.028 H 
ATOM    102  H29 non d ame     -31.679   8.496  21.062  0.00  0.00     0.028 H 
ENDBRANCH  93  99
ENDBRANCH  90  93
ENDBRANCH   1  90
TORSDOF 26
ENDMDL
MODEL 13
REMARK VINA RESULT:      -6.0      2.352      7.290
REMARK  26 active torsions:
REMARK  status: ('A' for Active; 'I' for Inactive)
REMARK    1  A    between atoms: C2_2  and  C3_3 
REMARK    2  A    between atoms: C4_6  and  C5_7 
REMARK       I    between atoms: C5_7  and  N2_9 
REMARK    3  A    between atoms: N2_9  and  C6_10 
REMARK    4  A    between atoms: C6_10  and  C7_11 
REMARK    5  A    between atoms: C6_10  and  C8_13 
REMARK       I    between atoms: C7_11  and  N3_14 
REMARK    6  A    between atoms: N3_14  and  C9_15 
REMARK    7  A    between atoms: C9_15  and  C10_16 
REMARK    8  A    between atoms: C9_15  and  C11_18 
REMARK       I    between atoms: C10_16  and  N4_21 
REMARK    9  A    between atoms: C11_18  and  C12_19 
REMARK   10  A    between atoms: C11_18  and  C13_20 
REMARK   11  A    between atoms: N4_21  and  C14_22 
REMARK   12  A    between atoms: C14_22  and  C15_23 
REMARK   13  A    between atoms: C14_22  and  C16_25 
REMARK       I    between atoms: C15_23  and  N6_40 
REMARK   14  A    between atoms: C16_25  and  C17_26 
REMARK   15  A    between atoms: C17_26  and  C18_27 
REMARK   16  A    between atoms: C17_26  and  C19_28 
REMARK   17  A    between atoms: C20_29  and  C21_30 
REMARK   18  A    between atoms: C20_29  and  C24_33 
REMARK   19  A    between atoms: C20_29  and  N6_40 
REMARK   20  A    between atoms: C21_30  and  C22_31 
REMARK   21  A    between atoms: C22_31  and  C23_32 
REMARK   22  A    between atoms: C23_32  and  O8_43 
REMARK   23  A    between atoms: C24_33  and  C25_34 
REMARK   24  A    between atoms: C28_38  and  O6_39 
REMARK   25  A    between atoms: C29_42  and  O8_43 
REMARK   26  A    between atoms: C29_42  and  C35_49 
ROOT
ATOM      1  C14 non d ame     -35.257   9.639  30.156  0.00  0.00     0.089 C 
ATOM      2  H20 non d ame     -35.915   9.803  31.009  0.00  0.00     0.087 H 
ENDROOT
BRANCH   1   3
ATOM      3  N4  non d ame     -35.941  10.137  28.972  0.00  0.00    -0.346 N 
ATOM      4  C10 non d ame     -37.376  10.592  29.056  0.00  0.00     0.241 C 
ATOM      5  O4  non d ame     -37.961  10.548  30.088  0.00  0.00    -0.271 OA
ATOM      6  H19 non d ame     -35.427  10.163  28.103  0.00  0.00     0.163 HD
BRANCH   4   7
ATOM      7  C9  non d ame     -38.068  11.108  27.822  0.00  0.00     0.092 C 
ATOM      8  H11 non d ame     -38.992  11.607  28.111  0.00  0.00     0.088 H 
BRANCH   7   9
ATOM      9  N3  non d ame     -37.220  12.110  27.169  0.00  0.00    -0.346 N 
ATOM     10  C7  non d ame     -37.796  13.347  26.702  0.00  0.00     0.240 C 
ATOM     11  O3  non d ame     -38.940  13.552  26.844  0.00  0.00    -0.271 OA
ATOM     12  H10 non d ame     -36.232  11.946  27.039  0.00  0.00     0.163 HD
BRANCH  10  13
ATOM     13  C6  non d ame     -36.890  14.409  26.005  0.00  0.00     0.086 C 
ATOM     14  H6  non d ame     -37.220  14.647  24.995  0.00  0.00     0.086 H 
BRANCH  13  15
ATOM     15  N2  non d ame     -36.945  15.647  26.764  0.00  0.00    -0.343 N 
ATOM     16  C5  non d ame     -36.635  16.915  26.100  0.00  0.00     0.273 C 
ATOM     17  O2  non d ame     -36.338  16.928  24.955  0.00  0.00    -0.266 OA
ATOM     18  H5  non d ame     -37.196  15.627  27.742  0.00  0.00     0.163 HD
BRANCH  16  19
ATOM     19  C4  non d ame     -36.690  18.232  26.890  0.00  0.00     0.154 A 
ATOM     20  C1  non d ame     -36.580  18.395  28.307  0.00  0.00    -0.017 A 
ATOM     21  C2  non d ame     -36.694  19.787  28.522  0.00  0.00     0.077 A 
ATOM     22  H1  non d ame     -36.438  17.623  29.063  0.00  0.00     0.091 H 
ATOM     23  O1  non d ame     -36.849  20.348  27.359  0.00  0.00    -0.218 OA
ATOM     24  N1  non d ame     -36.851  19.460  26.391  0.00  0.00    -0.123 NA
BRANCH  21  25
ATOM     25  C3  non d ame     -36.641  20.499  29.867  0.00  0.00    -0.029 C 
ATOM     26  H2  non d ame     -35.710  20.249  30.374  0.00  0.00     0.036 H 
ATOM     27  H3  non d ame     -36.690  21.576  29.710  0.00  0.00     0.036 H 
ATOM     28  H4  non d ame     -37.485  20.182  30.480  0.00  0.00     0.036 H 
ENDBRANCH  21  25
ENDBRANCH  16  19
ENDBRANCH  13  15
BRANCH  13  29
ATOM     29  C8  non d ame     -35.471  13.902  25.946  0.00  0.00    -0.049 C 
ATOM     30  H7  non d ame     -35.452  12.843  26.203  0.00  0.00     0.030 H 
ATOM     31  H8  non d ame     -35.078  14.038  24.939  0.00  0.00     0.030 H 
ATOM     32  H9  non d ame     -34.857  14.459  26.655  0.00  0.00     0.030 H 
ENDBRANCH  13  29
ENDBRANCH  10  13
ENDBRANCH   7   9
BRANCH   7  33
ATOM     33  C11 non d ame     -38.321   9.927  26.838  0.00  0.00    -0.033 C 
ATOM     34  H12 non d ame     -38.237   9.002  27.407  0.00  0.00     0.042 H 
BRANCH  33  35
ATOM     35  C12 non d ame     -39.762   9.984  26.243  0.00  0.00    -0.071 C 
ATOM     36  H13 non d ame     -40.411   9.306  26.798  0.00  0.00     0.028 H 
ATOM     37  H14 non d ame     -40.148  11.000  26.319  0.00  0.00     0.028 H 
ATOM     38  H15 non d ame     -39.735   9.682  25.196  0.00  0.00     0.028 H 
ENDBRANCH  33  35
BRANCH  33  39
ATOM     39  C13 non d ame     -37.242   9.899  25.709  0.00  0.00    -0.071 C 
ATOM     40  H16 non d ame     -36.995  10.920  25.416  0.00  0.00     0.028 H 
ATOM     41  H17 non d ame     -36.345   9.398  26.075  0.00  0.00     0.028 H 
ATOM     42  H18 non d ame     -37.632   9.358  24.847  0.00  0.00     0.028 H 
ENDBRANCH  33  39
ENDBRANCH   7  33
ENDBRANCH   4   7
ENDBRANCH   1   3
BRANCH   1  43
ATOM     43  C15 non d ame     -33.907  10.399  30.303  0.00  0.00     0.240 C 
ATOM     44  O5  non d ame     -33.311  10.353  31.331  0.00  0.00    -0.271 OA
ATOM     45  N6  non d ame     -33.350  11.176  29.159  0.00  0.00    -0.355 N 
ATOM     46  H46 non d ame     -33.845  11.218  28.279  0.00  0.00     0.162 HD
BRANCH  45  47
ATOM     47  C20 non d ame     -32.066  11.892  29.315  0.00  0.00     0.013 C 
ATOM     48  H30 non d ame     -31.436  11.306  29.984  0.00  0.00     0.072 H 
BRANCH  47  49
ATOM     49  C21 non d ame     -32.323  13.258  29.909  0.00  0.00    -0.038 C 
ATOM     50  H31 non d ame     -33.298  13.564  29.530  0.00  0.00     0.036 H 
ATOM     51  H32 non d ame     -32.165  13.147  30.982  0.00  0.00     0.036 H 
BRANCH  49  52
ATOM     52  C22 non d ame     -31.312  14.321  29.426  0.00  0.00     0.018 C 
ATOM     53  H33 non d ame     -30.445  14.220  30.077  0.00  0.00     0.048 H 
ATOM     54  H34 non d ame     -31.210  14.165  28.352  0.00  0.00     0.048 H 
BRANCH  52  55
ATOM     55  C23 non d ame     -31.811  15.783  29.600  0.00  0.00     0.259 C 
ATOM     56  O7  non d ame     -31.199  16.553  30.268  0.00  0.00    -0.265 OA
BRANCH  55  57
ATOM     57  O8  non d ame     -33.016  16.188  28.962  0.00  0.00    -0.317 OA
BRANCH  57  58
ATOM     58  C29 non d ame     -32.936  16.225  27.534  0.00  0.00     0.052 C 
ATOM     59  H47 non d ame     -31.942  15.855  27.285  0.00  0.00     0.082 H 
ATOM     60  H48 non d ame     -33.820  15.700  27.175  0.00  0.00     0.082 H 
BRANCH  58  61
ATOM     61  C35 non d ame     -33.033  17.709  27.088  0.00  0.00    -0.034 A 
ATOM     62  C30 non d ame     -32.942  18.727  28.033  0.00  0.00    -0.075 A 
ATOM     63  C31 non d ame     -33.030  20.060  27.632  0.00  0.00    -0.082 A 
ATOM     64  H49 non d ame     -32.803  18.482  29.085  0.00  0.00     0.084 H 
ATOM     65  C32 non d ame     -33.211  20.373  26.282  0.00  0.00    -0.083 A 
ATOM     66  H50 non d ame     -32.957  20.856  28.374  0.00  0.00     0.083 H 
ATOM     67  C33 non d ame     -33.305  19.353  25.345  0.00  0.00    -0.082 A 
ATOM     68  H51 non d ame     -33.280  21.413  25.961  0.00  0.00     0.083 H 
ATOM     69  C34 non d ame     -33.216  18.020  25.740  0.00  0.00    -0.075 A 
ATOM     70  H52 non d ame     -33.449  19.601  24.292  0.00  0.00     0.083 H 
ATOM     71  H53 non d ame     -33.289  17.225  24.998  0.00  0.00     0.084 H 
ENDBRANCH  58  61
ENDBRANCH  57  58
ENDBRANCH  55  57
ENDBRANCH  52  55
ENDBRANCH  49  52
ENDBRANCH  47  49
BRANCH  47  72
ATOM     72  C24 non d ame     -31.392  12.045  27.953  0.00  0.00    -0.039 C 
ATOM     73  H35 non d ame     -31.108  13.096  27.887  0.00  0.00     0.036 H 
ATOM     74  H36 non d ame     -30.626  11.271  27.918  0.00  0.00     0.036 H 
BRANCH  72  75
ATOM     75  C25 non d ame     -32.411  11.756  26.751  0.00  0.00    -0.001 C 
ATOM     76  C26 non d ame     -32.195  10.226  26.190  0.00  0.00    -0.035 C 
ATOM     77  C27 non d ame     -32.041  10.271  24.845  0.00  0.00     0.085 C 
ATOM     78  H38 non d ame     -31.243   9.829  26.543  0.00  0.00     0.036 H 
ATOM     79  H39 non d ame     -33.109   9.646  26.322  0.00  0.00     0.036 H 
ATOM     80  N5  non d ame     -31.804  11.716  24.477  0.00  0.00    -0.049 N 
ATOM     81  H40 non d ame     -31.137   9.698  24.637  0.00  0.00     0.075 H 
ATOM     82  H41 non d ame     -32.996   9.951  24.432  0.00  0.00     0.075 H 
ATOM     83  C28 non d ame     -32.227  12.580  25.774  0.00  0.00     0.193 C 
ATOM     84  H42 non d ame     -30.810  11.816  24.335  0.00  0.00     0.280 HD
ATOM     85  H43 non d ame     -32.446  11.927  23.726  0.00  0.00     0.280 HD
ATOM     86  H44 non d ame     -33.172  13.123  25.792  0.00  0.00     0.129 H 
ATOM     87  H37 non d ame     -33.430  12.056  26.993  0.00  0.00     0.046 H 
BRANCH  83  88
ATOM     88  O6  non d ame     -31.222  13.551  26.069  0.00  0.00    -0.369 OA
ATOM     89  H45 non d ame     -31.617  14.426  26.087  0.00  0.00     0.212 HD
ENDBRANCH  83  88
ENDBRANCH  72  75
ENDBRANCH  47  72
ENDBRANCH  45  47
ENDBRANCH   1  43
BRANCH   1  90
ATOM     90  C16 non d ame     -34.990   8.152  29.989  0.00  0.00    -0.035 C 
ATOM     91  H21 non d ame     -35.464   7.878  29.048  0.00  0.00     0.037 H 
ATOM     92  H22 non d ame     -33.913   8.037  30.112  0.00  0.00     0.037 H 
BRANCH  90  93
ATOM     93  C17 non d ame     -35.658   7.269  31.091  0.00  0.00    -0.059 C 
ATOM     94  H23 non d ame     -35.415   7.709  32.059  0.00  0.00     0.038 H 
BRANCH  93  95
ATOM     95  C18 non d ame     -37.214   7.240  30.960  0.00  0.00    -0.073 C 
ATOM     96  H24 non d ame     -37.620   6.466  31.613  0.00  0.00     0.028 H 
ATOM     97  H25 non d ame     -37.622   8.208  31.250  0.00  0.00     0.028 H 
ATOM     98  H26 non d ame     -37.488   7.025  29.928  0.00  0.00     0.028 H 
ENDBRANCH  93  95
BRANCH  93  99
ATOM     99  C19 non d ame     -35.084   5.850  31.078  0.00  0.00    -0.073 C 
ATOM    100  H27 non d ame     -35.597   5.244  31.825  0.00  0.00     0.028 H 
ATOM    101  H28 non d ame     -35.228   5.408  30.092  0.00  0.00     0.028 H 
ATOM    102  H29 non d ame     -34.019   5.887  31.308  0.00  0.00     0.028 H 
ENDBRANCH  93  99
ENDBRANCH  90  93
ENDBRANCH   1  90
TORSDOF 26
ENDMDL
MODEL 14
REMARK VINA RESULT:      -6.0      2.493      7.168
REMARK  26 active torsions:
REMARK  status: ('A' for Active; 'I' for Inactive)
REMARK    1  A    between atoms: C2_2  and  C3_3 
REMARK    2  A    between atoms: C4_6  and  C5_7 
REMARK       I    between atoms: C5_7  and  N2_9 
REMARK    3  A    between atoms: N2_9  and  C6_10 
REMARK    4  A    between atoms: C6_10  and  C7_11 
REMARK    5  A    between atoms: C6_10  and  C8_13 
REMARK       I    between atoms: C7_11  and  N3_14 
REMARK    6  A    between atoms: N3_14  and  C9_15 
REMARK    7  A    between atoms: C9_15  and  C10_16 
REMARK    8  A    between atoms: C9_15  and  C11_18 
REMARK       I    between atoms: C10_16  and  N4_21 
REMARK    9  A    between atoms: C11_18  and  C12_19 
REMARK   10  A    between atoms: C11_18  and  C13_20 
REMARK   11  A    between atoms: N4_21  and  C14_22 
REMARK   12  A    between atoms: C14_22  and  C15_23 
REMARK   13  A    between atoms: C14_22  and  C16_25 
REMARK       I    between atoms: C15_23  and  N6_40 
REMARK   14  A    between atoms: C16_25  and  C17_26 
REMARK   15  A    between atoms: C17_26  and  C18_27 
REMARK   16  A    between atoms: C17_26  and  C19_28 
REMARK   17  A    between atoms: C20_29  and  C21_30 
REMARK   18  A    between atoms: C20_29  and  C24_33 
REMARK   19  A    between atoms: C20_29  and  N6_40 
REMARK   20  A    between atoms: C21_30  and  C22_31 
REMARK   21  A    between atoms: C22_31  and  C23_32 
REMARK   22  A    between atoms: C23_32  and  O8_43 
REMARK   23  A    between atoms: C24_33  and  C25_34 
REMARK   24  A    between atoms: C28_38  and  O6_39 
REMARK   25  A    between atoms: C29_42  and  O8_43 
REMARK   26  A    between atoms: C29_42  and  C35_49 
ROOT
ATOM      1  C14 non d ame     -36.230  13.440  26.115  0.00  0.00     0.089 C 
ATOM      2  H20 non d ame     -37.058  13.305  26.811  0.00  0.00     0.087 H 
ENDROOT
BRANCH   1   3
ATOM      3  N4  non d ame     -35.918  14.861  26.073  0.00  0.00    -0.346 N 
ATOM      4  C10 non d ame     -36.950  15.879  26.486  0.00  0.00     0.241 C 
ATOM      5  O4  non d ame     -38.026  15.532  26.847  0.00  0.00    -0.271 OA
ATOM      6  H19 non d ame     -34.998  15.136  25.761  0.00  0.00     0.163 HD
BRANCH   4   7
ATOM      7  C9  non d ame     -36.609  17.346  26.441  0.00  0.00     0.092 C 
ATOM      8  H11 non d ame     -36.849  17.800  27.402  0.00  0.00     0.088 H 
BRANCH   7   9
ATOM      9  N3  non d ame     -35.166  17.506  26.234  0.00  0.00    -0.346 N 
ATOM     10  C7  non d ame     -34.300  17.747  27.361  0.00  0.00     0.240 C 
ATOM     11  O3  non d ame     -34.746  17.816  28.441  0.00  0.00    -0.271 OA
ATOM     12  H10 non d ame     -34.767  17.451  25.308  0.00  0.00     0.163 HD
BRANCH  10  13
ATOM     13  C6  non d ame     -32.766  17.921  27.135  0.00  0.00     0.086 C 
ATOM     14  H6  non d ame     -32.168  17.401  27.883  0.00  0.00     0.086 H 
BRANCH  13  15
ATOM     15  N2  non d ame     -32.411  17.347  25.848  0.00  0.00    -0.343 N 
ATOM     16  C5  non d ame     -31.820  16.008  25.792  0.00  0.00     0.273 C 
ATOM     17  O2  non d ame     -31.632  15.401  26.789  0.00  0.00    -0.266 OA
ATOM     18  H5  non d ame     -32.572  17.874  25.001  0.00  0.00     0.163 HD
BRANCH  16  19
ATOM     19  C4  non d ame     -31.441  15.390  24.437  0.00  0.00     0.154 A 
ATOM     20  C1  non d ame     -31.354  16.058  23.176  0.00  0.00    -0.017 A 
ATOM     21  C2  non d ame     -30.973  15.054  22.258  0.00  0.00     0.077 A 
ATOM     22  H1  non d ame     -31.540  17.111  22.959  0.00  0.00     0.091 H 
ATOM     23  O1  non d ame     -30.855  13.944  22.925  0.00  0.00    -0.218 OA
ATOM     24  N1  non d ame     -31.123  14.115  24.199  0.00  0.00    -0.123 NA
BRANCH  21  25
ATOM     25  C3  non d ame     -30.740  15.239  20.765  0.00  0.00    -0.029 C 
ATOM     26  H2  non d ame     -29.918  14.600  20.443  0.00  0.00     0.036 H 
ATOM     27  H3  non d ame     -31.644  14.967  20.219  0.00  0.00     0.036 H 
ATOM     28  H4  non d ame     -30.492  16.280  20.560  0.00  0.00     0.036 H 
ENDBRANCH  21  25
ENDBRANCH  16  19
ENDBRANCH  13  15
BRANCH  13  29
ATOM     29  C8  non d ame     -32.413  19.386  27.163  0.00  0.00    -0.049 C 
ATOM     30  H7  non d ame     -33.146  19.925  27.762  0.00  0.00     0.030 H 
ATOM     31  H8  non d ame     -31.423  19.514  27.601  0.00  0.00     0.030 H 
ATOM     32  H9  non d ame     -32.415  19.780  26.146  0.00  0.00     0.030 H 
ENDBRANCH  13  29
ENDBRANCH  10  13
ENDBRANCH   7   9
BRANCH   7  33
ATOM     33  C11 non d ame     -37.376  18.020  25.266  0.00  0.00    -0.033 C 
ATOM     34  H12 non d ame     -38.401  18.188  25.595  0.00  0.00     0.042 H 
BRANCH  33  35
ATOM     35  C12 non d ame     -36.764  19.412  24.913  0.00  0.00    -0.071 C 
ATOM     36  H13 non d ame     -36.256  19.352  23.950  0.00  0.00     0.028 H 
ATOM     37  H14 non d ame     -37.558  20.156  24.859  0.00  0.00     0.028 H 
ATOM     38  H15 non d ame     -36.047  19.699  25.682  0.00  0.00     0.028 H 
ENDBRANCH  33  35
BRANCH  33  39
ATOM     39  C13 non d ame     -37.417  17.085  24.015  0.00  0.00    -0.071 C 
ATOM     40  H16 non d ame     -38.218  16.355  24.133  0.00  0.00     0.028 H 
ATOM     41  H17 non d ame     -37.597  17.682  23.120  0.00  0.00     0.028 H 
ATOM     42  H18 non d ame     -36.464  16.566  23.918  0.00  0.00     0.028 H 
ENDBRANCH  33  39
ENDBRANCH   7  33
ENDBRANCH   4   7
ENDBRANCH   1   3
BRANCH   1  43
ATOM     43  C15 non d ame     -34.956  12.666  26.563  0.00  0.00     0.240 C 
ATOM     44  O5  non d ame     -33.895  12.970  26.123  0.00  0.00    -0.271 OA
ATOM     45  N6  non d ame     -35.058  11.553  27.548  0.00  0.00    -0.355 N 
ATOM     46  H46 non d ame     -35.954  11.288  27.933  0.00  0.00     0.162 HD
BRANCH  45  47
ATOM     47  C20 non d ame     -33.838  10.828  27.964  0.00  0.00     0.013 C 
ATOM     48  H30 non d ame     -32.993  11.260  27.427  0.00  0.00     0.072 H 
BRANCH  47  49
ATOM     49  C21 non d ame     -33.981   9.365  27.613  0.00  0.00    -0.038 C 
ATOM     50  H31 non d ame     -33.364   9.213  26.727  0.00  0.00     0.036 H 
ATOM     51  H32 non d ame     -33.760   8.819  28.531  0.00  0.00     0.036 H 
BRANCH  49  52
ATOM     52  C22 non d ame     -35.423   8.982  27.213  0.00  0.00     0.018 C 
ATOM     53  H33 non d ame     -35.883   9.902  26.855  0.00  0.00     0.048 H 
ATOM     54  H34 non d ame     -35.326   8.125  26.547  0.00  0.00     0.048 H 
BRANCH  52  55
ATOM     55  C23 non d ame     -36.296   8.501  28.405  0.00  0.00     0.259 C 
ATOM     56  O7  non d ame     -36.661   9.271  29.234  0.00  0.00    -0.265 OA
BRANCH  55  57
ATOM     57  O8  non d ame     -36.644   7.125  28.504  0.00  0.00    -0.317 OA
BRANCH  57  58
ATOM     58  C29 non d ame     -36.762   6.649  29.848  0.00  0.00     0.052 C 
ATOM     59  H47 non d ame     -36.747   7.538  30.478  0.00  0.00     0.082 H 
ATOM     60  H48 non d ame     -37.631   5.991  29.852  0.00  0.00     0.082 H 
BRANCH  58  61
ATOM     61  C35 non d ame     -35.503   5.799  30.167  0.00  0.00    -0.034 A 
ATOM     62  C30 non d ame     -35.179   5.504  31.488  0.00  0.00    -0.075 A 
ATOM     63  C31 non d ame     -34.047   4.742  31.775  0.00  0.00    -0.082 A 
ATOM     64  H49 non d ame     -35.810   5.871  32.297  0.00  0.00     0.084 H 
ATOM     65  C32 non d ame     -33.238   4.275  30.735  0.00  0.00    -0.083 A 
ATOM     66  H50 non d ame     -33.797   4.510  32.811  0.00  0.00     0.083 H 
ATOM     67  C33 non d ame     -33.564   4.575  29.420  0.00  0.00    -0.082 A 
ATOM     68  H51 non d ame     -32.352   3.677  30.951  0.00  0.00     0.083 H 
ATOM     69  C34 non d ame     -34.694   5.336  29.128  0.00  0.00    -0.075 A 
ATOM     70  H52 non d ame     -32.929   4.212  28.611  0.00  0.00     0.083 H 
ATOM     71  H53 non d ame     -34.945   5.566  28.092  0.00  0.00     0.084 H 
ENDBRANCH  58  61
ENDBRANCH  57  58
ENDBRANCH  55  57
ENDBRANCH  52  55
ENDBRANCH  49  52
ENDBRANCH  47  49
BRANCH  47  72
ATOM     72  C24 non d ame     -33.639  10.975  29.471  0.00  0.00    -0.039 C 
ATOM     73  H35 non d ame     -34.636  11.140  29.880  0.00  0.00     0.036 H 
ATOM     74  H36 non d ame     -33.064  10.100  29.775  0.00  0.00     0.036 H 
BRANCH  72  75
ATOM     75  C25 non d ame     -32.761  12.266  29.831  0.00  0.00    -0.001 C 
ATOM     76  C26 non d ame     -31.497  12.391  28.786  0.00  0.00    -0.035 C 
ATOM     77  C27 non d ame     -30.354  12.535  29.499  0.00  0.00     0.085 C 
ATOM     78  H38 non d ame     -31.352  11.449  28.259  0.00  0.00     0.036 H 
ATOM     79  H39 non d ame     -31.566  13.324  28.225  0.00  0.00     0.036 H 
ATOM     80  N5  non d ame     -30.682  12.191  30.932  0.00  0.00    -0.049 N 
ATOM     81  H40 non d ame     -29.667  11.788  29.101  0.00  0.00     0.075 H 
ATOM     82  H41 non d ame     -30.103  13.593  29.436  0.00  0.00     0.075 H 
ATOM     83  C28 non d ame     -32.293  12.192  31.032  0.00  0.00     0.193 C 
ATOM     84  H42 non d ame     -30.351  11.249  31.083  0.00  0.00     0.280 HD
ATOM     85  H43 non d ame     -30.323  12.948  31.496  0.00  0.00     0.280 HD
ATOM     86  H44 non d ame     -32.817  13.026  31.500  0.00  0.00     0.129 H 
ATOM     87  H37 non d ame     -33.374  13.154  29.977  0.00  0.00     0.046 H 
BRANCH  83  88
ATOM     88  O6  non d ame     -32.746  11.023  31.717  0.00  0.00    -0.369 OA
ATOM     89  H45 non d ame     -32.355  10.994  32.594  0.00  0.00     0.212 HD
ENDBRANCH  83  88
ENDBRANCH  72  75
ENDBRANCH  47  72
ENDBRANCH  45  47
ENDBRANCH   1  43
BRANCH   1  90
ATOM     90  C16 non d ame     -36.645  12.981  24.726  0.00  0.00    -0.035 C 
ATOM     91  H21 non d ame     -36.540  13.857  24.089  0.00  0.00     0.037 H 
ATOM     92  H22 non d ame     -36.051  12.088  24.529  0.00  0.00     0.037 H 
BRANCH  90  93
ATOM     93  C17 non d ame     -38.142  12.545  24.633  0.00  0.00    -0.059 C 
ATOM     94  H23 non d ame     -38.537  12.500  25.647  0.00  0.00     0.038 H 
BRANCH  93  95
ATOM     95  C18 non d ame     -39.005  13.571  23.831  0.00  0.00    -0.073 C 
ATOM     96  H24 non d ame     -40.060  13.421  24.065  0.00  0.00     0.028 H 
ATOM     97  H25 non d ame     -38.714  14.584  24.107  0.00  0.00     0.028 H 
ATOM     98  H26 non d ame     -38.846  13.424  22.763  0.00  0.00     0.028 H 
ENDBRANCH  93  95
BRANCH  93  99
ATOM     99  C19 non d ame     -38.267  11.142  24.032  0.00  0.00    -0.073 C 
ATOM    100  H27 non d ame     -39.320  10.914  23.858  0.00  0.00     0.028 H 
ATOM    101  H28 non d ame     -37.726  11.101  23.087  0.00  0.00     0.028 H 
ATOM    102  H29 non d ame     -37.847  10.412  24.724  0.00  0.00     0.028 H 
ENDBRANCH  93  99
ENDBRANCH  90  93
ENDBRANCH   1  90
TORSDOF 26
ENDMDL
MODEL 15
REMARK VINA RESULT:      -6.0      2.937      6.955
REMARK  26 active torsions:
REMARK  status: ('A' for Active; 'I' for Inactive)
REMARK    1  A    between atoms: C2_2  and  C3_3 
REMARK    2  A    between atoms: C4_6  and  C5_7 
REMARK       I    between atoms: C5_7  and  N2_9 
REMARK    3  A    between atoms: N2_9  and  C6_10 
REMARK    4  A    between atoms: C6_10  and  C7_11 
REMARK    5  A    between atoms: C6_10  and  C8_13 
REMARK       I    between atoms: C7_11  and  N3_14 
REMARK    6  A    between atoms: N3_14  and  C9_15 
REMARK    7  A    between atoms: C9_15  and  C10_16 
REMARK    8  A    between atoms: C9_15  and  C11_18 
REMARK       I    between atoms: C10_16  and  N4_21 
REMARK    9  A    between atoms: C11_18  and  C12_19 
REMARK   10  A    between atoms: C11_18  and  C13_20 
REMARK   11  A    between atoms: N4_21  and  C14_22 
REMARK   12  A    between atoms: C14_22  and  C15_23 
REMARK   13  A    between atoms: C14_22  and  C16_25 
REMARK       I    between atoms: C15_23  and  N6_40 
REMARK   14  A    between atoms: C16_25  and  C17_26 
REMARK   15  A    between atoms: C17_26  and  C18_27 
REMARK   16  A    between atoms: C17_26  and  C19_28 
REMARK   17  A    between atoms: C20_29  and  C21_30 
REMARK   18  A    between atoms: C20_29  and  C24_33 
REMARK   19  A    between atoms: C20_29  and  N6_40 
REMARK   20  A    between atoms: C21_30  and  C22_31 
REMARK   21  A    between atoms: C22_31  and  C23_32 
REMARK   22  A    between atoms: C23_32  and  O8_43 
REMARK   23  A    between atoms: C24_33  and  C25_34 
REMARK   24  A    between atoms: C28_38  and  O6_39 
REMARK   25  A    between atoms: C29_42  and  O8_43 
REMARK   26  A    between atoms: C29_42  and  C35_49 
ROOT
ATOM      1  C14 non d ame     -32.151   8.956  24.590  0.00  0.00     0.089 C 
ATOM      2  H20 non d ame     -31.249   8.352  24.691  0.00  0.00     0.087 H 
ENDROOT
BRANCH   1   3
ATOM      3  N4  non d ame     -33.278   8.137  25.012  0.00  0.00    -0.346 N 
ATOM      4  C10 non d ame     -33.059   6.715  25.462  0.00  0.00     0.241 C 
ATOM      5  O4  non d ame     -31.967   6.250  25.474  0.00  0.00    -0.271 OA
ATOM      6  H19 non d ame     -34.199   8.550  24.992  0.00  0.00     0.163 HD
BRANCH   4   7
ATOM      7  C9  non d ame     -34.236   5.883  25.900  0.00  0.00     0.092 C 
ATOM      8  H11 non d ame     -33.875   5.003  26.432  0.00  0.00     0.088 H 
BRANCH   7   9
ATOM      9  N3  non d ame     -35.056   6.652  26.841  0.00  0.00    -0.346 N 
ATOM     10  C7  non d ame     -35.387   6.096  28.129  0.00  0.00     0.240 C 
ATOM     11  O3  non d ame     -35.003   5.031  28.425  0.00  0.00    -0.271 OA
ATOM     12  H10 non d ame     -35.396   7.572  26.598  0.00  0.00     0.163 HD
BRANCH  10  13
ATOM     13  C6  non d ame     -36.263   6.918  29.125  0.00  0.00     0.086 C 
ATOM     14  H6  non d ame     -36.373   6.428  30.092  0.00  0.00     0.086 H 
BRANCH  13  15
ATOM     15  N2  non d ame     -35.618   8.195  29.378  0.00  0.00    -0.343 N 
ATOM     16  C5  non d ame     -34.836   8.379  30.602  0.00  0.00     0.273 C 
ATOM     17  O2  non d ame     -34.735   7.495  31.380  0.00  0.00    -0.266 OA
ATOM     18  H5  non d ame     -35.712   8.946  28.709  0.00  0.00     0.163 HD
BRANCH  16  19
ATOM     19  C4  non d ame     -34.148   9.725  30.881  0.00  0.00     0.154 A 
ATOM     20  C1  non d ame     -33.024  10.281  30.192  0.00  0.00    -0.017 A 
ATOM     21  C2  non d ame     -32.785  11.520  30.827  0.00  0.00     0.077 A 
ATOM     22  H1  non d ame     -32.468   9.851  29.359  0.00  0.00     0.091 H 
ATOM     23  O1  non d ame     -33.674  11.651  31.767  0.00  0.00    -0.218 OA
ATOM     24  N1  non d ame     -34.481  10.616  31.819  0.00  0.00    -0.123 NA
BRANCH  21  25
ATOM     25  C3  non d ame     -31.691  12.517  30.474  0.00  0.00    -0.029 C 
ATOM     26  H2  non d ame     -31.898  12.955  29.498  0.00  0.00     0.036 H 
ATOM     27  H3  non d ame     -31.662  13.307  31.225  0.00  0.00     0.036 H 
ATOM     28  H4  non d ame     -30.728  12.008  30.447  0.00  0.00     0.036 H 
ENDBRANCH  21  25
ENDBRANCH  16  19
ENDBRANCH  13  15
BRANCH  13  29
ATOM     29  C8  non d ame     -37.631   7.138  28.532  0.00  0.00    -0.049 C 
ATOM     30  H7  non d ame     -37.540   7.309  27.460  0.00  0.00     0.030 H 
ATOM     31  H8  non d ame     -38.249   6.257  28.707  0.00  0.00     0.030 H 
ATOM     32  H9  non d ame     -38.095   8.006  29.001  0.00  0.00     0.030 H 
ENDBRANCH  13  29
ENDBRANCH  10  13
ENDBRANCH   7   9
BRANCH   7  33
ATOM     33  C11 non d ame     -35.094   5.505  24.657  0.00  0.00    -0.033 C 
ATOM     34  H12 non d ame     -34.569   5.866  23.773  0.00  0.00     0.042 H 
BRANCH  33  35
ATOM     35  C12 non d ame     -35.240   3.958  24.517  0.00  0.00    -0.071 C 
ATOM     36  H13 non d ame     -34.265   3.488  24.644  0.00  0.00     0.028 H 
ATOM     37  H14 non d ame     -35.925   3.587  25.279  0.00  0.00     0.028 H 
ATOM     38  H15 non d ame     -35.632   3.718  23.528  0.00  0.00     0.028 H 
ENDBRANCH  33  35
BRANCH  33  39
ATOM     39  C13 non d ame     -36.490   6.204  24.708  0.00  0.00    -0.071 C 
ATOM     40  H16 non d ame     -37.260   5.504  24.382  0.00  0.00     0.028 H 
ATOM     41  H17 non d ame     -36.699   6.525  25.729  0.00  0.00     0.028 H 
ATOM     42  H18 non d ame     -36.487   7.073  24.050  0.00  0.00     0.028 H 
ENDBRANCH  33  39
ENDBRANCH   7  33
ENDBRANCH   4   7
ENDBRANCH   1   3
BRANCH   1  43
ATOM     43  C15 non d ame     -32.105  10.232  25.481  0.00  0.00     0.240 C 
ATOM     44  O5  non d ame     -32.334  10.148  26.644  0.00  0.00    -0.271 OA
ATOM     45  N6  non d ame     -31.766  11.555  24.885  0.00  0.00    -0.355 N 
ATOM     46  H46 non d ame     -31.565  11.638  23.899  0.00  0.00     0.162 HD
BRANCH  45  47
ATOM     47  C20 non d ame     -31.726  12.757  25.746  0.00  0.00     0.013 C 
ATOM     48  H30 non d ame     -31.458  12.439  26.753  0.00  0.00     0.072 H 
BRANCH  47  49
ATOM     49  C21 non d ame     -33.089  13.412  25.755  0.00  0.00    -0.038 C 
ATOM     50  H31 non d ame     -32.928  14.432  25.405  0.00  0.00     0.036 H 
ATOM     51  H32 non d ame     -33.741  12.740  25.197  0.00  0.00     0.036 H 
BRANCH  49  52
ATOM     52  C22 non d ame     -33.689  13.525  27.174  0.00  0.00     0.018 C 
ATOM     53  H33 non d ame     -34.209  12.585  27.350  0.00  0.00     0.048 H 
ATOM     54  H34 non d ame     -32.863  13.822  27.820  0.00  0.00     0.048 H 
BRANCH  52  55
ATOM     55  C23 non d ame     -34.762  14.641  27.311  0.00  0.00     0.259 C 
ATOM     56  O7  non d ame     -35.839  14.505  26.825  0.00  0.00    -0.265 OA
BRANCH  55  57
ATOM     57  O8  non d ame     -34.441  15.835  28.015  0.00  0.00    -0.317 OA
BRANCH  57  58
ATOM     58  C29 non d ame     -33.067  16.220  27.911  0.00  0.00     0.052 C 
ATOM     59  H47 non d ame     -32.674  16.187  28.926  0.00  0.00     0.082 H 
ATOM     60  H48 non d ame     -32.639  15.582  27.139  0.00  0.00     0.082 H 
BRANCH  58  61
ATOM     61  C35 non d ame     -33.019  17.690  27.413  0.00  0.00    -0.034 A 
ATOM     62  C30 non d ame     -32.623  18.705  28.278  0.00  0.00    -0.075 A 
ATOM     63  C31 non d ame     -32.580  20.025  27.831  0.00  0.00    -0.082 A 
ATOM     64  H49 non d ame     -32.347  18.468  29.305  0.00  0.00     0.084 H 
ATOM     65  C32 non d ame     -32.936  20.328  26.514  0.00  0.00    -0.083 A 
ATOM     66  H50 non d ame     -32.267  20.819  28.511  0.00  0.00     0.083 H 
ATOM     67  C33 non d ame     -33.334  19.312  25.656  0.00  0.00    -0.082 A 
ATOM     68  H51 non d ame     -32.905  21.358  26.157  0.00  0.00     0.083 H 
ATOM     69  C34 non d ame     -33.377  17.992  26.098  0.00  0.00    -0.075 A 
ATOM     70  H52 non d ame     -33.615  19.552  24.630  0.00  0.00     0.083 H 
ATOM     71  H53 non d ame     -33.689  17.199  25.418  0.00  0.00     0.084 H 
ENDBRANCH  58  61
ENDBRANCH  57  58
ENDBRANCH  55  57
ENDBRANCH  52  55
ENDBRANCH  49  52
ENDBRANCH  47  49
BRANCH  47  72
ATOM     72  C24 non d ame     -30.690  13.742  25.208  0.00  0.00    -0.039 C 
ATOM     73  H35 non d ame     -30.745  14.609  25.868  0.00  0.00     0.036 H 
ATOM     74  H36 non d ame     -29.763  13.175  25.130  0.00  0.00     0.036 H 
BRANCH  72  75
ATOM     75  C25 non d ame     -31.061  14.247  23.734  0.00  0.00    -0.001 C 
ATOM     76  C26 non d ame     -30.014  13.603  22.642  0.00  0.00    -0.035 C 
ATOM     77  C27 non d ame     -29.511  14.602  21.877  0.00  0.00     0.085 C 
ATOM     78  H38 non d ame     -29.136  13.208  23.153  0.00  0.00     0.036 H 
ATOM     79  H39 non d ame     -30.553  12.982  21.927  0.00  0.00     0.036 H 
ATOM     80  N5  non d ame     -29.869  15.902  22.559  0.00  0.00    -0.049 N 
ATOM     81  H40 non d ame     -28.429  14.473  21.902  0.00  0.00     0.075 H 
ATOM     82  H41 non d ame     -30.045  14.540  20.930  0.00  0.00     0.075 H 
ATOM     83  C28 non d ame     -30.999  15.534  23.651  0.00  0.00     0.193 C 
ATOM     84  H42 non d ame     -29.038  16.207  23.045  0.00  0.00     0.280 HD
ATOM     85  H43 non d ame     -30.284  16.490  21.850  0.00  0.00     0.280 HD
ATOM     86  H44 non d ame     -32.047  15.771  23.464  0.00  0.00     0.129 H 
ATOM     87  H37 non d ame     -32.124  14.147  23.519  0.00  0.00     0.046 H 
BRANCH  83  88
ATOM     88  O6  non d ame     -30.687  16.141  24.906  0.00  0.00    -0.369 OA
ATOM     89  H45 non d ame     -30.336  17.022  24.757  0.00  0.00     0.212 HD
ENDBRANCH  83  88
ENDBRANCH  72  75
ENDBRANCH  47  72
ENDBRANCH  45  47
ENDBRANCH   1  43
BRANCH   1  90
ATOM     90  C16 non d ame     -32.344   9.356  23.136  0.00  0.00    -0.035 C 
ATOM     91  H21 non d ame     -33.408   9.235  22.942  0.00  0.00     0.037 H 
ATOM     92  H22 non d ame     -31.880  10.338  23.043  0.00  0.00     0.037 H 
BRANCH  90  93
ATOM     93  C17 non d ame     -31.604   8.420  22.127  0.00  0.00    -0.059 C 
ATOM     94  H23 non d ame     -31.314   9.025  21.268  0.00  0.00     0.038 H 
BRANCH  93  95
ATOM     95  C18 non d ame     -30.304   7.806  22.737  0.00  0.00    -0.073 C 
ATOM     96  H24 non d ame     -29.699   8.599  23.178  0.00  0.00     0.028 H 
ATOM     97  H25 non d ame     -30.570   7.083  23.508  0.00  0.00     0.028 H 
ATOM     98  H26 non d ame     -29.734   7.308  21.953  0.00  0.00     0.028 H 
ENDBRANCH  93  95
BRANCH  93  99
ATOM     99  C19 non d ame     -32.537   7.320  21.615  0.00  0.00    -0.073 C 
ATOM    100  H27 non d ame     -33.418   7.774  21.159  0.00  0.00     0.028 H 
ATOM    101  H28 non d ame     -32.016   6.716  20.873  0.00  0.00     0.028 H 
ATOM    102  H29 non d ame     -32.844   6.688  22.448  0.00  0.00     0.028 H 
ENDBRANCH  93  99
ENDBRANCH  90  93
ENDBRANCH   1  90
TORSDOF 26
ENDMDL
MODEL 16
REMARK VINA RESULT:      -5.9      3.089      7.596
REMARK  26 active torsions:
REMARK  status: ('A' for Active; 'I' for Inactive)
REMARK    1  A    between atoms: C2_2  and  C3_3 
REMARK    2  A    between atoms: C4_6  and  C5_7 
REMARK       I    between atoms: C5_7  and  N2_9 
REMARK    3  A    between atoms: N2_9  and  C6_10 
REMARK    4  A    between atoms: C6_10  and  C7_11 
REMARK    5  A    between atoms: C6_10  and  C8_13 
REMARK       I    between atoms: C7_11  and  N3_14 
REMARK    6  A    between atoms: N3_14  and  C9_15 
REMARK    7  A    between atoms: C9_15  and  C10_16 
REMARK    8  A    between atoms: C9_15  and  C11_18 
REMARK       I    between atoms: C10_16  and  N4_21 
REMARK    9  A    between atoms: C11_18  and  C12_19 
REMARK   10  A    between atoms: C11_18  and  C13_20 
REMARK   11  A    between atoms: N4_21  and  C14_22 
REMARK   12  A    between atoms: C14_22  and  C15_23 
REMARK   13  A    between atoms: C14_22  and  C16_25 
REMARK       I    between atoms: C15_23  and  N6_40 
REMARK   14  A    between atoms: C16_25  and  C17_26 
REMARK   15  A    between atoms: C17_26  and  C18_27 
REMARK   16  A    between atoms: C17_26  and  C19_28 
REMARK   17  A    between atoms: C20_29  and  C21_30 
REMARK   18  A    between atoms: C20_29  and  C24_33 
REMARK   19  A    between atoms: C20_29  and  N6_40 
REMARK   20  A    between atoms: C21_30  and  C22_31 
REMARK   21  A    between atoms: C22_31  and  C23_32 
REMARK   22  A    between atoms: C23_32  and  O8_43 
REMARK   23  A    between atoms: C24_33  and  C25_34 
REMARK   24  A    between atoms: C28_38  and  O6_39 
REMARK   25  A    between atoms: C29_42  and  O8_43 
REMARK   26  A    between atoms: C29_42  and  C35_49 
ROOT
ATOM      1  C14 non d ame     -32.602  10.448  26.723  0.00  0.00     0.089 C 
ATOM      2  H20 non d ame     -33.637  10.577  26.406  0.00  0.00     0.087 H 
ENDROOT
BRANCH   1   3
ATOM      3  N4  non d ame     -32.043   9.344  25.957  0.00  0.00    -0.346 N 
ATOM      4  C10 non d ame     -32.432   9.143  24.515  0.00  0.00     0.241 C 
ATOM      5  O4  non d ame     -33.200   9.882  23.992  0.00  0.00    -0.271 OA
ATOM      6  H19 non d ame     -31.394   8.725  26.422  0.00  0.00     0.163 HD
BRANCH   4   7
ATOM      7  C9  non d ame     -31.841   7.997  23.736  0.00  0.00     0.092 C 
ATOM      8  H11 non d ame     -30.881   7.724  24.174  0.00  0.00     0.088 H 
BRANCH   7   9
ATOM      9  N3  non d ame     -32.717   6.827  23.846  0.00  0.00    -0.346 N 
ATOM     10  C7  non d ame     -32.597   5.942  24.978  0.00  0.00     0.240 C 
ATOM     11  O3  non d ame     -31.801   6.156  25.810  0.00  0.00    -0.271 OA
ATOM     12  H10 non d ame     -33.407   6.629  23.136  0.00  0.00     0.163 HD
BRANCH  10  13
ATOM     13  C6  non d ame     -33.530   4.696  25.089  0.00  0.00     0.086 C 
ATOM     14  H6  non d ame     -32.976   3.761  25.170  0.00  0.00     0.086 H 
BRANCH  13  15
ATOM     15  N2  non d ame     -34.330   4.811  26.296  0.00  0.00    -0.343 N 
ATOM     16  C5  non d ame     -35.121   6.022  26.525  0.00  0.00     0.273 C 
ATOM     17  O2  non d ame     -35.105   6.900  25.733  0.00  0.00    -0.266 OA
ATOM     18  H5  non d ame     -34.336   4.058  26.969  0.00  0.00     0.163 HD
BRANCH  16  19
ATOM     19  C4  non d ame     -35.973   6.156  27.797  0.00  0.00     0.154 A 
ATOM     20  C1  non d ame     -36.917   7.187  28.100  0.00  0.00    -0.017 A 
ATOM     21  C2  non d ame     -37.422   6.853  29.377  0.00  0.00     0.077 A 
ATOM     22  H1  non d ame     -37.194   8.045  27.488  0.00  0.00     0.091 H 
ATOM     23  O1  non d ame     -36.832   5.757  29.753  0.00  0.00    -0.218 OA
ATOM     24  N1  non d ame     -35.981   5.331  28.847  0.00  0.00    -0.123 NA
BRANCH  21  25
ATOM     25  C3  non d ame     -38.467   7.631  30.165  0.00  0.00    -0.029 C 
ATOM     26  H2  non d ame     -39.455   7.216  29.969  0.00  0.00     0.036 H 
ATOM     27  H3  non d ame     -38.249   7.556  31.231  0.00  0.00     0.036 H 
ATOM     28  H4  non d ame     -38.446   8.678  29.863  0.00  0.00     0.036 H 
ENDBRANCH  21  25
ENDBRANCH  16  19
ENDBRANCH  13  15
BRANCH  13  29
ATOM     29  C8  non d ame     -34.426   4.627  23.879  0.00  0.00    -0.049 C 
ATOM     30  H7  non d ame     -35.177   3.852  24.025  0.00  0.00     0.030 H 
ATOM     31  H8  non d ame     -34.921   5.588  23.737  0.00  0.00     0.030 H 
ATOM     32  H9  non d ame     -33.829   4.392  22.997  0.00  0.00     0.030 H 
ENDBRANCH  13  29
ENDBRANCH  10  13
ENDBRANCH   7   9
BRANCH   7  33
ATOM     33  C11 non d ame     -31.708   8.403  22.239  0.00  0.00    -0.033 C 
ATOM     34  H12 non d ame     -32.307   9.301  22.087  0.00  0.00     0.042 H 
BRANCH  33  35
ATOM     35  C12 non d ame     -30.233   8.757  21.875  0.00  0.00    -0.071 C 
ATOM     36  H13 non d ame     -29.556   8.097  22.419  0.00  0.00     0.028 H 
ATOM     37  H14 non d ame     -30.081   8.629  20.803  0.00  0.00     0.028 H 
ATOM     38  H15 non d ame     -30.028   9.791  22.151  0.00  0.00     0.028 H 
ENDBRANCH  33  35
BRANCH  33  39
ATOM     39  C13 non d ame     -32.270   7.285  21.304  0.00  0.00    -0.071 C 
ATOM     40  H16 non d ame     -33.332   7.457  21.129  0.00  0.00     0.028 H 
ATOM     41  H17 non d ame     -31.736   7.302  20.353  0.00  0.00     0.028 H 
ATOM     42  H18 non d ame     -32.134   6.313  21.778  0.00  0.00     0.028 H 
ENDBRANCH  33  39
ENDBRANCH   7  33
ENDBRANCH   4   7
ENDBRANCH   1   3
BRANCH   1  43
ATOM     43  C15 non d ame     -31.744  11.719  26.458  0.00  0.00     0.240 C 
ATOM     44  O5  non d ame     -30.937  12.065  27.259  0.00  0.00    -0.271 OA
ATOM     45  N6  non d ame     -31.920  12.498  25.200  0.00  0.00    -0.355 N 
ATOM     46  H46 non d ame     -32.599  12.211  24.509  0.00  0.00     0.162 HD
BRANCH  45  47
ATOM     47  C20 non d ame     -31.096  13.703  24.962  0.00  0.00     0.013 C 
ATOM     48  H30 non d ame     -30.215  13.636  25.600  0.00  0.00     0.072 H 
BRANCH  47  49
ATOM     49  C21 non d ame     -31.898  14.935  25.316  0.00  0.00    -0.038 C 
ATOM     50  H31 non d ame     -31.393  15.767  24.823  0.00  0.00     0.036 H 
ATOM     51  H32 non d ame     -32.931  14.697  25.061  0.00  0.00     0.036 H 
BRANCH  49  52
ATOM     52  C22 non d ame     -31.882  15.247  26.828  0.00  0.00     0.018 C 
ATOM     53  H33 non d ame     -31.179  14.541  27.268  0.00  0.00     0.048 H 
ATOM     54  H34 non d ame     -31.699  16.319  26.906  0.00  0.00     0.048 H 
BRANCH  52  55
ATOM     55  C23 non d ame     -33.243  14.994  27.534  0.00  0.00     0.259 C 
ATOM     56  O7  non d ame     -33.896  14.039  27.259  0.00  0.00    -0.265 OA
BRANCH  55  57
ATOM     57  O8  non d ame     -33.708  15.923  28.506  0.00  0.00    -0.317 OA
BRANCH  57  58
ATOM     58  C29 non d ame     -34.760  16.774  28.041  0.00  0.00     0.052 C 
ATOM     59  H47 non d ame     -35.310  16.188  27.305  0.00  0.00     0.082 H 
ATOM     60  H48 non d ame     -35.263  17.137  28.936  0.00  0.00     0.082 H 
BRANCH  58  61
ATOM     61  C35 non d ame     -34.111  17.986  27.320  0.00  0.00    -0.034 A 
ATOM     62  C30 non d ame     -34.367  18.211  25.970  0.00  0.00    -0.075 A 
ATOM     63  C31 non d ame     -33.783  19.299  25.322  0.00  0.00    -0.082 A 
ATOM     64  H49 non d ame     -35.023  17.536  25.421  0.00  0.00     0.084 H 
ATOM     65  C32 non d ame     -32.941  20.162  26.027  0.00  0.00    -0.083 A 
ATOM     66  H50 non d ame     -33.987  19.474  24.264  0.00  0.00     0.083 H 
ATOM     67  C33 non d ame     -32.685  19.931  27.372  0.00  0.00    -0.082 A 
ATOM     68  H51 non d ame     -32.481  21.016  25.527  0.00  0.00     0.083 H 
ATOM     69  C34 non d ame     -33.267  18.846  28.024  0.00  0.00    -0.075 A 
ATOM     70  H52 non d ame     -32.025  20.605  27.919  0.00  0.00     0.083 H 
ATOM     71  H53 non d ame     -33.064  18.672  29.081  0.00  0.00     0.084 H 
ENDBRANCH  58  61
ENDBRANCH  57  58
ENDBRANCH  55  57
ENDBRANCH  52  55
ENDBRANCH  49  52
ENDBRANCH  47  49
BRANCH  47  72
ATOM     72  C24 non d ame     -30.685  13.766  23.493  0.00  0.00    -0.039 C 
ATOM     73  H35 non d ame     -29.780  13.161  23.420  0.00  0.00     0.036 H 
ATOM     74  H36 non d ame     -31.575  13.484  22.930  0.00  0.00     0.036 H 
BRANCH  72  75
ATOM     75  C25 non d ame     -30.296  15.255  23.049  0.00  0.00    -0.001 C 
ATOM     76  C26 non d ame     -31.379  15.810  21.944  0.00  0.00    -0.035 C 
ATOM     77  C27 non d ame     -30.703  16.284  20.870  0.00  0.00     0.085 C 
ATOM     78  H38 non d ame     -31.956  14.981  21.535  0.00  0.00     0.036 H 
ATOM     79  H39 non d ame     -31.891  16.692  22.331  0.00  0.00     0.036 H 
ATOM     80  N5  non d ame     -29.276  15.805  21.000  0.00  0.00    -0.049 N 
ATOM     81  H40 non d ame     -31.161  15.807  20.003  0.00  0.00     0.075 H 
ATOM     82  H41 non d ame     -30.723  17.369  20.968  0.00  0.00     0.075 H 
ATOM     83  C28 non d ame     -29.118  15.292  22.522  0.00  0.00     0.193 C 
ATOM     84  H42 non d ame     -29.184  15.011  20.382  0.00  0.00     0.280 HD
ATOM     85  H43 non d ame     -28.690  16.617  20.870  0.00  0.00     0.280 HD
ATOM     86  H44 non d ame     -28.591  15.901  23.259  0.00  0.00     0.129 H 
ATOM     87  H37 non d ame     -30.085  15.898  23.903  0.00  0.00     0.046 H 
BRANCH  83  88
ATOM     88  O6  non d ame     -28.474  14.017  22.549  0.00  0.00    -0.369 OA
ATOM     89  H45 non d ame     -27.735  14.018  21.935  0.00  0.00     0.212 HD
ENDBRANCH  83  88
ENDBRANCH  72  75
ENDBRANCH  47  72
ENDBRANCH  45  47
ENDBRANCH   1  43
BRANCH   1  90
ATOM     90  C16 non d ame     -32.556  10.101  28.203  0.00  0.00    -0.035 C 
ATOM     91  H21 non d ame     -32.344   9.034  28.242  0.00  0.00     0.037 H 
ATOM     92  H22 non d ame     -31.859  10.813  28.645  0.00  0.00     0.037 H 
BRANCH  90  93
ATOM     93  C17 non d ame     -33.921  10.305  28.935  0.00  0.00    -0.059 C 
ATOM     94  H23 non d ame     -33.813  11.162  29.600  0.00  0.00     0.038 H 
BRANCH  93  95
ATOM     95  C18 non d ame     -35.083  10.618  27.940  0.00  0.00    -0.073 C 
ATOM     96  H24 non d ame     -34.727  11.295  27.165  0.00  0.00     0.028 H 
ATOM     97  H25 non d ame     -35.428   9.691  27.481  0.00  0.00     0.028 H 
ATOM     98  H26 non d ame     -35.908  11.084  28.479  0.00  0.00     0.028 H 
ENDBRANCH  93  95
BRANCH  93  99
ATOM     99  C19 non d ame     -34.261   9.093  29.806  0.00  0.00    -0.073 C 
ATOM    100  H27 non d ame     -33.630   9.097  30.696  0.00  0.00     0.028 H 
ATOM    101  H28 non d ame     -35.308   9.141  30.105  0.00  0.00     0.028 H 
ATOM    102  H29 non d ame     -34.086   8.178  29.240  0.00  0.00     0.028 H 
ENDBRANCH  93  99
ENDBRANCH  90  93
ENDBRANCH   1  90
TORSDOF 26
ENDMDL
MODEL 17
REMARK VINA RESULT:      -5.9      2.973      7.660
REMARK  26 active torsions:
REMARK  status: ('A' for Active; 'I' for Inactive)
REMARK    1  A    between atoms: C2_2  and  C3_3 
REMARK    2  A    between atoms: C4_6  and  C5_7 
REMARK       I    between atoms: C5_7  and  N2_9 
REMARK    3  A    between atoms: N2_9  and  C6_10 
REMARK    4  A    between atoms: C6_10  and  C7_11 
REMARK    5  A    between atoms: C6_10  and  C8_13 
REMARK       I    between atoms: C7_11  and  N3_14 
REMARK    6  A    between atoms: N3_14  and  C9_15 
REMARK    7  A    between atoms: C9_15  and  C10_16 
REMARK    8  A    between atoms: C9_15  and  C11_18 
REMARK       I    between atoms: C10_16  and  N4_21 
REMARK    9  A    between atoms: C11_18  and  C12_19 
REMARK   10  A    between atoms: C11_18  and  C13_20 
REMARK   11  A    between atoms: N4_21  and  C14_22 
REMARK   12  A    between atoms: C14_22  and  C15_23 
REMARK   13  A    between atoms: C14_22  and  C16_25 
REMARK       I    between atoms: C15_23  and  N6_40 
REMARK   14  A    between atoms: C16_25  and  C17_26 
REMARK   15  A    between atoms: C17_26  and  C18_27 
REMARK   16  A    between atoms: C17_26  and  C19_28 
REMARK   17  A    between atoms: C20_29  and  C21_30 
REMARK   18  A    between atoms: C20_29  and  C24_33 
REMARK   19  A    between atoms: C20_29  and  N6_40 
REMARK   20  A    between atoms: C21_30  and  C22_31 
REMARK   21  A    between atoms: C22_31  and  C23_32 
REMARK   22  A    between atoms: C23_32  and  O8_43 
REMARK   23  A    between atoms: C24_33  and  C25_34 
REMARK   24  A    between atoms: C28_38  and  O6_39 
REMARK   25  A    between atoms: C29_42  and  O8_43 
REMARK   26  A    between atoms: C29_42  and  C35_49 
ROOT
ATOM      1  C14 non d ame     -33.156  15.652  26.664  0.00  0.00     0.089 C 
ATOM      2  H20 non d ame     -34.241  15.717  26.749  0.00  0.00     0.087 H 
ENDROOT
BRANCH   1   3
ATOM      3  N4  non d ame     -32.687  14.761  27.715  0.00  0.00    -0.346 N 
ATOM      4  C10 non d ame     -33.439  13.494  28.032  0.00  0.00     0.241 C 
ATOM      5  O4  non d ame     -34.422  13.212  27.429  0.00  0.00    -0.271 OA
ATOM      6  H19 non d ame     -31.850  15.020  28.218  0.00  0.00     0.163 HD
BRANCH   4   7
ATOM      7  C9  non d ame     -32.936  12.581  29.120  0.00  0.00     0.092 C 
ATOM      8  H11 non d ame     -32.970  13.107  30.073  0.00  0.00     0.088 H 
BRANCH   7   9
ATOM      9  N3  non d ame     -33.825  11.420  29.233  0.00  0.00    -0.346 N 
ATOM     10  C7  non d ame     -33.915  10.701  30.480  0.00  0.00     0.240 C 
ATOM     11  O3  non d ame     -33.281  11.043  31.402  0.00  0.00    -0.271 OA
ATOM     12  H10 non d ame     -34.377  11.113  28.445  0.00  0.00     0.163 HD
BRANCH  10  13
ATOM     13  C6  non d ame     -34.860   9.465  30.594  0.00  0.00     0.086 C 
ATOM     14  H6  non d ame     -35.800   9.602  30.060  0.00  0.00     0.086 H 
BRANCH  13  15
ATOM     15  N2  non d ame     -34.206   8.314  29.994  0.00  0.00    -0.343 N 
ATOM     16  C5  non d ame     -34.741   7.744  28.756  0.00  0.00     0.273 C 
ATOM     17  O2  non d ame     -35.700   8.215  28.252  0.00  0.00    -0.266 OA
ATOM     18  H5  non d ame     -33.388   7.915  30.433  0.00  0.00     0.163 HD
BRANCH  16  19
ATOM     19  C4  non d ame     -34.058   6.527  28.111  0.00  0.00     0.154 A 
ATOM     20  C1  non d ame     -34.631   5.237  27.878  0.00  0.00    -0.017 A 
ATOM     21  C2  non d ame     -33.600   4.487  27.268  0.00  0.00     0.077 A 
ATOM     22  H1  non d ame     -35.639   4.897  28.114  0.00  0.00     0.091 H 
ATOM     23  O1  non d ame     -32.563   5.265  27.166  0.00  0.00    -0.218 OA
ATOM     24  N1  non d ame     -32.806   6.461  27.652  0.00  0.00    -0.123 NA
BRANCH  21  25
ATOM     25  C3  non d ame     -33.689   3.037  26.813  0.00  0.00    -0.029 C 
ATOM     26  H2  non d ame     -33.070   2.415  27.458  0.00  0.00     0.036 H 
ATOM     27  H3  non d ame     -34.724   2.700  26.870  0.00  0.00     0.036 H 
ATOM     28  H4  non d ame     -33.338   2.956  25.784  0.00  0.00     0.036 H 
ENDBRANCH  21  25
ENDBRANCH  16  19
ENDBRANCH  13  15
BRANCH  13  29
ATOM     29  C8  non d ame     -35.160   9.191  32.045  0.00  0.00    -0.049 C 
ATOM     30  H7  non d ame     -36.204   8.900  32.153  0.00  0.00     0.030 H 
ATOM     31  H8  non d ame     -34.521   8.384  32.403  0.00  0.00     0.030 H 
ATOM     32  H9  non d ame     -34.972  10.091  32.632  0.00  0.00     0.030 H 
ENDBRANCH  13  29
ENDBRANCH  10  13
ENDBRANCH   7   9
BRANCH   7  33
ATOM     33  C11 non d ame     -31.499  12.097  28.767  0.00  0.00    -0.033 C 
ATOM     34  H12 non d ame     -31.207  11.360  29.514  0.00  0.00     0.042 H 
BRANCH  33  35
ATOM     35  C12 non d ame     -31.462  11.394  27.374  0.00  0.00    -0.071 C 
ATOM     36  H13 non d ame     -32.440  11.479  26.899  0.00  0.00     0.028 H 
ATOM     37  H14 non d ame     -30.710  11.869  26.746  0.00  0.00     0.028 H 
ATOM     38  H15 non d ame     -31.214  10.340  27.506  0.00  0.00     0.028 H 
ENDBRANCH  33  35
BRANCH  33  39
ATOM     39  C13 non d ame     -30.480  13.279  28.831  0.00  0.00    -0.071 C 
ATOM     40  H16 non d ame     -31.019  14.226  28.799  0.00  0.00     0.028 H 
ATOM     41  H17 non d ame     -29.908  13.217  29.758  0.00  0.00     0.028 H 
ATOM     42  H18 non d ame     -29.799  13.220  27.982  0.00  0.00     0.028 H 
ENDBRANCH  33  39
ENDBRANCH   7  33
ENDBRANCH   4   7
ENDBRANCH   1   3
BRANCH   1  43
ATOM     43  C15 non d ame     -32.709  15.075  25.290  0.00  0.00     0.240 C 
ATOM     44  O5  non d ame     -33.251  15.432  24.294  0.00  0.00    -0.271 OA
ATOM     45  N6  non d ame     -31.598  14.085  25.213  0.00  0.00    -0.355 N 
ATOM     46  H46 non d ame     -31.126  13.777  26.052  0.00  0.00     0.162 HD
BRANCH  45  47
ATOM     47  C20 non d ame     -31.185  13.547  23.899  0.00  0.00     0.013 C 
ATOM     48  H30 non d ame     -31.949  13.818  23.171  0.00  0.00     0.072 H 
BRANCH  47  49
ATOM     49  C21 non d ame     -31.065  12.042  23.989  0.00  0.00    -0.038 C 
ATOM     50  H31 non d ame     -30.463  11.847  24.877  0.00  0.00     0.036 H 
ATOM     51  H32 non d ame     -32.086  11.663  23.928  0.00  0.00     0.036 H 
BRANCH  49  52
ATOM     52  C22 non d ame     -30.299  11.429  22.796  0.00  0.00     0.018 C 
ATOM     53  H33 non d ame     -30.840  11.744  21.905  0.00  0.00     0.048 H 
ATOM     54  H34 non d ame     -29.258  11.721  22.935  0.00  0.00     0.048 H 
BRANCH  52  55
ATOM     55  C23 non d ame     -30.310   9.876  22.778  0.00  0.00     0.259 C 
ATOM     56  O7  non d ame     -29.503   9.275  22.145  0.00  0.00    -0.265 OA
BRANCH  55  57
ATOM     57  O8  non d ame     -31.307   9.177  23.515  0.00  0.00    -0.317 OA
BRANCH  57  58
ATOM     58  C29 non d ame     -31.137   7.756  23.522  0.00  0.00     0.052 C 
ATOM     59  H47 non d ame     -30.813   7.493  22.515  0.00  0.00     0.082 H 
ATOM     60  H48 non d ame     -30.496   7.540  24.376  0.00  0.00     0.082 H 
BRANCH  58  61
ATOM     61  C35 non d ame     -32.526   7.110  23.776  0.00  0.00    -0.034 A 
ATOM     62  C30 non d ame     -33.535   7.847  24.388  0.00  0.00    -0.075 A 
ATOM     63  C31 non d ame     -34.782   7.267  24.616  0.00  0.00    -0.082 A 
ATOM     64  H49 non d ame     -33.349   8.878  24.689  0.00  0.00     0.084 H 
ATOM     65  C32 non d ame     -35.017   5.944  24.232  0.00  0.00    -0.083 A 
ATOM     66  H50 non d ame     -35.572   7.848  25.095  0.00  0.00     0.083 H 
ATOM     67  C33 non d ame     -34.006   5.212  23.625  0.00  0.00    -0.082 A 
ATOM     68  H51 non d ame     -35.990   5.483  24.406  0.00  0.00     0.083 H 
ATOM     69  C34 non d ame     -32.759   5.788  23.393  0.00  0.00    -0.075 A 
ATOM     70  H52 non d ame     -34.192   4.179  23.328  0.00  0.00     0.083 H 
ATOM     71  H53 non d ame     -31.970   5.208  22.915  0.00  0.00     0.084 H 
ENDBRANCH  58  61
ENDBRANCH  57  58
ENDBRANCH  55  57
ENDBRANCH  52  55
ENDBRANCH  49  52
ENDBRANCH  47  49
BRANCH  47  72
ATOM     72  C24 non d ame     -29.837  14.143  23.499  0.00  0.00    -0.039 C 
ATOM     73  H35 non d ame     -29.332  14.375  24.437  0.00  0.00     0.036 H 
ATOM     74  H36 non d ame     -29.396  13.425  22.807  0.00  0.00     0.036 H 
BRANCH  72  75
ATOM     75  C25 non d ame     -30.011  15.521  22.702  0.00  0.00    -0.001 C 
ATOM     76  C26 non d ame     -31.181  15.362  21.558  0.00  0.00    -0.035 C 
ATOM     77  C27 non d ame     -30.691  15.786  20.368  0.00  0.00     0.085 C 
ATOM     78  H38 non d ame     -31.395  14.308  21.385  0.00  0.00     0.036 H 
ATOM     79  H39 non d ame     -31.998  16.058  21.758  0.00  0.00     0.036 H 
ATOM     80  N5  non d ame     -29.194  15.910  20.529  0.00  0.00    -0.049 N 
ATOM     81  H40 non d ame     -30.908  14.984  19.662  0.00  0.00     0.075 H 
ATOM     82  H41 non d ame     -31.115  16.777  20.215  0.00  0.00     0.075 H 
ATOM     83  C28 non d ame     -28.912  15.865  22.117  0.00  0.00     0.193 C 
ATOM     84  H42 non d ame     -28.792  15.085  20.107  0.00  0.00     0.280 HD
ATOM     85  H43 non d ame     -28.946  16.826  20.183  0.00  0.00     0.280 HD
ATOM     86  H44 non d ame     -28.676  16.779  22.663  0.00  0.00     0.129 H 
ATOM     87  H37 non d ame     -30.084  16.378  23.371  0.00  0.00     0.046 H 
BRANCH  83  88
ATOM     88  O6  non d ame     -27.843  14.961  22.403  0.00  0.00    -0.369 OA
ATOM     89  H45 non d ame     -28.200  14.153  22.780  0.00  0.00     0.212 HD
ENDBRANCH  83  88
ENDBRANCH  72  75
ENDBRANCH  47  72
ENDBRANCH  45  47
ENDBRANCH   1  43
BRANCH   1  90
ATOM     90  C16 non d ame     -32.540  17.027  26.866  0.00  0.00    -0.035 C 
ATOM     91  H21 non d ame     -32.619  17.224  27.934  0.00  0.00     0.037 H 
ATOM     92  H22 non d ame     -31.561  16.976  26.390  0.00  0.00     0.037 H 
BRANCH  90  93
ATOM     93  C17 non d ame     -33.322  18.174  26.148  0.00  0.00    -0.059 C 
ATOM     94  H23 non d ame     -33.069  18.132  25.089  0.00  0.00     0.038 H 
BRANCH  93  95
ATOM     95  C18 non d ame     -34.869  18.002  26.275  0.00  0.00    -0.073 C 
ATOM     96  H24 non d ame     -35.243  17.430  25.425  0.00  0.00     0.028 H 
ATOM     97  H25 non d ame     -35.101  17.472  27.198  0.00  0.00     0.028 H 
ATOM     98  H26 non d ame     -35.344  18.983  26.289  0.00  0.00     0.028 H 
ENDBRANCH  93  95
BRANCH  93  99
ATOM     99  C19 non d ame     -32.882  19.544  26.669  0.00  0.00    -0.073 C 
ATOM    100  H27 non d ame     -32.233  19.412  27.536  0.00  0.00     0.028 H 
ATOM    101  H28 non d ame     -32.337  20.074  25.887  0.00  0.00     0.028 H 
ATOM    102  H29 non d ame     -33.759  20.123  26.956  0.00  0.00     0.028 H 
ENDBRANCH  93  99
ENDBRANCH  90  93
ENDBRANCH   1  90
TORSDOF 26
ENDMDL
MODEL 18
REMARK VINA RESULT:      -5.9      2.756      7.471
REMARK  26 active torsions:
REMARK  status: ('A' for Active; 'I' for Inactive)
REMARK    1  A    between atoms: C2_2  and  C3_3 
REMARK    2  A    between atoms: C4_6  and  C5_7 
REMARK       I    between atoms: C5_7  and  N2_9 
REMARK    3  A    between atoms: N2_9  and  C6_10 
REMARK    4  A    between atoms: C6_10  and  C7_11 
REMARK    5  A    between atoms: C6_10  and  C8_13 
REMARK       I    between atoms: C7_11  and  N3_14 
REMARK    6  A    between atoms: N3_14  and  C9_15 
REMARK    7  A    between atoms: C9_15  and  C10_16 
REMARK    8  A    between atoms: C9_15  and  C11_18 
REMARK       I    between atoms: C10_16  and  N4_21 
REMARK    9  A    between atoms: C11_18  and  C12_19 
REMARK   10  A    between atoms: C11_18  and  C13_20 
REMARK   11  A    between atoms: N4_21  and  C14_22 
REMARK   12  A    between atoms: C14_22  and  C15_23 
REMARK   13  A    between atoms: C14_22  and  C16_25 
REMARK       I    between atoms: C15_23  and  N6_40 
REMARK   14  A    between atoms: C16_25  and  C17_26 
REMARK   15  A    between atoms: C17_26  and  C18_27 
REMARK   16  A    between atoms: C17_26  and  C19_28 
REMARK   17  A    between atoms: C20_29  and  C21_30 
REMARK   18  A    between atoms: C20_29  and  C24_33 
REMARK   19  A    between atoms: C20_29  and  N6_40 
REMARK   20  A    between atoms: C21_30  and  C22_31 
REMARK   21  A    between atoms: C22_31  and  C23_32 
REMARK   22  A    between atoms: C23_32  and  O8_43 
REMARK   23  A    between atoms: C24_33  and  C25_34 
REMARK   24  A    between atoms: C28_38  and  O6_39 
REMARK   25  A    between atoms: C29_42  and  O8_43 
REMARK   26  A    between atoms: C29_42  and  C35_49 
ROOT
ATOM      1  C14 non d ame     -36.301  11.626  27.062  0.00  0.00     0.089 C 
ATOM      2  H20 non d ame     -37.338  11.363  27.274  0.00  0.00     0.087 H 
ENDROOT
BRANCH   1   3
ATOM      3  N4  non d ame     -35.545  11.452  28.293  0.00  0.00    -0.346 N 
ATOM      4  C10 non d ame     -35.811  10.270  29.190  0.00  0.00     0.241 C 
ATOM      5  O4  non d ame     -36.641   9.472  28.902  0.00  0.00    -0.271 OA
ATOM      6  H19 non d ame     -34.845  12.143  28.522  0.00  0.00     0.163 HD
BRANCH   4   7
ATOM      7  C9  non d ame     -35.015  10.102  30.458  0.00  0.00     0.092 C 
ATOM      8  H11 non d ame     -34.545   9.120  30.459  0.00  0.00     0.088 H 
BRANCH   7   9
ATOM      9  N3  non d ame     -33.940  11.098  30.496  0.00  0.00    -0.346 N 
ATOM     10  C7  non d ame     -32.806  10.968  29.615  0.00  0.00     0.240 C 
ATOM     11  O3  non d ame     -32.742  10.068  28.870  0.00  0.00    -0.271 OA
ATOM     12  H10 non d ame     -33.981  11.879  31.136  0.00  0.00     0.163 HD
BRANCH  10  13
ATOM     13  C6  non d ame     -31.663  12.029  29.663  0.00  0.00     0.086 C 
ATOM     14  H6  non d ame     -30.902  11.863  28.901  0.00  0.00     0.086 H 
BRANCH  13  15
ATOM     15  N2  non d ame     -32.229  13.343  29.406  0.00  0.00    -0.343 N 
ATOM     16  C5  non d ame     -31.625  14.201  28.384  0.00  0.00     0.273 C 
ATOM     17  O2  non d ame     -30.683  13.827  27.777  0.00  0.00    -0.266 OA
ATOM     18  H5  non d ame     -33.032  13.656  29.932  0.00  0.00     0.163 HD
BRANCH  16  19
ATOM     19  C4  non d ame     -32.214  15.593  28.102  0.00  0.00     0.154 A 
ATOM     20  C1  non d ame     -32.395  16.212  26.825  0.00  0.00    -0.017 A 
ATOM     21  C2  non d ame     -32.966  17.473  27.111  0.00  0.00     0.077 A 
ATOM     22  H1  non d ame     -32.151  15.809  25.842  0.00  0.00     0.091 H 
ATOM     23  O1  non d ame     -33.094  17.557  28.402  0.00  0.00    -0.218 OA
ATOM     24  N1  non d ame     -32.662  16.472  29.003  0.00  0.00    -0.123 NA
BRANCH  21  25
ATOM     25  C3  non d ame     -33.359  18.535  26.094  0.00  0.00    -0.029 C 
ATOM     26  H2  non d ame     -32.970  19.503  26.410  0.00  0.00     0.036 H 
ATOM     27  H3  non d ame     -32.943  18.279  25.120  0.00  0.00     0.036 H 
ATOM     28  H4  non d ame     -34.445  18.586  26.022  0.00  0.00     0.036 H 
ENDBRANCH  21  25
ENDBRANCH  16  19
ENDBRANCH  13  15
BRANCH  13  29
ATOM     29  C8  non d ame     -31.007  12.005  31.019  0.00  0.00    -0.049 C 
ATOM     30  H7  non d ame     -31.529  12.688  31.688  0.00  0.00     0.030 H 
ATOM     31  H8  non d ame     -31.051  10.995  31.427  0.00  0.00     0.030 H 
ATOM     32  H9  non d ame     -29.965  12.314  30.925  0.00  0.00     0.030 H 
ENDBRANCH  13  29
ENDBRANCH  10  13
ENDBRANCH   7   9
BRANCH   7  33
ATOM     33  C11 non d ame     -35.951  10.305  31.687  0.00  0.00    -0.033 C 
ATOM     34  H12 non d ame     -36.764  10.960  31.376  0.00  0.00     0.042 H 
BRANCH  33  35
ATOM     35  C12 non d ame     -36.585   8.956  32.147  0.00  0.00    -0.071 C 
ATOM     36  H13 non d ame     -36.266   8.733  33.165  0.00  0.00     0.028 H 
ATOM     37  H14 non d ame     -37.671   9.034  32.115  0.00  0.00     0.028 H 
ATOM     38  H15 non d ame     -36.258   8.156  31.482  0.00  0.00     0.028 H 
ENDBRANCH  33  35
BRANCH  33  39
ATOM     39  C13 non d ame     -35.190  11.003  32.859  0.00  0.00    -0.071 C 
ATOM     40  H16 non d ame     -35.283  12.084  32.761  0.00  0.00     0.028 H 
ATOM     41  H17 non d ame     -35.617  10.685  33.811  0.00  0.00     0.028 H 
ATOM     42  H18 non d ame     -34.136  10.725  32.825  0.00  0.00     0.028 H 
ENDBRANCH  33  39
ENDBRANCH   7  33
ENDBRANCH   4   7
ENDBRANCH   1   3
BRANCH   1  43
ATOM     43  C15 non d ame     -35.678  10.716  25.965  0.00  0.00     0.240 C 
ATOM     44  O5  non d ame     -36.337  10.373  25.037  0.00  0.00    -0.271 OA
ATOM     45  N6  non d ame     -34.256  10.280  26.065  0.00  0.00    -0.355 N 
ATOM     46  H46 non d ame     -33.685  10.569  26.847  0.00  0.00     0.162 HD
BRANCH  45  47
ATOM     47  C20 non d ame     -33.678   9.416  25.013  0.00  0.00     0.013 C 
ATOM     48  H30 non d ame     -34.169   9.662  24.072  0.00  0.00     0.072 H 
BRANCH  47  49
ATOM     49  C21 non d ame     -33.928   7.966  25.364  0.00  0.00    -0.038 C 
ATOM     50  H31 non d ame     -34.965   7.919  25.698  0.00  0.00     0.036 H 
ATOM     51  H32 non d ame     -33.610   7.394  24.492  0.00  0.00     0.036 H 
BRANCH  49  52
ATOM     52  C22 non d ame     -33.064   7.478  26.547  0.00  0.00     0.018 C 
ATOM     53  H33 non d ame     -32.199   8.139  26.573  0.00  0.00     0.048 H 
ATOM     54  H34 non d ame     -33.738   7.426  27.402  0.00  0.00     0.048 H 
BRANCH  52  55
ATOM     55  C23 non d ame     -32.500   6.042  26.359  0.00  0.00     0.259 C 
ATOM     56  O7  non d ame     -31.820   5.780  25.420  0.00  0.00    -0.265 OA
BRANCH  55  57
ATOM     57  O8  non d ame     -32.816   5.038  27.316  0.00  0.00    -0.317 OA
BRANCH  57  58
ATOM     58  C29 non d ame     -34.111   4.454  27.142  0.00  0.00     0.052 C 
ATOM     59  H47 non d ame     -34.497   4.867  26.210  0.00  0.00     0.082 H 
ATOM     60  H48 non d ame     -33.966   3.380  27.244  0.00  0.00     0.082 H 
BRANCH  58  61
ATOM     61  C35 non d ame     -35.015   4.940  28.306  0.00  0.00    -0.034 A 
ATOM     62  C30 non d ame     -34.444   5.342  29.510  0.00  0.00    -0.075 A 
ATOM     63  C31 non d ame     -35.256   5.778  30.556  0.00  0.00    -0.082 A 
ATOM     64  H49 non d ame     -33.361   5.316  29.634  0.00  0.00     0.084 H 
ATOM     65  C32 non d ame     -36.644   5.808  30.397  0.00  0.00    -0.083 A 
ATOM     66  H50 non d ame     -34.805   6.095  31.498  0.00  0.00     0.083 H 
ATOM     67  C33 non d ame     -37.209   5.402  29.195  0.00  0.00    -0.082 A 
ATOM     68  H51 non d ame     -37.286   6.148  31.210  0.00  0.00     0.083 H 
ATOM     69  C34 non d ame     -36.401   4.967  28.147  0.00  0.00    -0.075 A 
ATOM     70  H52 non d ame     -38.293   5.424  29.075  0.00  0.00     0.083 H 
ATOM     71  H53 non d ame     -36.852   4.652  27.206  0.00  0.00     0.084 H 
ENDBRANCH  58  61
ENDBRANCH  57  58
ENDBRANCH  55  57
ENDBRANCH  52  55
ENDBRANCH  49  52
ENDBRANCH  47  49
BRANCH  47  72
ATOM     72  C24 non d ame     -32.175   9.664  24.909  0.00  0.00    -0.039 C 
ATOM     73  H35 non d ame     -31.995  10.587  25.461  0.00  0.00     0.036 H 
ATOM     74  H36 non d ame     -31.704   8.736  25.233  0.00  0.00     0.036 H 
BRANCH  72  75
ATOM     75  C25 non d ame     -31.720   9.922  23.395  0.00  0.00    -0.001 C 
ATOM     76  C26 non d ame     -31.798   8.520  22.541  0.00  0.00    -0.035 C 
ATOM     77  C27 non d ame     -30.616   8.327  21.908  0.00  0.00     0.085 C 
ATOM     78  H38 non d ame     -31.865   7.670  23.220  0.00  0.00     0.036 H 
ATOM     79  H39 non d ame     -32.512   8.619  21.722  0.00  0.00     0.036 H 
ATOM     80  N5  non d ame     -29.629   9.297  22.513  0.00  0.00    -0.049 N 
ATOM     81  H40 non d ame     -30.315   7.309  22.159  0.00  0.00     0.075 H 
ATOM     82  H41 non d ame     -30.793   8.602  20.870  0.00  0.00     0.075 H 
ATOM     83  C28 non d ame     -30.509  10.367  23.341  0.00  0.00     0.193 C 
ATOM     84  H42 non d ame     -29.071   8.766  23.166  0.00  0.00     0.280 HD
ATOM     85  H43 non d ame     -29.187   9.772  21.740  0.00  0.00     0.280 HD
ATOM     86  H44 non d ame     -30.684  11.367  22.941  0.00  0.00     0.129 H 
ATOM     87  H37 non d ame     -32.207  10.795  22.961  0.00  0.00     0.046 H 
BRANCH  83  88
ATOM     88  O6  non d ame     -29.949  10.567  24.640  0.00  0.00    -0.369 OA
ATOM     89  H45 non d ame     -29.553  11.441  24.686  0.00  0.00     0.212 HD
ENDBRANCH  83  88
ENDBRANCH  72  75
ENDBRANCH  47  72
ENDBRANCH  45  47
ENDBRANCH   1  43
BRANCH   1  90
ATOM     90  C16 non d ame     -36.217  13.081  26.628  0.00  0.00    -0.035 C 
ATOM     91  H21 non d ame     -36.087  13.649  27.548  0.00  0.00     0.037 H 
ATOM     92  H22 non d ame     -35.446  13.107  25.857  0.00  0.00     0.037 H 
BRANCH  90  93
ATOM     93  C17 non d ame     -37.526  13.612  25.963  0.00  0.00    -0.059 C 
ATOM     94  H23 non d ame     -37.464  13.400  24.896  0.00  0.00     0.038 H 
BRANCH  93  95
ATOM     95  C18 non d ame     -38.800  12.898  26.516  0.00  0.00    -0.073 C 
ATOM     96  H24 non d ame     -39.403  13.612  27.078  0.00  0.00     0.028 H 
ATOM     97  H25 non d ame     -39.386  12.505  25.685  0.00  0.00     0.028 H 
ATOM     98  H26 non d ame     -38.503  12.079  27.171  0.00  0.00     0.028 H 
ENDBRANCH  93  95
BRANCH  93  99
ATOM     99  C19 non d ame     -37.642  15.131  26.120  0.00  0.00    -0.073 C 
ATOM    100  H27 non d ame     -36.684  15.595  25.882  0.00  0.00     0.028 H 
ATOM    101  H28 non d ame     -38.407  15.510  25.443  0.00  0.00     0.028 H 
ATOM    102  H29 non d ame     -37.916  15.370  27.148  0.00  0.00     0.028 H 
ENDBRANCH  93  99
ENDBRANCH  90  93
ENDBRANCH   1  90
TORSDOF 26
ENDMDL
