MODEL 1
REMARK VINA RESULT:      -7.1      0.000      0.000
REMARK  26 active torsions:
REMARK  status: ('A' for Active; 'I' for Inactive)
REMARK    1  A    between atoms: C2_2  and  C3_3 
REMARK    2  A    between atoms: C4_6  and  C5_7 
REMARK       I    between atoms: C5_7  and  N2_9 
REMARK    3  A    between atoms: N2_9  and  C6_10 
REMARK    4  A    between atoms: C6_10  and  C7_11 
REMARK    5  A    between atoms: C6_10  and  C8_13 
REMARK       I    between atoms: C7_11  and  N3_14 
REMARK    6  A    between atoms: N3_14  and  C9_15 
REMARK    7  A    between atoms: C9_15  and  C10_16 
REMARK    8  A    between atoms: C9_15  and  C11_18 
REMARK       I    between atoms: C10_16  and  N4_21 
REMARK    9  A    between atoms: C11_18  and  C12_19 
REMARK   10  A    between atoms: C11_18  and  C13_20 
REMARK   11  A    between atoms: N4_21  and  C14_22 
REMARK   12  A    between atoms: C14_22  and  C15_23 
REMARK   13  A    between atoms: C14_22  and  C16_25 
REMARK       I    between atoms: C15_23  and  N6_40 
REMARK   14  A    between atoms: C16_25  and  C17_26 
REMARK   15  A    between atoms: C17_26  and  C18_27 
REMARK   16  A    between atoms: C17_26  and  C19_28 
REMARK   17  A    between atoms: C20_29  and  C21_30 
REMARK   18  A    between atoms: C20_29  and  C24_33 
REMARK   19  A    between atoms: C20_29  and  N6_40 
REMARK   20  A    between atoms: C21_30  and  C22_31 
REMARK   21  A    between atoms: C22_31  and  C23_32 
REMARK   22  A    between atoms: C23_32  and  O8_43 
REMARK   23  A    between atoms: C24_33  and  C25_34 
REMARK   24  A    between atoms: C28_38  and  O6_39 
REMARK   25  A    between atoms: C29_42  and  O8_43 
REMARK   26  A    between atoms: C29_42  and  C35_49 
ROOT
ATOM      1  C14 non d ame     -31.180  14.485  24.214  0.00  0.00     0.089 C 
ATOM      2  H20 non d ame     -30.201  14.538  24.692  0.00  0.00     0.087 H 
ENDROOT
BRANCH   1   3
ATOM      3  N4  non d ame     -31.466  13.081  23.958  0.00  0.00    -0.346 N 
ATOM      4  C10 non d ame     -31.269  12.053  25.044  0.00  0.00     0.241 C 
ATOM      5  O4  non d ame     -30.877  12.379  26.115  0.00  0.00    -0.271 OA
ATOM      6  H19 non d ame     -31.797  12.824  23.039  0.00  0.00     0.163 HD
BRANCH   4   7
ATOM      7  C9  non d ame     -31.575  10.605  24.763  0.00  0.00     0.092 C 
ATOM      8  H11 non d ame     -30.968   9.978  25.415  0.00  0.00     0.088 H 
BRANCH   7   9
ATOM      9  N3  non d ame     -32.980  10.332  25.083  0.00  0.00    -0.346 N 
ATOM     10  C7  non d ame     -33.312   9.417  26.147  0.00  0.00     0.240 C 
ATOM     11  O3  non d ame     -32.461   8.893  26.757  0.00  0.00    -0.271 OA
ATOM     12  H10 non d ame     -33.724  10.776  24.564  0.00  0.00     0.163 HD
BRANCH  10  13
ATOM     13  C6  non d ame     -34.808   9.127  26.480  0.00  0.00     0.086 C 
ATOM     14  H6  non d ame     -34.965   8.876  27.529  0.00  0.00     0.086 H 
BRANCH  13  15
ATOM     15  N2  non d ame     -35.590  10.324  26.218  0.00  0.00    -0.343 N 
ATOM     16  C5  non d ame     -35.680  11.366  27.242  0.00  0.00     0.273 C 
ATOM     17  O2  non d ame     -35.122  11.232  28.275  0.00  0.00    -0.266 OA
ATOM     18  H5  non d ame     -36.067  10.429  25.333  0.00  0.00     0.163 HD
BRANCH  16  19
ATOM     19  C4  non d ame     -36.503  12.637  26.977  0.00  0.00     0.154 A 
ATOM     20  C1  non d ame     -36.010  13.920  26.580  0.00  0.00    -0.017 A 
ATOM     21  C2  non d ame     -37.160  14.733  26.472  0.00  0.00     0.077 A 
ATOM     22  H1  non d ame     -34.977  14.215  26.398  0.00  0.00     0.091 H 
ATOM     23  O1  non d ame     -38.187  13.995  26.771  0.00  0.00    -0.218 OA
ATOM     24  N1  non d ame     -37.829  12.767  27.070  0.00  0.00    -0.123 NA
BRANCH  21  25
ATOM     25  C3  non d ame     -37.190  16.203  26.075  0.00  0.00    -0.029 C 
ATOM     26  H2  non d ame     -38.008  16.374  25.375  0.00  0.00     0.036 H 
ATOM     27  H3  non d ame     -37.341  16.817  26.963  0.00  0.00     0.036 H 
ATOM     28  H4  non d ame     -36.246  16.473  25.603  0.00  0.00     0.036 H 
ENDBRANCH  21  25
ENDBRANCH  16  19
ENDBRANCH  13  15
BRANCH  13  29
ATOM     29  C8  non d ame     -35.304   7.988  25.627  0.00  0.00    -0.049 C 
ATOM     30  H7  non d ame     -34.455   7.469  25.184  0.00  0.00     0.030 H 
ATOM     31  H8  non d ame     -35.872   7.292  26.244  0.00  0.00     0.030 H 
ATOM     32  H9  non d ame     -35.945   8.379  24.836  0.00  0.00     0.030 H 
ENDBRANCH  13  29
ENDBRANCH  10  13
ENDBRANCH   7   9
BRANCH   7  33
ATOM     33  C11 non d ame     -31.321  10.305  23.257  0.00  0.00    -0.033 C 
ATOM     34  H12 non d ame     -31.574  11.203  22.695  0.00  0.00     0.042 H 
BRANCH  33  35
ATOM     35  C12 non d ame     -29.816   9.990  22.987  0.00  0.00    -0.071 C 
ATOM     36  H13 non d ame     -29.334  10.867  22.553  0.00  0.00     0.028 H 
ATOM     37  H14 non d ame     -29.325   9.732  23.924  0.00  0.00     0.028 H 
ATOM     38  H15 non d ame     -29.739   9.154  22.292  0.00  0.00     0.028 H 
ENDBRANCH  33  35
BRANCH  33  39
ATOM     39  C13 non d ame     -32.241   9.146  22.755  0.00  0.00    -0.071 C 
ATOM     40  H16 non d ame     -31.696   8.536  22.034  0.00  0.00     0.028 H 
ATOM     41  H17 non d ame     -32.542   8.528  23.601  0.00  0.00     0.028 H 
ATOM     42  H18 non d ame     -33.127   9.566  22.279  0.00  0.00     0.028 H 
ENDBRANCH  33  39
ENDBRANCH   7  33
ENDBRANCH   4   7
ENDBRANCH   1   3
BRANCH   1  43
ATOM     43  C15 non d ame     -32.307  15.064  25.118  0.00  0.00     0.240 C 
ATOM     44  O5  non d ame     -33.401  15.208  24.678  0.00  0.00    -0.271 OA
ATOM     45  N6  non d ame     -32.024  15.428  26.535  0.00  0.00    -0.355 N 
ATOM     46  H46 non d ame     -31.098  15.305  26.922  0.00  0.00     0.162 HD
BRANCH  45  47
ATOM     47  C20 non d ame     -33.106  15.976  27.381  0.00  0.00     0.013 C 
ATOM     48  H30 non d ame     -34.057  15.711  26.920  0.00  0.00     0.072 H 
BRANCH  47  49
ATOM     49  C21 non d ame     -32.969  17.480  27.456  0.00  0.00    -0.038 C 
ATOM     50  H31 non d ame     -32.456  17.682  28.397  0.00  0.00     0.036 H 
ATOM     51  H32 non d ame     -32.514  17.782  26.512  0.00  0.00     0.036 H 
BRANCH  49  52
ATOM     52  C22 non d ame     -34.331  18.203  27.536  0.00  0.00     0.018 C 
ATOM     53  H33 non d ame     -35.081  17.415  27.573  0.00  0.00     0.048 H 
ATOM     54  H34 non d ame     -34.241  18.911  28.360  0.00  0.00     0.048 H 
BRANCH  52  55
ATOM     55  C23 non d ame     -34.663  19.052  26.277  0.00  0.00     0.259 C 
ATOM     56  O7  non d ame     -33.862  19.182  25.409  0.00  0.00    -0.265 OA
BRANCH  55  57
ATOM     57  O8  non d ame     -35.933  19.685  26.179  0.00  0.00    -0.317 OA
BRANCH  57  58
ATOM     58  C29 non d ame     -36.156  20.700  27.162  0.00  0.00     0.052 C 
ATOM     59  H47 non d ame     -35.168  20.976  27.531  0.00  0.00     0.082 H 
ATOM     60  H48 non d ame     -36.786  21.447  26.680  0.00  0.00     0.082 H 
BRANCH  58  61
ATOM     61  C35 non d ame     -36.957  20.066  28.331  0.00  0.00    -0.034 A 
ATOM     62  C30 non d ame     -36.621  20.366  29.648  0.00  0.00    -0.075 A 
ATOM     63  C31 non d ame     -37.340  19.796  30.698  0.00  0.00    -0.082 A 
ATOM     64  H49 non d ame     -35.795  21.045  29.858  0.00  0.00     0.084 H 
ATOM     65  C32 non d ame     -38.397  18.923  30.428  0.00  0.00    -0.083 A 
ATOM     66  H50 non d ame     -37.075  20.034  31.730  0.00  0.00     0.083 H 
ATOM     67  C33 non d ame     -38.725  18.625  29.112  0.00  0.00    -0.082 A 
ATOM     68  H51 non d ame     -38.965  18.474  31.243  0.00  0.00     0.083 H 
ATOM     69  C34 non d ame     -38.011  19.193  28.060  0.00  0.00    -0.075 A 
ATOM     70  H52 non d ame     -39.550  17.941  28.905  0.00  0.00     0.083 H 
ATOM     71  H53 non d ame     -38.276  18.955  27.030  0.00  0.00     0.084 H 
ENDBRANCH  58  61
ENDBRANCH  57  58
ENDBRANCH  55  57
ENDBRANCH  52  55
ENDBRANCH  49  52
ENDBRANCH  47  49
BRANCH  47  72
ATOM     72  C24 non d ame     -33.014  15.384  28.785  0.00  0.00    -0.039 C 
ATOM     73  H35 non d ame     -32.893  16.238  29.453  0.00  0.00     0.036 H 
ATOM     74  H36 non d ame     -33.883  14.734  28.884  0.00  0.00     0.036 H 
BRANCH  72  75
ATOM     75  C25 non d ame     -31.714  14.463  28.956  0.00  0.00    -0.001 C 
ATOM     76  C26 non d ame     -32.160  12.937  29.373  0.00  0.00    -0.035 C 
ATOM     77  C27 non d ame     -31.459  12.560  30.469  0.00  0.00     0.085 C 
ATOM     78  H38 non d ame     -33.194  12.930  29.717  0.00  0.00     0.036 H 
ATOM     79  H39 non d ame     -31.836  12.230  28.608  0.00  0.00     0.036 H 
ATOM     80  N5  non d ame     -30.817  13.806  31.031  0.00  0.00    -0.049 N 
ATOM     81  H40 non d ame     -32.201  12.191  31.177  0.00  0.00     0.075 H 
ATOM     82  H41 non d ame     -30.679  11.895  30.101  0.00  0.00     0.075 H 
ATOM     83  C28 non d ame     -30.932  14.926  29.874  0.00  0.00     0.193 C 
ATOM     84  H42 non d ame     -31.388  14.093  31.813  0.00  0.00     0.280 HD
ATOM     85  H43 non d ame     -29.842  13.586  31.171  0.00  0.00     0.280 HD
ATOM     86  H44 non d ame     -30.061  15.193  29.275  0.00  0.00     0.129 H 
ATOM     87  H37 non d ame     -31.022  14.568  28.121  0.00  0.00     0.046 H 
BRANCH  83  88
ATOM     88  O6  non d ame     -31.411  16.155  30.422  0.00  0.00    -0.369 OA
ATOM     89  H45 non d ame     -31.100  16.888  29.885  0.00  0.00     0.212 HD
ENDBRANCH  83  88
ENDBRANCH  72  75
ENDBRANCH  47  72
ENDBRANCH  45  47
ENDBRANCH   1  43
BRANCH   1  90
ATOM     90  C16 non d ame     -31.149  15.235  22.892  0.00  0.00    -0.035 C 
ATOM     91  H21 non d ame     -32.145  15.115  22.470  0.00  0.00     0.037 H 
ATOM     92  H22 non d ame     -30.774  16.229  23.134  0.00  0.00     0.037 H 
BRANCH  90  93
ATOM     93  C17 non d ame     -30.154  14.628  21.852  0.00  0.00    -0.059 C 
ATOM     94  H23 non d ame     -30.293  13.547  21.853  0.00  0.00     0.038 H 
BRANCH  93  95
ATOM     95  C18 non d ame     -30.431  15.142  20.403  0.00  0.00    -0.073 C 
ATOM     96  H24 non d ame     -30.387  16.231  20.388  0.00  0.00     0.028 H 
ATOM     97  H25 non d ame     -29.677  14.740  19.725  0.00  0.00     0.028 H 
ATOM     98  H26 non d ame     -31.419  14.813  20.083  0.00  0.00     0.028 H 
ENDBRANCH  93  95
BRANCH  93  99
ATOM     99  C19 non d ame     -28.703  14.902  22.258  0.00  0.00    -0.073 C 
ATOM    100  H27 non d ame     -28.094  14.022  22.045  0.00  0.00     0.028 H 
ATOM    101  H28 non d ame     -28.321  15.752  21.693  0.00  0.00     0.028 H 
ATOM    102  H29 non d ame     -28.660  15.125  23.324  0.00  0.00     0.028 H 
ENDBRANCH  93  99
ENDBRANCH  90  93
ENDBRANCH   1  90
TORSDOF 26
ENDMDL
MODEL 2
REMARK VINA RESULT:      -6.9      2.333      8.806
REMARK  26 active torsions:
REMARK  status: ('A' for Active; 'I' for Inactive)
REMARK    1  A    between atoms: C2_2  and  C3_3 
REMARK    2  A    between atoms: C4_6  and  C5_7 
REMARK       I    between atoms: C5_7  and  N2_9 
REMARK    3  A    between atoms: N2_9  and  C6_10 
REMARK    4  A    between atoms: C6_10  and  C7_11 
REMARK    5  A    between atoms: C6_10  and  C8_13 
REMARK       I    between atoms: C7_11  and  N3_14 
REMARK    6  A    between atoms: N3_14  and  C9_15 
REMARK    7  A    between atoms: C9_15  and  C10_16 
REMARK    8  A    between atoms: C9_15  and  C11_18 
REMARK       I    between atoms: C10_16  and  N4_21 
REMARK    9  A    between atoms: C11_18  and  C12_19 
REMARK   10  A    between atoms: C11_18  and  C13_20 
REMARK   11  A    between atoms: N4_21  and  C14_22 
REMARK   12  A    between atoms: C14_22  and  C15_23 
REMARK   13  A    between atoms: C14_22  and  C16_25 
REMARK       I    between atoms: C15_23  and  N6_40 
REMARK   14  A    between atoms: C16_25  and  C17_26 
REMARK   15  A    between atoms: C17_26  and  C18_27 
REMARK   16  A    between atoms: C17_26  and  C19_28 
REMARK   17  A    between atoms: C20_29  and  C21_30 
REMARK   18  A    between atoms: C20_29  and  C24_33 
REMARK   19  A    between atoms: C20_29  and  N6_40 
REMARK   20  A    between atoms: C21_30  and  C22_31 
REMARK   21  A    between atoms: C22_31  and  C23_32 
REMARK   22  A    between atoms: C23_32  and  O8_43 
REMARK   23  A    between atoms: C24_33  and  C25_34 
REMARK   24  A    between atoms: C28_38  and  O6_39 
REMARK   25  A    between atoms: C29_42  and  O8_43 
REMARK   26  A    between atoms: C29_42  and  C35_49 
ROOT
ATOM      1  C14 non d ame     -35.887  12.969  26.167  0.00  0.00     0.089 C 
ATOM      2  H20 non d ame     -36.599  12.792  26.974  0.00  0.00     0.087 H 
ENDROOT
BRANCH   1   3
ATOM      3  N4  non d ame     -35.680  14.406  26.072  0.00  0.00    -0.346 N 
ATOM      4  C10 non d ame     -36.749  15.362  26.535  0.00  0.00     0.241 C 
ATOM      5  O4  non d ame     -37.770  14.952  26.981  0.00  0.00    -0.271 OA
ATOM      6  H19 non d ame     -34.806  14.735  25.687  0.00  0.00     0.163 HD
BRANCH   4   7
ATOM      7  C9  non d ame     -36.517  16.847  26.433  0.00  0.00     0.092 C 
ATOM      8  H11 non d ame     -36.756  17.314  27.388  0.00  0.00     0.088 H 
BRANCH   7   9
ATOM      9  N3  non d ame     -35.097  17.103  26.169  0.00  0.00    -0.346 N 
ATOM     10  C7  non d ame     -34.224  17.497  27.246  0.00  0.00     0.240 C 
ATOM     11  O3  non d ame     -34.646  17.614  28.332  0.00  0.00    -0.271 OA
ATOM     12  H10 non d ame     -34.720  17.008  25.237  0.00  0.00     0.163 HD
BRANCH  10  13
ATOM     13  C6  non d ame     -32.715  17.771  26.959  0.00  0.00     0.086 C 
ATOM     14  H6  non d ame     -32.054  17.284  27.675  0.00  0.00     0.086 H 
BRANCH  13  15
ATOM     15  N2  non d ame     -32.379  17.233  25.651  0.00  0.00    -0.343 N 
ATOM     16  C5  non d ame     -31.658  15.962  25.557  0.00  0.00     0.273 C 
ATOM     17  O2  non d ame     -31.350  15.381  26.540  0.00  0.00    -0.266 OA
ATOM     18  H5  non d ame     -32.643  17.738  24.817  0.00  0.00     0.163 HD
BRANCH  16  19
ATOM     19  C4  non d ame     -31.296  15.382  24.181  0.00  0.00     0.154 A 
ATOM     20  C1  non d ame     -31.264  16.077  22.931  0.00  0.00    -0.017 A 
ATOM     21  C2  non d ame     -30.876  15.103  21.984  0.00  0.00     0.077 A 
ATOM     22  H1  non d ame     -31.486  17.127  22.741  0.00  0.00     0.091 H 
ATOM     23  O1  non d ame     -30.707  13.984  22.625  0.00  0.00    -0.218 OA
ATOM     24  N1  non d ame     -30.947  14.122  23.909  0.00  0.00    -0.123 NA
BRANCH  21  25
ATOM     25  C3  non d ame     -30.689  15.324  20.489  0.00  0.00    -0.029 C 
ATOM     26  H2  non d ame     -31.640  15.174  19.977  0.00  0.00     0.036 H 
ATOM     27  H3  non d ame     -30.340  16.341  20.312  0.00  0.00     0.036 H 
ATOM     28  H4  non d ame     -29.955  14.616  20.105  0.00  0.00     0.036 H 
ENDBRANCH  21  25
ENDBRANCH  16  19
ENDBRANCH  13  15
BRANCH  13  29
ATOM     29  C8  non d ame     -32.456  19.256  26.989  0.00  0.00    -0.049 C 
ATOM     30  H7  non d ame     -33.150  19.732  27.681  0.00  0.00     0.030 H 
ATOM     31  H8  non d ame     -31.434  19.440  27.317  0.00  0.00     0.030 H 
ATOM     32  H9  non d ame     -32.598  19.670  25.990  0.00  0.00     0.030 H 
ENDBRANCH  13  29
ENDBRANCH  10  13
ENDBRANCH   7   9
BRANCH   7  33
ATOM     33  C11 non d ame     -37.371  17.426  25.267  0.00  0.00    -0.033 C 
ATOM     34  H12 non d ame     -38.401  17.495  25.616  0.00  0.00     0.042 H 
BRANCH  33  35
ATOM     35  C12 non d ame     -36.907  18.866  24.885  0.00  0.00    -0.071 C 
ATOM     36  H13 non d ame     -35.818  18.901  24.850  0.00  0.00     0.028 H 
ATOM     37  H14 non d ame     -37.310  19.131  23.908  0.00  0.00     0.028 H 
ATOM     38  H15 non d ame     -37.268  19.574  25.632  0.00  0.00     0.028 H 
ENDBRANCH  33  35
BRANCH  33  39
ATOM     39  C13 non d ame     -37.344  16.475  24.028  0.00  0.00    -0.071 C 
ATOM     40  H16 non d ame     -37.286  17.068  23.115  0.00  0.00     0.028 H 
ATOM     41  H17 non d ame     -36.475  15.818  24.092  0.00  0.00     0.028 H 
ATOM     42  H18 non d ame     -38.252  15.872  24.013  0.00  0.00     0.028 H 
ENDBRANCH  33  39
ENDBRANCH   7  33
ENDBRANCH   4   7
ENDBRANCH   1   3
BRANCH   1  43
ATOM     43  C15 non d ame     -34.514  12.288  26.438  0.00  0.00     0.240 C 
ATOM     44  O5  non d ame     -33.525  12.740  25.958  0.00  0.00    -0.271 OA
ATOM     45  N6  non d ame     -34.430  11.079  27.305  0.00  0.00    -0.355 N 
ATOM     46  H46 non d ame     -35.263  10.688  27.723  0.00  0.00     0.162 HD
BRANCH  45  47
ATOM     47  C20 non d ame     -33.118  10.444  27.553  0.00  0.00     0.013 C 
ATOM     48  H30 non d ame     -32.367  10.998  26.990  0.00  0.00     0.072 H 
BRANCH  47  49
ATOM     49  C21 non d ame     -33.160   9.007  27.086  0.00  0.00    -0.038 C 
ATOM     50  H31 non d ame     -32.305   8.889  26.420  0.00  0.00     0.036 H 
ATOM     51  H32 non d ame     -33.233   8.405  27.992  0.00  0.00     0.036 H 
BRANCH  49  52
ATOM     52  C22 non d ame     -34.416   8.687  26.246  0.00  0.00     0.018 C 
ATOM     53  H33 non d ame     -35.168   8.348  26.957  0.00  0.00     0.048 H 
ATOM     54  H34 non d ame     -34.599   9.574  25.640  0.00  0.00     0.048 H 
BRANCH  52  55
ATOM     55  C23 non d ame     -34.217   7.517  25.243  0.00  0.00     0.259 C 
ATOM     56  O7  non d ame     -34.047   6.408  25.637  0.00  0.00    -0.265 OA
BRANCH  55  57
ATOM     57  O8  non d ame     -34.226   7.787  23.846  0.00  0.00    -0.317 OA
BRANCH  57  58
ATOM     58  C29 non d ame     -34.003   9.161  23.517  0.00  0.00     0.052 C 
ATOM     59  H47 non d ame     -34.575   9.343  22.607  0.00  0.00     0.082 H 
ATOM     60  H48 non d ame     -34.227   9.722  24.424  0.00  0.00     0.082 H 
BRANCH  58  61
ATOM     61  C35 non d ame     -32.495   9.337  23.192  0.00  0.00    -0.034 A 
ATOM     62  C30 non d ame     -31.757  10.328  23.832  0.00  0.00    -0.075 A 
ATOM     63  C31 non d ame     -30.403  10.486  23.540  0.00  0.00    -0.082 A 
ATOM     64  H49 non d ame     -32.238  10.981  24.560  0.00  0.00     0.084 H 
ATOM     65  C32 non d ame     -29.788   9.650  22.604  0.00  0.00    -0.083 A 
ATOM     66  H50 non d ame     -29.826  11.263  24.044  0.00  0.00     0.083 H 
ATOM     67  C33 non d ame     -30.530   8.666  21.966  0.00  0.00    -0.082 A 
ATOM     68  H51 non d ame     -28.729   9.767  22.371  0.00  0.00     0.083 H 
ATOM     69  C34 non d ame     -31.883   8.503  22.256  0.00  0.00    -0.075 A 
ATOM     70  H52 non d ame     -30.048   8.016  21.234  0.00  0.00     0.083 H 
ATOM     71  H53 non d ame     -32.459   7.726  21.752  0.00  0.00     0.084 H 
ENDBRANCH  58  61
ENDBRANCH  57  58
ENDBRANCH  55  57
ENDBRANCH  52  55
ENDBRANCH  49  52
ENDBRANCH  47  49
BRANCH  47  72
ATOM     72  C24 non d ame     -32.798  10.486  29.046  0.00  0.00    -0.039 C 
ATOM     73  H35 non d ame     -33.626   9.969  29.534  0.00  0.00     0.036 H 
ATOM     74  H36 non d ame     -31.784  10.097  29.137  0.00  0.00     0.036 H 
BRANCH  72  75
ATOM     75  C25 non d ame     -32.781  11.986  29.607  0.00  0.00    -0.001 C 
ATOM     76  C26 non d ame     -31.587  12.845  28.873  0.00  0.00    -0.035 C 
ATOM     77  C27 non d ame     -30.831  13.444  29.824  0.00  0.00     0.085 C 
ATOM     78  H38 non d ame     -30.888  12.169  28.381  0.00  0.00     0.036 H 
ATOM     79  H39 non d ame     -32.013  13.683  28.321  0.00  0.00     0.036 H 
ATOM     80  N5  non d ame     -31.200  12.810  31.144  0.00  0.00    -0.049 N 
ATOM     81  H40 non d ame     -29.800  13.187  29.582  0.00  0.00     0.075 H 
ATOM     82  H41 non d ame     -31.145  14.487  29.831  0.00  0.00     0.075 H 
ATOM     83  C28 non d ame     -32.575  12.006  30.882  0.00  0.00     0.193 C 
ATOM     84  H42 non d ame     -30.473  12.143  31.354  0.00  0.00     0.280 HD
ATOM     85  H43 non d ame     -31.388  13.570  31.782  0.00  0.00     0.280 HD
ATOM     86  H44 non d ame     -33.527  12.409  31.230  0.00  0.00     0.129 H 
ATOM     87  H37 non d ame     -33.775  12.433  29.622  0.00  0.00     0.046 H 
BRANCH  83  88
ATOM     88  O6  non d ame     -32.491  10.692  31.435  0.00  0.00    -0.369 OA
ATOM     89  H45 non d ame     -33.263  10.524  31.981  0.00  0.00     0.212 HD
ENDBRANCH  83  88
ENDBRANCH  72  75
ENDBRANCH  47  72
ENDBRANCH  45  47
ENDBRANCH   1  43
BRANCH   1  90
ATOM     90  C16 non d ame     -36.459  12.460  24.854  0.00  0.00    -0.035 C 
ATOM     91  H21 non d ame     -36.810  13.347  24.330  0.00  0.00     0.037 H 
ATOM     92  H22 non d ame     -35.674  11.843  24.417  0.00  0.00     0.037 H 
BRANCH  90  93
ATOM     93  C17 non d ame     -37.703  11.532  25.031  0.00  0.00    -0.059 C 
ATOM     94  H23 non d ame     -38.521  11.963  24.453  0.00  0.00     0.038 H 
BRANCH  93  95
ATOM     95  C18 non d ame     -37.445  10.090  24.489  0.00  0.00    -0.073 C 
ATOM     96  H24 non d ame     -37.695   9.361  25.260  0.00  0.00     0.028 H 
ATOM     97  H25 non d ame     -38.066   9.915  23.611  0.00  0.00     0.028 H 
ATOM     98  H26 non d ame     -36.395   9.986  24.218  0.00  0.00     0.028 H 
ENDBRANCH  93  95
BRANCH  93  99
ATOM     99  C19 non d ame     -38.151  11.492  26.495  0.00  0.00    -0.073 C 
ATOM    100  H27 non d ame     -39.152  11.916  26.580  0.00  0.00     0.028 H 
ATOM    101  H28 non d ame     -38.165  10.459  26.843  0.00  0.00     0.028 H 
ATOM    102  H29 non d ame     -37.457  12.071  27.103  0.00  0.00     0.028 H 
ENDBRANCH  93  99
ENDBRANCH  90  93
ENDBRANCH   1  90
TORSDOF 26
ENDMDL
MODEL 3
REMARK VINA RESULT:      -6.8      3.122      6.537
REMARK  26 active torsions:
REMARK  status: ('A' for Active; 'I' for Inactive)
REMARK    1  A    between atoms: C2_2  and  C3_3 
REMARK    2  A    between atoms: C4_6  and  C5_7 
REMARK       I    between atoms: C5_7  and  N2_9 
REMARK    3  A    between atoms: N2_9  and  C6_10 
REMARK    4  A    between atoms: C6_10  and  C7_11 
REMARK    5  A    between atoms: C6_10  and  C8_13 
REMARK       I    between atoms: C7_11  and  N3_14 
REMARK    6  A    between atoms: N3_14  and  C9_15 
REMARK    7  A    between atoms: C9_15  and  C10_16 
REMARK    8  A    between atoms: C9_15  and  C11_18 
REMARK       I    between atoms: C10_16  and  N4_21 
REMARK    9  A    between atoms: C11_18  and  C12_19 
REMARK   10  A    between atoms: C11_18  and  C13_20 
REMARK   11  A    between atoms: N4_21  and  C14_22 
REMARK   12  A    between atoms: C14_22  and  C15_23 
REMARK   13  A    between atoms: C14_22  and  C16_25 
REMARK       I    between atoms: C15_23  and  N6_40 
REMARK   14  A    between atoms: C16_25  and  C17_26 
REMARK   15  A    between atoms: C17_26  and  C18_27 
REMARK   16  A    between atoms: C17_26  and  C19_28 
REMARK   17  A    between atoms: C20_29  and  C21_30 
REMARK   18  A    between atoms: C20_29  and  C24_33 
REMARK   19  A    between atoms: C20_29  and  N6_40 
REMARK   20  A    between atoms: C21_30  and  C22_31 
REMARK   21  A    between atoms: C22_31  and  C23_32 
REMARK   22  A    between atoms: C23_32  and  O8_43 
REMARK   23  A    between atoms: C24_33  and  C25_34 
REMARK   24  A    between atoms: C28_38  and  O6_39 
REMARK   25  A    between atoms: C29_42  and  O8_43 
REMARK   26  A    between atoms: C29_42  and  C35_49 
ROOT
ATOM      1  C14 non d ame     -32.539  10.226  26.577  0.00  0.00     0.089 C 
ATOM      2  H20 non d ame     -33.572  10.337  26.247  0.00  0.00     0.087 H 
ENDROOT
BRANCH   1   3
ATOM      3  N4  non d ame     -31.937   9.166  25.783  0.00  0.00    -0.346 N 
ATOM      4  C10 non d ame     -32.358   8.954  24.351  0.00  0.00     0.241 C 
ATOM      5  O4  non d ame     -33.186   9.648  23.859  0.00  0.00    -0.271 OA
ATOM      6  H19 non d ame     -31.236   8.585  26.220  0.00  0.00     0.163 HD
BRANCH   4   7
ATOM      7  C9  non d ame     -31.721   7.855  23.541  0.00  0.00     0.092 C 
ATOM      8  H11 non d ame     -30.762   7.592  23.987  0.00  0.00     0.088 H 
BRANCH   7   9
ATOM      9  N3  non d ame     -32.565   6.658  23.592  0.00  0.00    -0.346 N 
ATOM     10  C7  non d ame     -32.473   5.758  24.715  0.00  0.00     0.240 C 
ATOM     11  O3  non d ame     -31.725   5.981  25.586  0.00  0.00    -0.271 OA
ATOM     12  H10 non d ame     -33.214   6.451  22.846  0.00  0.00     0.163 HD
BRANCH  10  13
ATOM     13  C6  non d ame     -33.372   4.484  24.761  0.00  0.00     0.086 C 
ATOM     14  H6  non d ame     -32.873   3.632  25.224  0.00  0.00     0.086 H 
BRANCH  13  15
ATOM     15  N2  non d ame     -34.548   4.765  25.567  0.00  0.00    -0.343 N 
ATOM     16  C5  non d ame     -34.636   4.230  26.927  0.00  0.00     0.273 C 
ATOM     17  O2  non d ame     -33.756   3.571  27.363  0.00  0.00    -0.266 OA
ATOM     18  H5  non d ame     -35.296   5.326  25.186  0.00  0.00     0.163 HD
BRANCH  16  19
ATOM     19  C4  non d ame     -35.874   4.521  27.791  0.00  0.00     0.154 A 
ATOM     20  C1  non d ame     -37.184   3.968  27.637  0.00  0.00    -0.017 A 
ATOM     21  C2  non d ame     -37.948   4.552  28.672  0.00  0.00     0.077 A 
ATOM     22  H1  non d ame     -37.528   3.253  26.890  0.00  0.00     0.091 H 
ATOM     23  O1  non d ame     -37.160   5.344  29.337  0.00  0.00    -0.218 OA
ATOM     24  N1  non d ame     -35.943   5.343  28.841  0.00  0.00    -0.123 NA
BRANCH  21  25
ATOM     25  C3  non d ame     -39.422   4.299  28.957  0.00  0.00    -0.029 C 
ATOM     26  H2  non d ame     -40.012   5.142  28.598  0.00  0.00     0.036 H 
ATOM     27  H3  non d ame     -39.741   3.390  28.445  0.00  0.00     0.036 H 
ATOM     28  H4  non d ame     -39.571   4.182  30.030  0.00  0.00     0.036 H 
ENDBRANCH  21  25
ENDBRANCH  16  19
ENDBRANCH  13  15
BRANCH  13  29
ATOM     29  C8  non d ame     -33.783   4.104  23.362  0.00  0.00    -0.049 C 
ATOM     30  H7  non d ame     -34.809   3.738  23.370  0.00  0.00     0.030 H 
ATOM     31  H8  non d ame     -33.715   4.977  22.713  0.00  0.00     0.030 H 
ATOM     32  H9  non d ame     -33.122   3.321  22.988  0.00  0.00     0.030 H 
ENDBRANCH  13  29
ENDBRANCH  10  13
ENDBRANCH   7   9
BRANCH   7  33
ATOM     33  C11 non d ame     -31.573   8.320  22.063  0.00  0.00    -0.033 C 
ATOM     34  H12 non d ame     -32.164   9.227  21.943  0.00  0.00     0.042 H 
BRANCH  33  35
ATOM     35  C12 non d ame     -30.092   8.678  21.726  0.00  0.00    -0.071 C 
ATOM     36  H13 non d ame     -29.876   8.400  20.694  0.00  0.00     0.028 H 
ATOM     37  H14 non d ame     -29.938   9.749  21.853  0.00  0.00     0.028 H 
ATOM     38  H15 non d ame     -29.425   8.133  22.394  0.00  0.00     0.028 H 
ENDBRANCH  33  35
BRANCH  33  39
ATOM     39  C13 non d ame     -32.134   7.244  21.079  0.00  0.00    -0.071 C 
ATOM     40  H16 non d ame     -33.173   7.030  21.328  0.00  0.00     0.028 H 
ATOM     41  H17 non d ame     -32.074   7.618  20.057  0.00  0.00     0.028 H 
ATOM     42  H18 non d ame     -31.545   6.331  21.165  0.00  0.00     0.028 H 
ENDBRANCH  33  39
ENDBRANCH   7  33
ENDBRANCH   4   7
ENDBRANCH   1   3
BRANCH   1  43
ATOM     43  C15 non d ame     -31.714  11.529  26.372  0.00  0.00     0.240 C 
ATOM     44  O5  non d ame     -30.930  11.868  27.198  0.00  0.00    -0.271 OA
ATOM     45  N6  non d ame     -31.894  12.349  25.140  0.00  0.00    -0.355 N 
ATOM     46  H46 non d ame     -32.555  12.068  24.429  0.00  0.00     0.162 HD
BRANCH  45  47
ATOM     47  C20 non d ame     -31.102  13.584  24.960  0.00  0.00     0.013 C 
ATOM     48  H30 non d ame     -30.259  13.544  25.650  0.00  0.00     0.072 H 
BRANCH  47  49
ATOM     49  C21 non d ame     -31.968  14.784  25.270  0.00  0.00    -0.038 C 
ATOM     50  H31 non d ame     -31.470  15.635  24.803  0.00  0.00     0.036 H 
ATOM     51  H32 non d ame     -32.976  14.506  24.962  0.00  0.00     0.036 H 
BRANCH  49  52
ATOM     52  C22 non d ame     -32.042  15.095  26.781  0.00  0.00     0.018 C 
ATOM     53  H33 non d ame     -31.367  14.389  27.261  0.00  0.00     0.048 H 
ATOM     54  H34 non d ame     -31.864  16.167  26.870  0.00  0.00     0.048 H 
BRANCH  52  55
ATOM     55  C23 non d ame     -33.443  14.841  27.404  0.00  0.00     0.259 C 
ATOM     56  O7  non d ame     -34.128  13.955  27.005  0.00  0.00    -0.265 OA
BRANCH  55  57
ATOM     57  O8  non d ame     -33.905  15.688  28.449  0.00  0.00    -0.317 OA
BRANCH  57  58
ATOM     58  C29 non d ame     -34.911  16.620  28.042  0.00  0.00     0.052 C 
ATOM     59  H47 non d ame     -35.498  16.107  27.281  0.00  0.00     0.082 H 
ATOM     60  H48 non d ame     -35.386  16.962  28.960  0.00  0.00     0.082 H 
BRANCH  58  61
ATOM     61  C35 non d ame     -34.200  17.831  27.379  0.00  0.00    -0.034 A 
ATOM     62  C30 non d ame     -34.626  18.293  26.137  0.00  0.00    -0.075 A 
ATOM     63  C31 non d ame     -33.987  19.380  25.541  0.00  0.00    -0.082 A 
ATOM     64  H49 non d ame     -35.458  17.805  25.631  0.00  0.00     0.084 H 
ATOM     65  C32 non d ame     -32.919  20.004  26.191  0.00  0.00    -0.083 A 
ATOM     66  H50 non d ame     -34.325  19.742  24.569  0.00  0.00     0.083 H 
ATOM     67  C33 non d ame     -32.495  19.536  27.427  0.00  0.00    -0.082 A 
ATOM     68  H51 non d ame     -32.415  20.855  25.732  0.00  0.00     0.083 H 
ATOM     69  C34 non d ame     -33.131  18.452  28.027  0.00  0.00    -0.075 A 
ATOM     70  H52 non d ame     -31.659  20.024  27.930  0.00  0.00     0.083 H 
ATOM     71  H53 non d ame     -32.794  18.091  28.999  0.00  0.00     0.084 H 
ENDBRANCH  58  61
ENDBRANCH  57  58
ENDBRANCH  55  57
ENDBRANCH  52  55
ENDBRANCH  49  52
ENDBRANCH  47  49
BRANCH  47  72
ATOM     72  C24 non d ame     -30.604  13.672  23.519  0.00  0.00    -0.039 C 
ATOM     73  H35 non d ame     -29.597  13.253  23.534  0.00  0.00     0.036 H 
ATOM     74  H36 non d ame     -31.381  13.203  22.914  0.00  0.00     0.036 H 
BRANCH  72  75
ATOM     75  C25 non d ame     -30.476  15.191  23.027  0.00  0.00    -0.001 C 
ATOM     76  C26 non d ame     -31.312  15.399  21.627  0.00  0.00    -0.035 C 
ATOM     77  C27 non d ame     -30.500  15.988  20.716  0.00  0.00     0.085 C 
ATOM     78  H38 non d ame     -31.538  14.432  21.179  0.00  0.00     0.036 H 
ATOM     79  H39 non d ame     -32.107  16.132  21.770  0.00  0.00     0.036 H 
ATOM     80  N5  non d ame     -29.093  15.902  21.260  0.00  0.00    -0.049 N 
ATOM     81  H40 non d ame     -30.573  15.372  19.820  0.00  0.00     0.075 H 
ATOM     82  H41 non d ame     -30.806  17.032  20.686  0.00  0.00     0.075 H 
ATOM     83  C28 non d ame     -29.243  15.512  22.819  0.00  0.00     0.193 C 
ATOM     84  H42 non d ame     -28.647  15.135  20.778  0.00  0.00     0.280 HD
ATOM     85  H43 non d ame     -28.706  16.833  21.196  0.00  0.00     0.280 HD
ATOM     86  H44 non d ame     -29.102  16.267  23.593  0.00  0.00     0.129 H 
ATOM     87  H37 non d ame     -30.669  15.902  23.830  0.00  0.00     0.046 H 
BRANCH  83  88
ATOM     88  O6  non d ame     -28.346  14.451  23.150  0.00  0.00    -0.369 OA
ATOM     89  H45 non d ame     -27.799  14.244  22.388  0.00  0.00     0.212 HD
ENDBRANCH  83  88
ENDBRANCH  72  75
ENDBRANCH  47  72
ENDBRANCH  45  47
ENDBRANCH   1  43
BRANCH   1  90
ATOM     90  C16 non d ame     -32.508   9.827  28.044  0.00  0.00    -0.035 C 
ATOM     91  H21 non d ame     -32.554   8.739  28.048  0.00  0.00     0.037 H 
ATOM     92  H22 non d ame     -31.641  10.338  28.463  0.00  0.00     0.037 H 
BRANCH  90  93
ATOM     93  C17 non d ame     -33.748  10.323  28.854  0.00  0.00    -0.059 C 
ATOM     94  H23 non d ame     -34.070   9.506  29.499  0.00  0.00     0.038 H 
BRANCH  93  95
ATOM     95  C18 non d ame     -33.406  11.543  29.768  0.00  0.00    -0.073 C 
ATOM     96  H24 non d ame     -32.437  11.383  30.242  0.00  0.00     0.028 H 
ATOM     97  H25 non d ame     -33.366  12.450  29.164  0.00  0.00     0.028 H 
ATOM     98  H26 non d ame     -34.173  11.650  30.534  0.00  0.00     0.028 H 
ENDBRANCH  93  95
BRANCH  93  99
ATOM     99  C19 non d ame     -34.915  10.654  27.920  0.00  0.00    -0.073 C 
ATOM    100  H27 non d ame     -35.052  11.735  27.878  0.00  0.00     0.028 H 
ATOM    101  H28 non d ame     -34.699  10.277  26.920  0.00  0.00     0.028 H 
ATOM    102  H29 non d ame     -35.825  10.187  28.296  0.00  0.00     0.028 H 
ENDBRANCH  93  99
ENDBRANCH  90  93
ENDBRANCH   1  90
TORSDOF 26
ENDMDL
MODEL 4
REMARK VINA RESULT:      -6.8      3.407      6.286
REMARK  26 active torsions:
REMARK  status: ('A' for Active; 'I' for Inactive)
REMARK    1  A    between atoms: C2_2  and  C3_3 
REMARK    2  A    between atoms: C4_6  and  C5_7 
REMARK       I    between atoms: C5_7  and  N2_9 
REMARK    3  A    between atoms: N2_9  and  C6_10 
REMARK    4  A    between atoms: C6_10  and  C7_11 
REMARK    5  A    between atoms: C6_10  and  C8_13 
REMARK       I    between atoms: C7_11  and  N3_14 
REMARK    6  A    between atoms: N3_14  and  C9_15 
REMARK    7  A    between atoms: C9_15  and  C10_16 
REMARK    8  A    between atoms: C9_15  and  C11_18 
REMARK       I    between atoms: C10_16  and  N4_21 
REMARK    9  A    between atoms: C11_18  and  C12_19 
REMARK   10  A    between atoms: C11_18  and  C13_20 
REMARK   11  A    between atoms: N4_21  and  C14_22 
REMARK   12  A    between atoms: C14_22  and  C15_23 
REMARK   13  A    between atoms: C14_22  and  C16_25 
REMARK       I    between atoms: C15_23  and  N6_40 
REMARK   14  A    between atoms: C16_25  and  C17_26 
REMARK   15  A    between atoms: C17_26  and  C18_27 
REMARK   16  A    between atoms: C17_26  and  C19_28 
REMARK   17  A    between atoms: C20_29  and  C21_30 
REMARK   18  A    between atoms: C20_29  and  C24_33 
REMARK   19  A    between atoms: C20_29  and  N6_40 
REMARK   20  A    between atoms: C21_30  and  C22_31 
REMARK   21  A    between atoms: C22_31  and  C23_32 
REMARK   22  A    between atoms: C23_32  and  O8_43 
REMARK   23  A    between atoms: C24_33  and  C25_34 
REMARK   24  A    between atoms: C28_38  and  O6_39 
REMARK   25  A    between atoms: C29_42  and  O8_43 
REMARK   26  A    between atoms: C29_42  and  C35_49 
ROOT
ATOM      1  C14 non d ame     -32.276   9.091  24.892  0.00  0.00     0.089 C 
ATOM      2  H20 non d ame     -31.213   8.904  25.045  0.00  0.00     0.087 H 
ENDROOT
BRANCH   1   3
ATOM      3  N4  non d ame     -32.971   7.823  25.057  0.00  0.00    -0.346 N 
ATOM      4  C10 non d ame     -32.215   6.522  24.968  0.00  0.00     0.241 C 
ATOM      5  O4  non d ame     -31.046   6.519  24.761  0.00  0.00    -0.271 OA
ATOM      6  H19 non d ame     -33.966   7.846  25.229  0.00  0.00     0.163 HD
BRANCH   4   7
ATOM      7  C9  non d ame     -32.950   5.219  25.145  0.00  0.00     0.092 C 
ATOM      8  H11 non d ame     -32.257   4.464  25.515  0.00  0.00     0.088 H 
BRANCH   7   9
ATOM      9  N3  non d ame     -33.996   5.381  26.160  0.00  0.00    -0.346 N 
ATOM     10  C7  non d ame     -34.197   4.359  27.157  0.00  0.00     0.240 C 
ATOM     11  O3  non d ame     -33.527   3.400  27.158  0.00  0.00    -0.271 OA
ATOM     12  H10 non d ame     -34.582   6.203  26.171  0.00  0.00     0.163 HD
BRANCH  10  13
ATOM     13  C6  non d ame     -35.313   4.536  28.232  0.00  0.00     0.086 C 
ATOM     14  H6  non d ame     -35.117   3.967  29.141  0.00  0.00     0.086 H 
BRANCH  13  15
ATOM     15  N2  non d ame     -35.375   5.934  28.623  0.00  0.00    -0.343 N 
ATOM     16  C5  non d ame     -35.148   6.303  30.022  0.00  0.00     0.273 C 
ATOM     17  O2  non d ame     -34.920   5.467  30.826  0.00  0.00    -0.266 OA
ATOM     18  H5  non d ame     -35.573   6.642  27.930  0.00  0.00     0.163 HD
BRANCH  16  19
ATOM     19  C4  non d ame     -35.209   7.778  30.449  0.00  0.00     0.154 A 
ATOM     20  C1  non d ame     -35.137   8.297  31.781  0.00  0.00    -0.017 A 
ATOM     21  C2  non d ame     -35.240   9.698  31.631  0.00  0.00     0.077 A 
ATOM     22  H1  non d ame     -35.028   7.742  32.712  0.00  0.00     0.091 H 
ATOM     23  O1  non d ame     -35.355   9.945  30.359  0.00  0.00    -0.218 OA
ATOM     24  N1  non d ame     -35.340   8.840  29.649  0.00  0.00    -0.123 NA
BRANCH  21  25
ATOM     25  C3  non d ame     -35.218  10.728  32.751  0.00  0.00    -0.029 C 
ATOM     26  H2  non d ame     -36.226  10.865  33.140  0.00  0.00     0.036 H 
ATOM     27  H3  non d ame     -34.565  10.380  33.553  0.00  0.00     0.036 H 
ATOM     28  H4  non d ame     -34.845  11.677  32.367  0.00  0.00     0.036 H 
ENDBRANCH  21  25
ENDBRANCH  16  19
ENDBRANCH  13  15
BRANCH  13  29
ATOM     29  C8  non d ame     -36.638   4.100  27.661  0.00  0.00    -0.049 C 
ATOM     30  H7  non d ame     -36.677   3.012  27.619  0.00  0.00     0.030 H 
ATOM     31  H8  non d ame     -37.446   4.467  28.294  0.00  0.00     0.030 H 
ATOM     32  H9  non d ame     -36.752   4.507  26.655  0.00  0.00     0.030 H 
ENDBRANCH  13  29
ENDBRANCH  10  13
ENDBRANCH   7   9
BRANCH   7  33
ATOM     33  C11 non d ame     -33.603   4.805  23.793  0.00  0.00    -0.033 C 
ATOM     34  H12 non d ame     -33.697   3.719  23.793  0.00  0.00     0.042 H 
BRANCH  33  35
ATOM     35  C12 non d ame     -35.038   5.400  23.651  0.00  0.00    -0.071 C 
ATOM     36  H13 non d ame     -35.765   4.699  24.062  0.00  0.00     0.028 H 
ATOM     37  H14 non d ame     -35.096   6.344  24.192  0.00  0.00     0.028 H 
ATOM     38  H15 non d ame     -35.257   5.571  22.597  0.00  0.00     0.028 H 
ENDBRANCH  33  35
BRANCH  33  39
ATOM     39  C13 non d ame     -32.697   5.211  22.587  0.00  0.00    -0.071 C 
ATOM     40  H16 non d ame     -31.784   5.676  22.959  0.00  0.00     0.028 H 
ATOM     41  H17 non d ame     -32.444   4.324  22.006  0.00  0.00     0.028 H 
ATOM     42  H18 non d ame     -33.232   5.918  21.953  0.00  0.00     0.028 H 
ENDBRANCH  33  39
ENDBRANCH   7  33
ENDBRANCH   4   7
ENDBRANCH   1   3
BRANCH   1  43
ATOM     43  C15 non d ame     -32.848  10.107  25.923  0.00  0.00     0.240 C 
ATOM     44  O5  non d ame     -33.607   9.736  26.758  0.00  0.00    -0.271 OA
ATOM     45  N6  non d ame     -32.441  11.540  25.874  0.00  0.00    -0.355 N 
ATOM     46  H46 non d ame     -31.792  11.865  25.171  0.00  0.00     0.162 HD
BRANCH  45  47
ATOM     47  C20 non d ame     -32.993  12.492  26.861  0.00  0.00     0.013 C 
ATOM     48  H30 non d ame     -33.610  11.929  27.561  0.00  0.00     0.072 H 
BRANCH  47  49
ATOM     49  C21 non d ame     -33.834  13.524  26.144  0.00  0.00    -0.038 C 
ATOM     50  H31 non d ame     -33.555  13.453  25.093  0.00  0.00     0.036 H 
ATOM     51  H32 non d ame     -34.862  13.330  26.450  0.00  0.00     0.036 H 
BRANCH  49  52
ATOM     52  C22 non d ame     -33.514  14.969  26.585  0.00  0.00     0.018 C 
ATOM     53  H33 non d ame     -34.262  15.222  27.335  0.00  0.00     0.048 H 
ATOM     54  H34 non d ame     -32.456  14.969  26.848  0.00  0.00     0.048 H 
BRANCH  52  55
ATOM     55  C23 non d ame     -33.673  16.019  25.451  0.00  0.00     0.259 C 
ATOM     56  O7  non d ame     -34.753  16.342  25.075  0.00  0.00    -0.265 OA
BRANCH  55  57
ATOM     57  O8  non d ame     -32.510  16.583  24.854  0.00  0.00    -0.317 OA
BRANCH  57  58
ATOM     58  C29 non d ame     -31.338  15.773  24.985  0.00  0.00     0.052 C 
ATOM     59  H47 non d ame     -30.577  16.424  25.414  0.00  0.00     0.082 H 
ATOM     60  H48 non d ame     -31.655  14.878  25.518  0.00  0.00     0.082 H 
BRANCH  58  61
ATOM     61  C35 non d ame     -30.882  15.358  23.560  0.00  0.00    -0.034 A 
ATOM     62  C30 non d ame     -31.236  16.137  22.462  0.00  0.00    -0.075 A 
ATOM     63  C31 non d ame     -30.827  15.764  21.182  0.00  0.00    -0.082 A 
ATOM     64  H49 non d ame     -31.833  17.038  22.603  0.00  0.00     0.084 H 
ATOM     65  C32 non d ame     -30.064  14.607  21.002  0.00  0.00    -0.083 A 
ATOM     66  H50 non d ame     -31.104  16.377  20.323  0.00  0.00     0.083 H 
ATOM     67  C33 non d ame     -29.718  13.832  22.100  0.00  0.00    -0.082 A 
ATOM     68  H51 non d ame     -29.740  14.309  20.004  0.00  0.00     0.083 H 
ATOM     69  C34 non d ame     -30.122  14.201  23.381  0.00  0.00    -0.075 A 
ATOM     70  H52 non d ame     -29.124  12.928  21.956  0.00  0.00     0.083 H 
ATOM     71  H53 non d ame     -29.845  13.589  24.239  0.00  0.00     0.084 H 
ENDBRANCH  58  61
ENDBRANCH  57  58
ENDBRANCH  55  57
ENDBRANCH  52  55
ENDBRANCH  49  52
ENDBRANCH  47  49
BRANCH  47  72
ATOM     72  C24 non d ame     -31.852  13.187  27.601  0.00  0.00    -0.039 C 
ATOM     73  H35 non d ame     -31.076  13.348  26.852  0.00  0.00     0.036 H 
ATOM     74  H36 non d ame     -32.309  14.040  28.103  0.00  0.00     0.036 H 
BRANCH  72  75
ATOM     75  C25 non d ame     -31.225  12.250  28.739  0.00  0.00    -0.001 C 
ATOM     76  C26 non d ame     -32.428  11.503  29.574  0.00  0.00    -0.035 C 
ATOM     77  C27 non d ame     -32.228  11.701  30.899  0.00  0.00     0.085 C 
ATOM     78  H38 non d ame     -33.380  11.997  29.383  0.00  0.00     0.036 H 
ATOM     79  H39 non d ame     -32.344  10.421  29.464  0.00  0.00     0.036 H 
ATOM     80  N5  non d ame     -31.188  12.788  31.030  0.00  0.00    -0.049 N 
ATOM     81  H40 non d ame     -33.179  12.071  31.284  0.00  0.00     0.075 H 
ATOM     82  H41 non d ame     -31.815  10.767  31.275  0.00  0.00     0.075 H 
ATOM     83  C28 non d ame     -30.515  12.936  29.570  0.00  0.00     0.193 C 
ATOM     84  H42 non d ame     -31.688  13.639  31.241  0.00  0.00     0.280 HD
ATOM     85  H43 non d ame     -30.491  12.439  31.672  0.00  0.00     0.280 HD
ATOM     86  H44 non d ame     -29.525  12.523  29.373  0.00  0.00     0.129 H 
ATOM     87  H37 non d ame     -30.421  11.621  28.358  0.00  0.00     0.046 H 
BRANCH  83  88
ATOM     88  O6  non d ame     -30.434  14.314  29.202  0.00  0.00    -0.369 OA
ATOM     89  H45 non d ame     -29.793  14.420  28.495  0.00  0.00     0.212 HD
ENDBRANCH  83  88
ENDBRANCH  72  75
ENDBRANCH  47  72
ENDBRANCH  45  47
ENDBRANCH   1  43
BRANCH   1  90
ATOM     90  C16 non d ame     -32.510   9.607  23.482  0.00  0.00    -0.035 C 
ATOM     91  H21 non d ame     -33.112   8.844  22.991  0.00  0.00     0.037 H 
ATOM     92  H22 non d ame     -32.903  10.616  23.606  0.00  0.00     0.037 H 
BRANCH  90  93
ATOM     93  C17 non d ame     -31.201   9.743  22.640  0.00  0.00    -0.059 C 
ATOM     94  H23 non d ame     -31.396  10.459  21.841  0.00  0.00     0.038 H 
BRANCH  93  95
ATOM     95  C18 non d ame     -30.009  10.290  23.488  0.00  0.00    -0.073 C 
ATOM     96  H24 non d ame     -29.945   9.737  24.425  0.00  0.00     0.028 H 
ATOM     97  H25 non d ame     -29.080  10.166  22.931  0.00  0.00     0.028 H 
ATOM     98  H26 non d ame     -30.168  11.347  23.700  0.00  0.00     0.028 H 
ENDBRANCH  93  95
BRANCH  93  99
ATOM     99  C19 non d ame     -30.834   8.412  21.979  0.00  0.00    -0.073 C 
ATOM    100  H27 non d ame     -31.741   7.920  21.625  0.00  0.00     0.028 H 
ATOM    101  H28 non d ame     -30.168   8.594  21.137  0.00  0.00     0.028 H 
ATOM    102  H29 non d ame     -30.334   7.771  22.706  0.00  0.00     0.028 H 
ENDBRANCH  93  99
ENDBRANCH  90  93
ENDBRANCH   1  90
TORSDOF 26
ENDMDL
MODEL 5
REMARK VINA RESULT:      -6.8      3.092      6.811
REMARK  26 active torsions:
REMARK  status: ('A' for Active; 'I' for Inactive)
REMARK    1  A    between atoms: C2_2  and  C3_3 
REMARK    2  A    between atoms: C4_6  and  C5_7 
REMARK       I    between atoms: C5_7  and  N2_9 
REMARK    3  A    between atoms: N2_9  and  C6_10 
REMARK    4  A    between atoms: C6_10  and  C7_11 
REMARK    5  A    between atoms: C6_10  and  C8_13 
REMARK       I    between atoms: C7_11  and  N3_14 
REMARK    6  A    between atoms: N3_14  and  C9_15 
REMARK    7  A    between atoms: C9_15  and  C10_16 
REMARK    8  A    between atoms: C9_15  and  C11_18 
REMARK       I    between atoms: C10_16  and  N4_21 
REMARK    9  A    between atoms: C11_18  and  C12_19 
REMARK   10  A    between atoms: C11_18  and  C13_20 
REMARK   11  A    between atoms: N4_21  and  C14_22 
REMARK   12  A    between atoms: C14_22  and  C15_23 
REMARK   13  A    between atoms: C14_22  and  C16_25 
REMARK       I    between atoms: C15_23  and  N6_40 
REMARK   14  A    between atoms: C16_25  and  C17_26 
REMARK   15  A    between atoms: C17_26  and  C18_27 
REMARK   16  A    between atoms: C17_26  and  C19_28 
REMARK   17  A    between atoms: C20_29  and  C21_30 
REMARK   18  A    between atoms: C20_29  and  C24_33 
REMARK   19  A    between atoms: C20_29  and  N6_40 
REMARK   20  A    between atoms: C21_30  and  C22_31 
REMARK   21  A    between atoms: C22_31  and  C23_32 
REMARK   22  A    between atoms: C23_32  and  O8_43 
REMARK   23  A    between atoms: C24_33  and  C25_34 
REMARK   24  A    between atoms: C28_38  and  O6_39 
REMARK   25  A    between atoms: C29_42  and  O8_43 
REMARK   26  A    between atoms: C29_42  and  C35_49 
ROOT
ATOM      1  C14 non d ame     -30.984  14.072  24.173  0.00  0.00     0.089 C 
ATOM      2  H20 non d ame     -29.977  13.656  24.188  0.00  0.00     0.087 H 
ENDROOT
BRANCH   1   3
ATOM      3  N4  non d ame     -31.919  12.963  24.295  0.00  0.00    -0.346 N 
ATOM      4  C10 non d ame     -31.444  11.616  24.775  0.00  0.00     0.241 C 
ATOM      5  O4  non d ame     -30.303  11.446  25.057  0.00  0.00    -0.271 OA
ATOM      6  H19 non d ame     -32.884  13.127  24.047  0.00  0.00     0.163 HD
BRANCH   4   7
ATOM      7  C9  non d ame     -32.426  10.480  24.900  0.00  0.00     0.092 C 
ATOM      8  H11 non d ame     -33.155  10.547  24.093  0.00  0.00     0.088 H 
BRANCH   7   9
ATOM      9  N3  non d ame     -31.720   9.204  24.742  0.00  0.00    -0.346 N 
ATOM     10  C7  non d ame     -31.873   8.443  23.528  0.00  0.00     0.240 C 
ATOM     11  O3  non d ame     -32.559   8.841  22.667  0.00  0.00    -0.271 OA
ATOM     12  H10 non d ame     -31.126   8.848  25.477  0.00  0.00     0.163 HD
BRANCH  10  13
ATOM     13  C6  non d ame     -31.122   7.084  23.367  0.00  0.00     0.086 C 
ATOM     14  H6  non d ame     -30.045   7.208  23.257  0.00  0.00     0.086 H 
BRANCH  13  15
ATOM     15  N2  non d ame     -31.329   6.286  24.563  0.00  0.00    -0.343 N 
ATOM     16  C5  non d ame     -32.684   5.861  24.921  0.00  0.00     0.273 C 
ATOM     17  O2  non d ame     -33.601   6.169  24.243  0.00  0.00    -0.266 OA
ATOM     18  H5  non d ame     -30.540   6.029  25.139  0.00  0.00     0.163 HD
BRANCH  16  19
ATOM     19  C4  non d ame     -32.917   5.016  26.184  0.00  0.00     0.154 A 
ATOM     20  C1  non d ame     -32.538   5.341  27.524  0.00  0.00    -0.017 A 
ATOM     21  C2  non d ame     -32.976   4.246  28.301  0.00  0.00     0.077 A 
ATOM     22  H1  non d ame     -32.024   6.234  27.879  0.00  0.00     0.091 H 
ATOM     23  O1  non d ame     -33.541   3.398  27.493  0.00  0.00    -0.218 OA
ATOM     24  N1  non d ame     -33.519   3.825  26.252  0.00  0.00    -0.123 NA
BRANCH  21  25
ATOM     25  C3  non d ame     -32.818   4.088  29.808  0.00  0.00    -0.029 C 
ATOM     26  H2  non d ame     -33.683   3.563  30.211  0.00  0.00     0.036 H 
ATOM     27  H3  non d ame     -31.915   3.515  30.021  0.00  0.00     0.036 H 
ATOM     28  H4  non d ame     -32.741   5.072  30.271  0.00  0.00     0.036 H 
ENDBRANCH  21  25
ENDBRANCH  16  19
ENDBRANCH  13  15
BRANCH  13  29
ATOM     29  C8  non d ame     -31.653   6.354  22.159  0.00  0.00    -0.049 C 
ATOM     30  H7  non d ame     -31.658   7.025  21.301  0.00  0.00     0.030 H 
ATOM     31  H8  non d ame     -31.016   5.496  21.944  0.00  0.00     0.030 H 
ATOM     32  H9  non d ame     -32.669   6.012  22.360  0.00  0.00     0.030 H 
ENDBRANCH  13  29
ENDBRANCH  10  13
ENDBRANCH   7   9
BRANCH   7  33
ATOM     33  C11 non d ame     -33.098  10.528  26.304  0.00  0.00    -0.033 C 
ATOM     34  H12 non d ame     -32.708  11.402  26.825  0.00  0.00     0.042 H 
BRANCH  33  35
ATOM     35  C12 non d ame     -34.644  10.702  26.187  0.00  0.00    -0.071 C 
ATOM     36  H13 non d ame     -35.128   9.729  26.286  0.00  0.00     0.028 H 
ATOM     37  H14 non d ame     -34.996  11.364  26.977  0.00  0.00     0.028 H 
ATOM     38  H15 non d ame     -34.889  11.131  25.215  0.00  0.00     0.028 H 
ENDBRANCH  33  35
BRANCH  33  39
ATOM     39  C13 non d ame     -32.731   9.262  27.142  0.00  0.00    -0.071 C 
ATOM     40  H16 non d ame     -31.649   9.202  27.256  0.00  0.00     0.028 H 
ATOM     41  H17 non d ame     -33.197   9.329  28.126  0.00  0.00     0.028 H 
ATOM     42  H18 non d ame     -33.093   8.370  26.631  0.00  0.00     0.028 H 
ENDBRANCH  33  39
ENDBRANCH   7  33
ENDBRANCH   4   7
ENDBRANCH   1   3
BRANCH   1  43
ATOM     43  C15 non d ame     -31.229  15.057  25.353  0.00  0.00     0.240 C 
ATOM     44  O5  non d ame     -30.840  16.178  25.277  0.00  0.00    -0.271 OA
ATOM     45  N6  non d ame     -31.957  14.607  26.572  0.00  0.00    -0.355 N 
ATOM     46  H46 non d ame     -32.297  13.658  26.646  0.00  0.00     0.162 HD
BRANCH  45  47
ATOM     47  C20 non d ame     -32.182  15.556  27.684  0.00  0.00     0.013 C 
ATOM     48  H30 non d ame     -31.240  16.067  27.883  0.00  0.00     0.072 H 
BRANCH  47  49
ATOM     49  C21 non d ame     -32.627  14.793  28.911  0.00  0.00    -0.038 C 
ATOM     50  H31 non d ame     -31.785  14.831  29.603  0.00  0.00     0.036 H 
ATOM     51  H32 non d ame     -33.586  15.226  29.195  0.00  0.00     0.036 H 
BRANCH  49  52
ATOM     52  C22 non d ame     -32.891  13.298  28.624  0.00  0.00     0.018 C 
ATOM     53  H33 non d ame     -33.759  13.032  29.225  0.00  0.00     0.048 H 
ATOM     54  H34 non d ame     -32.930  13.209  27.539  0.00  0.00     0.048 H 
BRANCH  52  55
ATOM     55  C23 non d ame     -31.743  12.360  29.090  0.00  0.00     0.259 C 
ATOM     56  O7  non d ame     -30.661  12.445  28.607  0.00  0.00    -0.265 OA
BRANCH  55  57
ATOM     57  O8  non d ame     -32.004  11.385  30.093  0.00  0.00    -0.317 OA
BRANCH  57  58
ATOM     58  C29 non d ame     -32.924  11.816  31.100  0.00  0.00     0.052 C 
ATOM     59  H47 non d ame     -32.332  11.947  32.005  0.00  0.00     0.082 H 
ATOM     60  H48 non d ame     -33.458  12.663  30.670  0.00  0.00     0.082 H 
BRANCH  58  61
ATOM     61  C35 non d ame     -33.942  10.669  31.341  0.00  0.00    -0.034 A 
ATOM     62  C30 non d ame     -33.957   9.563  30.496  0.00  0.00    -0.075 A 
ATOM     63  C31 non d ame     -34.871   8.533  30.712  0.00  0.00    -0.082 A 
ATOM     64  H49 non d ame     -33.254   9.504  29.665  0.00  0.00     0.084 H 
ATOM     65  C32 non d ame     -35.773   8.611  31.776  0.00  0.00    -0.083 A 
ATOM     66  H50 non d ame     -34.879   7.666  30.049  0.00  0.00     0.083 H 
ATOM     67  C33 non d ame     -35.757   9.718  32.613  0.00  0.00    -0.082 A 
ATOM     68  H51 non d ame     -36.491   7.809  31.952  0.00  0.00     0.083 H 
ATOM     69  C34 non d ame     -34.844  10.749  32.403  0.00  0.00    -0.075 A 
ATOM     70  H52 non d ame     -36.464   9.778  33.442  0.00  0.00     0.083 H 
ATOM     71  H53 non d ame     -34.836  11.615  33.066  0.00  0.00     0.084 H 
ENDBRANCH  58  61
ENDBRANCH  57  58
ENDBRANCH  55  57
ENDBRANCH  52  55
ENDBRANCH  49  52
ENDBRANCH  47  49
BRANCH  47  72
ATOM     72  C24 non d ame     -33.260  16.564  27.291  0.00  0.00    -0.039 C 
ATOM     73  H35 non d ame     -33.419  17.178  28.179  0.00  0.00     0.036 H 
ATOM     74  H36 non d ame     -32.905  17.023  26.368  0.00  0.00     0.036 H 
BRANCH  72  75
ATOM     75  C25 non d ame     -34.652  15.846  26.957  0.00  0.00    -0.001 C 
ATOM     76  C26 non d ame     -34.970  15.962  25.349  0.00  0.00    -0.035 C 
ATOM     77  C27 non d ame     -36.222  16.452  25.186  0.00  0.00     0.085 C 
ATOM     78  H38 non d ame     -34.337  16.725  24.896  0.00  0.00     0.036 H 
ATOM     79  H39 non d ame     -35.026  14.968  24.905  0.00  0.00     0.036 H 
ATOM     80  N5  non d ame     -36.665  16.987  26.527  0.00  0.00    -0.049 N 
ATOM     81  H40 non d ame     -36.121  17.283  24.487  0.00  0.00     0.075 H 
ATOM     82  H41 non d ame     -36.839  15.593  24.925  0.00  0.00     0.075 H 
ATOM     83  C28 non d ame     -35.626  16.389  27.608  0.00  0.00     0.193 C 
ATOM     84  H42 non d ame     -36.547  17.989  26.488  0.00  0.00     0.280 HD
ATOM     85  H43 non d ame     -37.577  16.592  26.704  0.00  0.00     0.280 HD
ATOM     86  H44 non d ame     -35.917  15.562  28.256  0.00  0.00     0.129 H 
ATOM     87  H37 non d ame     -34.723  14.855  27.407  0.00  0.00     0.046 H 
BRANCH  83  88
ATOM     88  O6  non d ame     -35.178  17.423  28.486  0.00  0.00    -0.369 OA
ATOM     89  H45 non d ame     -34.477  17.084  29.049  0.00  0.00     0.212 HD
ENDBRANCH  83  88
ENDBRANCH  72  75
ENDBRANCH  47  72
ENDBRANCH  45  47
ENDBRANCH   1  43
BRANCH   1  90
ATOM     90  C16 non d ame     -31.228  14.785  22.853  0.00  0.00    -0.035 C 
ATOM     91  H21 non d ame     -32.082  14.280  22.406  0.00  0.00     0.037 H 
ATOM     92  H22 non d ame     -31.290  15.844  23.104  0.00  0.00     0.037 H 
BRANCH  90  93
ATOM     93  C17 non d ame     -30.050  14.641  21.837  0.00  0.00    -0.059 C 
ATOM     94  H23 non d ame     -29.954  13.583  21.591  0.00  0.00     0.038 H 
BRANCH  93  95
ATOM     95  C18 non d ame     -30.319  15.416  20.508  0.00  0.00    -0.073 C 
ATOM     96  H24 non d ame     -31.296  15.137  20.115  0.00  0.00     0.028 H 
ATOM     97  H25 non d ame     -30.300  16.489  20.703  0.00  0.00     0.028 H 
ATOM     98  H26 non d ame     -29.549  15.166  19.779  0.00  0.00     0.028 H 
ENDBRANCH  93  95
BRANCH  93  99
ATOM     99  C19 non d ame     -28.727  15.083  22.467  0.00  0.00    -0.073 C 
ATOM    100  H27 non d ame     -28.007  15.311  21.679  0.00  0.00     0.028 H 
ATOM    101  H28 non d ame     -28.892  15.973  23.075  0.00  0.00     0.028 H 
ATOM    102  H29 non d ame     -28.337  14.282  23.095  0.00  0.00     0.028 H 
ENDBRANCH  93  99
ENDBRANCH  90  93
ENDBRANCH   1  90
TORSDOF 26
ENDMDL
MODEL 6
REMARK VINA RESULT:      -6.7      3.218      9.737
REMARK  26 active torsions:
REMARK  status: ('A' for Active; 'I' for Inactive)
REMARK    1  A    between atoms: C2_2  and  C3_3 
REMARK    2  A    between atoms: C4_6  and  C5_7 
REMARK       I    between atoms: C5_7  and  N2_9 
REMARK    3  A    between atoms: N2_9  and  C6_10 
REMARK    4  A    between atoms: C6_10  and  C7_11 
REMARK    5  A    between atoms: C6_10  and  C8_13 
REMARK       I    between atoms: C7_11  and  N3_14 
REMARK    6  A    between atoms: N3_14  and  C9_15 
REMARK    7  A    between atoms: C9_15  and  C10_16 
REMARK    8  A    between atoms: C9_15  and  C11_18 
REMARK       I    between atoms: C10_16  and  N4_21 
REMARK    9  A    between atoms: C11_18  and  C12_19 
REMARK   10  A    between atoms: C11_18  and  C13_20 
REMARK   11  A    between atoms: N4_21  and  C14_22 
REMARK   12  A    between atoms: C14_22  and  C15_23 
REMARK   13  A    between atoms: C14_22  and  C16_25 
REMARK       I    between atoms: C15_23  and  N6_40 
REMARK   14  A    between atoms: C16_25  and  C17_26 
REMARK   15  A    between atoms: C17_26  and  C18_27 
REMARK   16  A    between atoms: C17_26  and  C19_28 
REMARK   17  A    between atoms: C20_29  and  C21_30 
REMARK   18  A    between atoms: C20_29  and  C24_33 
REMARK   19  A    between atoms: C20_29  and  N6_40 
REMARK   20  A    between atoms: C21_30  and  C22_31 
REMARK   21  A    between atoms: C22_31  and  C23_32 
REMARK   22  A    between atoms: C23_32  and  O8_43 
REMARK   23  A    between atoms: C24_33  and  C25_34 
REMARK   24  A    between atoms: C28_38  and  O6_39 
REMARK   25  A    between atoms: C29_42  and  O8_43 
REMARK   26  A    between atoms: C29_42  and  C35_49 
ROOT
ATOM      1  C14 non d ame     -31.211  11.038  25.309  0.00  0.00     0.089 C 
ATOM      2  H20 non d ame     -30.130  10.898  25.276  0.00  0.00     0.087 H 
ENDROOT
BRANCH   1   3
ATOM      3  N4  non d ame     -31.503  12.338  24.722  0.00  0.00    -0.346 N 
ATOM      4  C10 non d ame     -30.734  12.819  23.518  0.00  0.00     0.241 C 
ATOM      5  O4  non d ame     -29.884  12.144  23.039  0.00  0.00    -0.271 OA
ATOM      6  H19 non d ame     -32.228  12.898  25.146  0.00  0.00     0.163 HD
BRANCH   4   7
ATOM      7  C9  non d ame     -31.053  14.164  22.920  0.00  0.00     0.092 C 
ATOM      8  H11 non d ame     -32.071  14.153  22.533  0.00  0.00     0.088 H 
BRANCH   7   9
ATOM      9  N3  non d ame     -30.998  15.190  23.966  0.00  0.00    -0.346 N 
ATOM     10  C7  non d ame     -32.208  15.610  24.627  0.00  0.00     0.240 C 
ATOM     11  O3  non d ame     -33.235  15.134  24.330  0.00  0.00    -0.271 OA
ATOM     12  H10 non d ame     -30.119  15.610  24.232  0.00  0.00     0.163 HD
BRANCH  10  13
ATOM     13  C6  non d ame     -32.144  16.704  25.738  0.00  0.00     0.086 C 
ATOM     14  H6  non d ame     -31.342  17.423  25.575  0.00  0.00     0.086 H 
BRANCH  13  15
ATOM     15  N2  non d ame     -33.386  17.458  25.729  0.00  0.00    -0.343 N 
ATOM     16  C5  non d ame     -33.376  18.871  26.115  0.00  0.00     0.273 C 
ATOM     17  O2  non d ame     -32.363  19.391  26.434  0.00  0.00    -0.266 OA
ATOM     18  H5  non d ame     -34.248  17.005  25.458  0.00  0.00     0.163 HD
BRANCH  16  19
ATOM     19  C4  non d ame     -34.682  19.681  26.110  0.00  0.00     0.154 A 
ATOM     20  C1  non d ame     -35.781  19.542  25.204  0.00  0.00    -0.017 A 
ATOM     21  C2  non d ame     -36.721  20.510  25.624  0.00  0.00     0.077 A 
ATOM     22  H1  non d ame     -35.881  18.847  24.371  0.00  0.00     0.091 H 
ATOM     23  O1  non d ame     -36.213  21.125  26.650  0.00  0.00    -0.218 OA
ATOM     24  N1  non d ame     -35.023  20.658  26.953  0.00  0.00    -0.123 NA
BRANCH  21  25
ATOM     25  C3  non d ame     -38.079  20.781  24.991  0.00  0.00    -0.029 C 
ATOM     26  H2  non d ame     -38.867  20.421  25.652  0.00  0.00     0.036 H 
ATOM     27  H3  non d ame     -38.200  21.853  24.835  0.00  0.00     0.036 H 
ATOM     28  H4  non d ame     -38.145  20.265  24.033  0.00  0.00     0.036 H 
ENDBRANCH  21  25
ENDBRANCH  16  19
ENDBRANCH  13  15
BRANCH  13  29
ATOM     29  C8  non d ame     -31.946  16.049  27.081  0.00  0.00    -0.049 C 
ATOM     30  H7  non d ame     -31.254  16.643  27.677  0.00  0.00     0.030 H 
ATOM     31  H8  non d ame     -32.903  15.983  27.598  0.00  0.00     0.030 H 
ATOM     32  H9  non d ame     -31.538  15.047  26.940  0.00  0.00     0.030 H 
ENDBRANCH  13  29
ENDBRANCH  10  13
ENDBRANCH   7   9
BRANCH   7  33
ATOM     33  C11 non d ame     -30.009  14.500  21.814  0.00  0.00    -0.033 C 
ATOM     34  H12 non d ame     -29.594  13.557  21.457  0.00  0.00     0.042 H 
BRANCH  33  35
ATOM     35  C12 non d ame     -30.679  15.208  20.596  0.00  0.00    -0.071 C 
ATOM     36  H13 non d ame     -30.360  14.725  19.673  0.00  0.00     0.028 H 
ATOM     37  H14 non d ame     -31.763  15.139  20.687  0.00  0.00     0.028 H 
ATOM     38  H15 non d ame     -30.382  16.257  20.577  0.00  0.00     0.028 H 
ENDBRANCH  33  35
BRANCH  33  39
ATOM     39  C13 non d ame     -28.836  15.355  22.392  0.00  0.00    -0.071 C 
ATOM     40  H16 non d ame     -27.905  14.794  22.316  0.00  0.00     0.028 H 
ATOM     41  H17 non d ame     -28.750  16.283  21.827  0.00  0.00     0.028 H 
ATOM     42  H18 non d ame     -29.036  15.585  23.439  0.00  0.00     0.028 H 
ENDBRANCH  33  39
ENDBRANCH   7  33
ENDBRANCH   4   7
ENDBRANCH   1   3
BRANCH   1  43
ATOM     43  C15 non d ame     -31.969   9.947  24.499  0.00  0.00     0.240 C 
ATOM     44  O5  non d ame     -33.085  10.145  24.141  0.00  0.00    -0.271 OA
ATOM     45  N6  non d ame     -31.300   8.659  24.161  0.00  0.00    -0.355 N 
ATOM     46  H46 non d ame     -30.350   8.481  24.455  0.00  0.00     0.162 HD
BRANCH  45  47
ATOM     47  C20 non d ame     -32.034   7.633  23.389  0.00  0.00     0.013 C 
ATOM     48  H30 non d ame     -33.097   7.865  23.450  0.00  0.00     0.072 H 
BRANCH  47  49
ATOM     49  C21 non d ame     -31.767   6.270  23.988  0.00  0.00    -0.038 C 
ATOM     50  H31 non d ame     -31.569   5.611  23.143  0.00  0.00     0.036 H 
ATOM     51  H32 non d ame     -31.000   6.428  24.747  0.00  0.00     0.036 H 
BRANCH  49  52
ATOM     52  C22 non d ame     -32.994   5.687  24.722  0.00  0.00     0.018 C 
ATOM     53  H33 non d ame     -33.799   6.404  24.566  0.00  0.00     0.048 H 
ATOM     54  H34 non d ame     -33.096   4.665  24.358  0.00  0.00     0.048 H 
BRANCH  52  55
ATOM     55  C23 non d ame     -32.810   5.578  26.261  0.00  0.00     0.259 C 
ATOM     56  O7  non d ame     -31.922   6.153  26.804  0.00  0.00    -0.265 OA
BRANCH  55  57
ATOM     57  O8  non d ame     -33.706   4.770  27.015  0.00  0.00    -0.317 OA
BRANCH  57  58
ATOM     58  C29 non d ame     -33.335   4.613  28.387  0.00  0.00     0.052 C 
ATOM     59  H47 non d ame     -33.187   3.543  28.532  0.00  0.00     0.082 H 
ATOM     60  H48 non d ame     -32.510   5.305  28.551  0.00  0.00     0.082 H 
BRANCH  58  61
ATOM     61  C35 non d ame     -34.535   5.065  29.262  0.00  0.00    -0.034 A 
ATOM     62  C30 non d ame     -35.781   5.276  28.679  0.00  0.00    -0.075 A 
ATOM     63  C31 non d ame     -36.859   5.683  29.465  0.00  0.00    -0.082 A 
ATOM     64  H49 non d ame     -35.913   5.123  27.608  0.00  0.00     0.084 H 
ATOM     65  C32 non d ame     -36.686   5.881  30.838  0.00  0.00    -0.083 A 
ATOM     66  H50 non d ame     -37.835   5.845  29.006  0.00  0.00     0.083 H 
ATOM     67  C33 non d ame     -35.440   5.674  31.413  0.00  0.00    -0.082 A 
ATOM     68  H51 non d ame     -37.524   6.199  31.459  0.00  0.00     0.083 H 
ATOM     69  C34 non d ame     -34.361   5.265  30.632  0.00  0.00    -0.075 A 
ATOM     70  H52 non d ame     -35.308   5.832  32.484  0.00  0.00     0.083 H 
ATOM     71  H53 non d ame     -33.386   5.103  31.092  0.00  0.00     0.084 H 
ENDBRANCH  58  61
ENDBRANCH  57  58
ENDBRANCH  55  57
ENDBRANCH  52  55
ENDBRANCH  49  52
ENDBRANCH  47  49
BRANCH  47  72
ATOM     72  C24 non d ame     -31.569   7.651  21.934  0.00  0.00    -0.039 C 
ATOM     73  H35 non d ame     -31.063   8.608  21.804  0.00  0.00     0.036 H 
ATOM     74  H36 non d ame     -31.019   6.720  21.794  0.00  0.00     0.036 H 
BRANCH  72  75
ATOM     75  C25 non d ame     -32.806   7.628  20.917  0.00  0.00    -0.001 C 
ATOM     76  C26 non d ame     -34.213   7.838  21.741  0.00  0.00    -0.035 C 
ATOM     77  C27 non d ame     -35.076   6.854  21.392  0.00  0.00     0.085 C 
ATOM     78  H38 non d ame     -34.052   7.670  22.806  0.00  0.00     0.036 H 
ATOM     79  H39 non d ame     -34.713   8.747  21.403  0.00  0.00     0.036 H 
ATOM     80  N5  non d ame     -34.275   5.807  20.655  0.00  0.00    -0.049 N 
ATOM     81  H40 non d ame     -35.434   6.434  22.332  0.00  0.00     0.075 H 
ATOM     82  H41 non d ame     -35.779   7.316  20.699  0.00  0.00     0.075 H 
ATOM     83  C28 non d ame     -32.868   6.505  20.282  0.00  0.00     0.193 C 
ATOM     84  H42 non d ame     -34.100   5.064  21.316  0.00  0.00     0.280 HD
ATOM     85  H43 non d ame     -34.776   5.615  19.800  0.00  0.00     0.280 HD
ATOM     86  H44 non d ame     -32.671   6.842  19.264  0.00  0.00     0.129 H 
ATOM     87  H37 non d ame     -32.639   8.266  20.050  0.00  0.00     0.046 H 
BRANCH  83  88
ATOM     88  O6  non d ame     -31.784   5.637  20.615  0.00  0.00    -0.369 OA
ATOM     89  H45 non d ame     -31.891   4.800  20.156  0.00  0.00     0.212 HD
ENDBRANCH  83  88
ENDBRANCH  72  75
ENDBRANCH  47  72
ENDBRANCH  45  47
ENDBRANCH   1  43
BRANCH   1  90
ATOM     90  C16 non d ame     -31.688  11.026  26.753  0.00  0.00    -0.035 C 
ATOM     91  H21 non d ame     -32.657  10.530  26.732  0.00  0.00     0.037 H 
ATOM     92  H22 non d ame     -30.866  10.596  27.325  0.00  0.00     0.037 H 
BRANCH  90  93
ATOM     93  C17 non d ame     -31.937  12.452  27.341  0.00  0.00    -0.059 C 
ATOM     94  H23 non d ame     -31.731  13.175  26.552  0.00  0.00     0.038 H 
BRANCH  93  95
ATOM     95  C18 non d ame     -33.418  12.652  27.796  0.00  0.00    -0.073 C 
ATOM     96  H24 non d ame     -33.494  13.555  28.402  0.00  0.00     0.028 H 
ATOM     97  H25 non d ame     -34.057  12.751  26.918  0.00  0.00     0.028 H 
ATOM     98  H26 non d ame     -33.737  11.791  28.383  0.00  0.00     0.028 H 
ENDBRANCH  93  95
BRANCH  93  99
ATOM     99  C19 non d ame     -30.970  12.745  28.492  0.00  0.00    -0.073 C 
ATOM    100  H27 non d ame     -30.643  11.806  28.939  0.00  0.00     0.028 H 
ATOM    101  H28 non d ame     -30.104  13.286  28.111  0.00  0.00     0.028 H 
ATOM    102  H29 non d ame     -31.474  13.350  29.245  0.00  0.00     0.028 H 
ENDBRANCH  93  99
ENDBRANCH  90  93
ENDBRANCH   1  90
TORSDOF 26
ENDMDL
MODEL 7
REMARK VINA RESULT:      -6.6      5.000      9.794
REMARK  26 active torsions:
REMARK  status: ('A' for Active; 'I' for Inactive)
REMARK    1  A    between atoms: C2_2  and  C3_3 
REMARK    2  A    between atoms: C4_6  and  C5_7 
REMARK       I    between atoms: C5_7  and  N2_9 
REMARK    3  A    between atoms: N2_9  and  C6_10 
REMARK    4  A    between atoms: C6_10  and  C7_11 
REMARK    5  A    between atoms: C6_10  and  C8_13 
REMARK       I    between atoms: C7_11  and  N3_14 
REMARK    6  A    between atoms: N3_14  and  C9_15 
REMARK    7  A    between atoms: C9_15  and  C10_16 
REMARK    8  A    between atoms: C9_15  and  C11_18 
REMARK       I    between atoms: C10_16  and  N4_21 
REMARK    9  A    between atoms: C11_18  and  C12_19 
REMARK   10  A    between atoms: C11_18  and  C13_20 
REMARK   11  A    between atoms: N4_21  and  C14_22 
REMARK   12  A    between atoms: C14_22  and  C15_23 
REMARK   13  A    between atoms: C14_22  and  C16_25 
REMARK       I    between atoms: C15_23  and  N6_40 
REMARK   14  A    between atoms: C16_25  and  C17_26 
REMARK   15  A    between atoms: C17_26  and  C18_27 
REMARK   16  A    between atoms: C17_26  and  C19_28 
REMARK   17  A    between atoms: C20_29  and  C21_30 
REMARK   18  A    between atoms: C20_29  and  C24_33 
REMARK   19  A    between atoms: C20_29  and  N6_40 
REMARK   20  A    between atoms: C21_30  and  C22_31 
REMARK   21  A    between atoms: C22_31  and  C23_32 
REMARK   22  A    between atoms: C23_32  and  O8_43 
REMARK   23  A    between atoms: C24_33  and  C25_34 
REMARK   24  A    between atoms: C28_38  and  O6_39 
REMARK   25  A    between atoms: C29_42  and  O8_43 
REMARK   26  A    between atoms: C29_42  and  C35_49 
ROOT
ATOM      1  C14 non d ame     -36.818   9.616  28.486  0.00  0.00     0.089 C 
ATOM      2  H20 non d ame     -37.700  10.043  28.006  0.00  0.00     0.087 H 
ENDROOT
BRANCH   1   3
ATOM      3  N4  non d ame     -36.794   8.195  28.174  0.00  0.00    -0.346 N 
ATOM      4  C10 non d ame     -37.150   7.712  26.791  0.00  0.00     0.241 C 
ATOM      5  O4  non d ame     -37.454   8.486  25.944  0.00  0.00    -0.271 OA
ATOM      6  H19 non d ame     -36.536   7.553  28.910  0.00  0.00     0.163 HD
BRANCH   4   7
ATOM      7  C9  non d ame     -37.115   6.237  26.485  0.00  0.00     0.092 C 
ATOM      8  H11 non d ame     -37.930   5.994  25.804  0.00  0.00     0.088 H 
BRANCH   7   9
ATOM      9  N3  non d ame     -35.862   5.910  25.798  0.00  0.00    -0.346 N 
ATOM     10  C7  non d ame     -35.887   5.473  24.424  0.00  0.00     0.240 C 
ATOM     11  O3  non d ame     -36.906   5.380  23.856  0.00  0.00    -0.271 OA
ATOM     12  H10 non d ame     -34.976   5.984  26.276  0.00  0.00     0.163 HD
BRANCH  10  13
ATOM     13  C6  non d ame     -34.551   5.123  23.699  0.00  0.00     0.086 C 
ATOM     14  H6  non d ame     -34.685   4.939  22.633  0.00  0.00     0.086 H 
BRANCH  13  15
ATOM     15  N2  non d ame     -33.641   6.250  23.815  0.00  0.00    -0.343 N 
ATOM     16  C5  non d ame     -32.729   6.557  22.712  0.00  0.00     0.273 C 
ATOM     17  O2  non d ame     -32.731   5.890  21.736  0.00  0.00    -0.266 OA
ATOM     18  H5  non d ame     -33.643   6.813  24.653  0.00  0.00     0.163 HD
BRANCH  16  19
ATOM     19  C4  non d ame     -31.762   7.747  22.821  0.00  0.00     0.154 A 
ATOM     20  C1  non d ame     -32.092   9.103  23.135  0.00  0.00    -0.017 A 
ATOM     21  C2  non d ame     -30.859   9.792  23.109  0.00  0.00     0.077 A 
ATOM     22  H1  non d ame     -33.075   9.523  23.349  0.00  0.00     0.091 H 
ATOM     23  O1  non d ame     -29.936   8.924  22.816  0.00  0.00    -0.218 OA
ATOM     24  N1  non d ame     -30.438   7.723  22.643  0.00  0.00    -0.123 NA
BRANCH  21  25
ATOM     25  C3  non d ame     -30.649  11.276  23.378  0.00  0.00    -0.029 C 
ATOM     26  H2  non d ame     -29.650  11.567  23.056  0.00  0.00     0.036 H 
ATOM     27  H3  non d ame     -31.390  11.854  22.823  0.00  0.00     0.036 H 
ATOM     28  H4  non d ame     -30.760  11.473  24.444  0.00  0.00     0.036 H 
ENDBRANCH  21  25
ENDBRANCH  16  19
ENDBRANCH  13  15
BRANCH  13  29
ATOM     29  C8  non d ame     -33.940   3.898  24.330  0.00  0.00    -0.049 C 
ATOM     30  H7  non d ame     -32.894   3.819  24.035  0.00  0.00     0.030 H 
ATOM     31  H8  non d ame     -34.005   3.977  25.415  0.00  0.00     0.030 H 
ATOM     32  H9  non d ame     -34.479   3.010  23.997  0.00  0.00     0.030 H 
ENDBRANCH  13  29
ENDBRANCH  10  13
ENDBRANCH   7   9
BRANCH   7  33
ATOM     33  C11 non d ame     -37.201   5.430  27.814  0.00  0.00    -0.033 C 
ATOM     34  H12 non d ame     -36.517   5.894  28.525  0.00  0.00     0.042 H 
BRANCH  33  35
ATOM     35  C12 non d ame     -38.634   5.500  28.429  0.00  0.00    -0.071 C 
ATOM     36  H13 non d ame     -39.173   6.345  28.000  0.00  0.00     0.028 H 
ATOM     37  H14 non d ame     -39.170   4.577  28.208  0.00  0.00     0.028 H 
ATOM     38  H15 non d ame     -38.560   5.628  29.509  0.00  0.00     0.028 H 
ENDBRANCH  33  35
BRANCH  33  39
ATOM     39  C13 non d ame     -36.747   3.951  27.601  0.00  0.00    -0.071 C 
ATOM     40  H16 non d ame     -36.279   3.579  28.512  0.00  0.00     0.028 H 
ATOM     41  H17 non d ame     -37.614   3.335  27.358  0.00  0.00     0.028 H 
ATOM     42  H18 non d ame     -36.031   3.906  26.780  0.00  0.00     0.028 H 
ENDBRANCH  33  39
ENDBRANCH   7  33
ENDBRANCH   4   7
ENDBRANCH   1   3
BRANCH   1  43
ATOM     43  C15 non d ame     -35.499  10.259  27.967  0.00  0.00     0.240 C 
ATOM     44  O5  non d ame     -35.544  11.242  27.299  0.00  0.00    -0.271 OA
ATOM     45  N6  non d ame     -34.181   9.655  28.310  0.00  0.00    -0.355 N 
ATOM     46  H46 non d ame     -34.130   8.823  28.880  0.00  0.00     0.162 HD
BRANCH  45  47
ATOM     47  C20 non d ame     -32.937  10.279  27.809  0.00  0.00     0.013 C 
ATOM     48  H30 non d ame     -33.214  11.153  27.220  0.00  0.00     0.072 H 
BRANCH  47  49
ATOM     49  C21 non d ame     -32.192   9.287  26.945  0.00  0.00    -0.038 C 
ATOM     50  H31 non d ame     -31.812   9.860  26.099  0.00  0.00     0.036 H 
ATOM     51  H32 non d ame     -31.499   8.776  27.614  0.00  0.00     0.036 H 
BRANCH  49  52
ATOM     52  C22 non d ame     -33.113   8.196  26.355  0.00  0.00     0.018 C 
ATOM     53  H33 non d ame     -34.107   8.404  26.750  0.00  0.00     0.048 H 
ATOM     54  H34 non d ame     -32.938   8.213  25.280  0.00  0.00     0.048 H 
BRANCH  52  55
ATOM     55  C23 non d ame     -32.759   6.758  26.824  0.00  0.00     0.259 C 
ATOM     56  O7  non d ame     -31.813   6.194  26.377  0.00  0.00    -0.265 OA
BRANCH  55  57
ATOM     57  O8  non d ame     -33.587   6.114  27.785  0.00  0.00    -0.317 OA
BRANCH  57  58
ATOM     58  C29 non d ame     -33.146   4.802  28.149  0.00  0.00     0.052 C 
ATOM     59  H47 non d ame     -33.789   4.113  27.603  0.00  0.00     0.082 H 
ATOM     60  H48 non d ame     -32.070   4.795  27.981  0.00  0.00     0.082 H 
BRANCH  58  61
ATOM     61  C35 non d ame     -33.405   4.616  29.669  0.00  0.00    -0.034 A 
ATOM     62  C30 non d ame     -34.455   5.291  30.284  0.00  0.00    -0.075 A 
ATOM     63  C31 non d ame     -34.687   5.124  31.649  0.00  0.00    -0.082 A 
ATOM     64  H49 non d ame     -35.094   5.951  29.699  0.00  0.00     0.084 H 
ATOM     65  C32 non d ame     -33.864   4.279  32.398  0.00  0.00    -0.083 A 
ATOM     66  H50 non d ame     -35.511   5.653  32.128  0.00  0.00     0.083 H 
ATOM     67  C33 non d ame     -32.816   3.611  31.780  0.00  0.00    -0.082 A 
ATOM     68  H51 non d ame     -34.039   4.142  33.466  0.00  0.00     0.083 H 
ATOM     69  C34 non d ame     -32.581   3.774  30.417  0.00  0.00    -0.075 A 
ATOM     70  H52 non d ame     -32.173   2.954  32.369  0.00  0.00     0.083 H 
ATOM     71  H53 non d ame     -31.757   3.244  29.938  0.00  0.00     0.084 H 
ENDBRANCH  58  61
ENDBRANCH  57  58
ENDBRANCH  55  57
ENDBRANCH  52  55
ENDBRANCH  49  52
ENDBRANCH  47  49
BRANCH  47  72
ATOM     72  C24 non d ame     -32.056  10.692  28.987  0.00  0.00    -0.039 C 
ATOM     73  H35 non d ame     -32.311  10.004  29.794  0.00  0.00     0.036 H 
ATOM     74  H36 non d ame     -31.040  10.718  28.594  0.00  0.00     0.036 H 
BRANCH  72  75
ATOM     75  C25 non d ame     -32.404  12.169  29.498  0.00  0.00    -0.001 C 
ATOM     76  C26 non d ame     -31.446  13.265  28.734  0.00  0.00    -0.035 C 
ATOM     77  C27 non d ame     -30.862  14.060  29.664  0.00  0.00     0.085 C 
ATOM     78  H38 non d ame     -30.602  12.762  28.264  0.00  0.00     0.036 H 
ATOM     79  H39 non d ame     -32.057  13.958  28.155  0.00  0.00     0.036 H 
ATOM     80  N5  non d ame     -31.077  13.399  31.005  0.00  0.00    -0.049 N 
ATOM     81  H40 non d ame     -29.798  14.050  29.428  0.00  0.00     0.075 H 
ATOM     82  H41 non d ame     -31.418  14.996  29.637  0.00  0.00     0.075 H 
ATOM     83  C28 non d ame     -32.216  12.280  30.771  0.00  0.00     0.193 C 
ATOM     84  H42 non d ame     -30.211  12.933  31.235  0.00  0.00     0.280 HD
ATOM     85  H43 non d ame     -31.446  14.112  31.618  0.00  0.00     0.280 HD
ATOM     86  H44 non d ame     -33.239  12.453  31.107  0.00  0.00     0.129 H 
ATOM     87  H37 non d ame     -33.476  12.364  29.500  0.00  0.00     0.046 H 
BRANCH  83  88
ATOM     88  O6  non d ame     -31.823  11.043  31.367  0.00  0.00    -0.369 OA
ATOM     89  H45 non d ame     -32.570  10.439  31.376  0.00  0.00     0.212 HD
ENDBRANCH  83  88
ENDBRANCH  72  75
ENDBRANCH  47  72
ENDBRANCH  45  47
ENDBRANCH   1  43
BRANCH   1  90
ATOM     90  C16 non d ame     -36.914   9.794  29.992  0.00  0.00    -0.035 C 
ATOM     91  H21 non d ame     -36.128  10.502  30.250  0.00  0.00     0.037 H 
ATOM     92  H22 non d ame     -37.958  10.043  30.187  0.00  0.00     0.037 H 
BRANCH  90  93
ATOM     93  C17 non d ame     -36.614   8.489  30.797  0.00  0.00    -0.059 C 
ATOM     94  H23 non d ame     -36.200   7.760  30.100  0.00  0.00     0.038 H 
BRANCH  93  95
ATOM     95  C18 non d ame     -35.559   8.722  31.925  0.00  0.00    -0.073 C 
ATOM     96  H24 non d ame     -35.327   9.785  31.993  0.00  0.00     0.028 H 
ATOM     97  H25 non d ame     -35.962   8.378  32.877  0.00  0.00     0.028 H 
ATOM     98  H26 non d ame     -34.650   8.167  31.693  0.00  0.00     0.028 H 
ENDBRANCH  93  95
BRANCH  93  99
ATOM     99  C19 non d ame     -37.901   7.892  31.371  0.00  0.00    -0.073 C 
ATOM    100  H27 non d ame     -37.974   6.842  31.083  0.00  0.00     0.028 H 
ATOM    101  H28 non d ame     -37.885   7.969  32.458  0.00  0.00     0.028 H 
ATOM    102  H29 non d ame     -38.760   8.436  30.980  0.00  0.00     0.028 H 
ENDBRANCH  93  99
ENDBRANCH  90  93
ENDBRANCH   1  90
TORSDOF 26
ENDMDL
MODEL 8
REMARK VINA RESULT:      -6.6      3.377      9.570
REMARK  26 active torsions:
REMARK  status: ('A' for Active; 'I' for Inactive)
REMARK    1  A    between atoms: C2_2  and  C3_3 
REMARK    2  A    between atoms: C4_6  and  C5_7 
REMARK       I    between atoms: C5_7  and  N2_9 
REMARK    3  A    between atoms: N2_9  and  C6_10 
REMARK    4  A    between atoms: C6_10  and  C7_11 
REMARK    5  A    between atoms: C6_10  and  C8_13 
REMARK       I    between atoms: C7_11  and  N3_14 
REMARK    6  A    between atoms: N3_14  and  C9_15 
REMARK    7  A    between atoms: C9_15  and  C10_16 
REMARK    8  A    between atoms: C9_15  and  C11_18 
REMARK       I    between atoms: C10_16  and  N4_21 
REMARK    9  A    between atoms: C11_18  and  C12_19 
REMARK   10  A    between atoms: C11_18  and  C13_20 
REMARK   11  A    between atoms: N4_21  and  C14_22 
REMARK   12  A    between atoms: C14_22  and  C15_23 
REMARK   13  A    between atoms: C14_22  and  C16_25 
REMARK       I    between atoms: C15_23  and  N6_40 
REMARK   14  A    between atoms: C16_25  and  C17_26 
REMARK   15  A    between atoms: C17_26  and  C18_27 
REMARK   16  A    between atoms: C17_26  and  C19_28 
REMARK   17  A    between atoms: C20_29  and  C21_30 
REMARK   18  A    between atoms: C20_29  and  C24_33 
REMARK   19  A    between atoms: C20_29  and  N6_40 
REMARK   20  A    between atoms: C21_30  and  C22_31 
REMARK   21  A    between atoms: C22_31  and  C23_32 
REMARK   22  A    between atoms: C23_32  and  O8_43 
REMARK   23  A    between atoms: C24_33  and  C25_34 
REMARK   24  A    between atoms: C28_38  and  O6_39 
REMARK   25  A    between atoms: C29_42  and  O8_43 
REMARK   26  A    between atoms: C29_42  and  C35_49 
ROOT
ATOM      1  C14 non d ame     -34.809   9.195  28.079  0.00  0.00     0.089 C 
ATOM      2  H20 non d ame     -35.010   9.146  29.149  0.00  0.00     0.087 H 
ENDROOT
BRANCH   1   3
ATOM      3  N4  non d ame     -33.606   9.993  27.895  0.00  0.00    -0.346 N 
ATOM      4  C10 non d ame     -33.167  10.966  28.960  0.00  0.00     0.241 C 
ATOM      5  O4  non d ame     -33.799  11.092  29.956  0.00  0.00    -0.271 OA
ATOM      6  H19 non d ame     -33.083   9.873  27.039  0.00  0.00     0.163 HD
BRANCH   4   7
ATOM      7  C9  non d ame     -31.916  11.780  28.755  0.00  0.00     0.092 C 
ATOM      8  H11 non d ame     -31.096  11.116  28.485  0.00  0.00     0.088 H 
BRANCH   7   9
ATOM      9  N3  non d ame     -32.113  12.705  27.635  0.00  0.00    -0.346 N 
ATOM     10  C7  non d ame     -31.631  12.358  26.321  0.00  0.00     0.240 C 
ATOM     11  O3  non d ame     -31.083  11.338  26.147  0.00  0.00    -0.271 OA
ATOM     12  H10 non d ame     -32.582  13.589  27.770  0.00  0.00     0.163 HD
BRANCH  10  13
ATOM     13  C6  non d ame     -31.840  13.347  25.133  0.00  0.00     0.086 C 
ATOM     14  H6  non d ame     -32.825  13.254  24.675  0.00  0.00     0.086 H 
BRANCH  13  15
ATOM     15  N2  non d ame     -31.740  14.709  25.630  0.00  0.00    -0.343 N 
ATOM     16  C5  non d ame     -32.852  15.638  25.417  0.00  0.00     0.273 C 
ATOM     17  O2  non d ame     -33.821  15.282  24.841  0.00  0.00    -0.266 OA
ATOM     18  H5  non d ame     -30.907  15.006  26.118  0.00  0.00     0.163 HD
BRANCH  16  19
ATOM     19  C4  non d ame     -32.760  17.081  25.938  0.00  0.00     0.154 A 
ATOM     20  C1  non d ame     -32.663  17.503  27.301  0.00  0.00    -0.017 A 
ATOM     21  C2  non d ame     -32.606  18.914  27.242  0.00  0.00     0.077 A 
ATOM     22  H1  non d ame     -32.638  16.882  28.197  0.00  0.00     0.091 H 
ATOM     23  O1  non d ame     -32.662  19.251  25.987  0.00  0.00    -0.218 OA
ATOM     24  N1  non d ame     -32.752  18.199  25.207  0.00  0.00    -0.123 NA
BRANCH  21  25
ATOM     25  C3  non d ame     -32.497  19.863  28.427  0.00  0.00    -0.029 C 
ATOM     26  H2  non d ame     -31.468  19.879  28.786  0.00  0.00     0.036 H 
ATOM     27  H3  non d ame     -32.788  20.867  28.118  0.00  0.00     0.036 H 
ATOM     28  H4  non d ame     -33.155  19.524  29.227  0.00  0.00     0.036 H 
ENDBRANCH  21  25
ENDBRANCH  16  19
ENDBRANCH  13  15
BRANCH  13  29
ATOM     29  C8  non d ame     -30.789  13.102  24.080  0.00  0.00    -0.049 C 
ATOM     30  H7  non d ame     -29.921  12.628  24.537  0.00  0.00     0.030 H 
ATOM     31  H8  non d ame     -31.193  12.450  23.307  0.00  0.00     0.030 H 
ATOM     32  H9  non d ame     -30.492  14.053  23.636  0.00  0.00     0.030 H 
ENDBRANCH  13  29
ENDBRANCH  10  13
ENDBRANCH   7   9
BRANCH   7  33
ATOM     33  C11 non d ame     -31.611  12.594  30.048  0.00  0.00    -0.033 C 
ATOM     34  H12 non d ame     -32.533  12.651  30.626  0.00  0.00     0.042 H 
BRANCH  33  35
ATOM     35  C12 non d ame     -30.546  11.873  30.933  0.00  0.00    -0.071 C 
ATOM     36  H13 non d ame     -31.047  11.329  31.734  0.00  0.00     0.028 H 
ATOM     37  H14 non d ame     -29.976  11.175  30.321  0.00  0.00     0.028 H 
ATOM     38  H15 non d ame     -29.872  12.613  31.365  0.00  0.00     0.028 H 
ENDBRANCH  33  35
BRANCH  33  39
ATOM     39  C13 non d ame     -31.167  14.050  29.700  0.00  0.00    -0.071 C 
ATOM     40  H16 non d ame     -31.467  14.723  30.503  0.00  0.00     0.028 H 
ATOM     41  H17 non d ame     -30.083  14.083  29.583  0.00  0.00     0.028 H 
ATOM     42  H18 non d ame     -31.640  14.362  28.769  0.00  0.00     0.028 H 
ENDBRANCH  33  39
ENDBRANCH   7  33
ENDBRANCH   4   7
ENDBRANCH   1   3
BRANCH   1  43
ATOM     43  C15 non d ame     -34.569   7.787  27.461  0.00  0.00     0.240 C 
ATOM     44  O5  non d ame     -35.494   7.079  27.226  0.00  0.00    -0.271 OA
ATOM     45  N6  non d ame     -33.185   7.326  27.153  0.00  0.00    -0.355 N 
ATOM     46  H46 non d ame     -32.391   7.920  27.344  0.00  0.00     0.162 HD
BRANCH  45  47
ATOM     47  C20 non d ame     -32.974   5.985  26.566  0.00  0.00     0.013 C 
ATOM     48  H30 non d ame     -33.941   5.612  26.228  0.00  0.00     0.072 H 
BRANCH  47  49
ATOM     49  C21 non d ame     -32.402   5.062  27.618  0.00  0.00    -0.038 C 
ATOM     50  H31 non d ame     -31.815   4.323  27.073  0.00  0.00     0.036 H 
ATOM     51  H32 non d ame     -31.919   5.712  28.348  0.00  0.00     0.036 H 
BRANCH  49  52
ATOM     52  C22 non d ame     -33.490   4.279  28.384  0.00  0.00     0.018 C 
ATOM     53  H33 non d ame     -34.421   4.814  28.203  0.00  0.00     0.048 H 
ATOM     54  H34 non d ame     -33.386   3.241  28.065  0.00  0.00     0.048 H 
BRANCH  52  55
ATOM     55  C23 non d ame     -33.291   4.275  29.925  0.00  0.00     0.259 C 
ATOM     56  O7  non d ame     -32.477   3.569  30.426  0.00  0.00    -0.265 OA
BRANCH  55  57
ATOM     57  O8  non d ame     -34.104   5.117  30.735  0.00  0.00    -0.317 OA
BRANCH  57  58
ATOM     58  C29 non d ame     -35.412   5.349  30.204  0.00  0.00     0.052 C 
ATOM     59  H47 non d ame     -35.274   5.497  29.134  0.00  0.00     0.082 H 
ATOM     60  H48 non d ame     -36.028   4.526  30.566  0.00  0.00     0.082 H 
BRANCH  58  61
ATOM     61  C35 non d ame     -35.950   6.670  30.818  0.00  0.00    -0.034 A 
ATOM     62  C30 non d ame     -35.063   7.603  31.346  0.00  0.00    -0.075 A 
ATOM     63  C31 non d ame     -35.546   8.789  31.898  0.00  0.00    -0.082 A 
ATOM     64  H49 non d ame     -33.991   7.406  31.329  0.00  0.00     0.084 H 
ATOM     65  C32 non d ame     -36.920   9.039  31.922  0.00  0.00    -0.083 A 
ATOM     66  H50 non d ame     -34.848   9.520  32.309  0.00  0.00     0.083 H 
ATOM     67  C33 non d ame     -37.801   8.103  31.398  0.00  0.00    -0.082 A 
ATOM     68  H51 non d ame     -37.306   9.965  32.351  0.00  0.00     0.083 H 
ATOM     69  C34 non d ame     -37.323   6.917  30.844  0.00  0.00    -0.075 A 
ATOM     70  H52 non d ame     -38.874   8.300  31.420  0.00  0.00     0.083 H 
ATOM     71  H53 non d ame     -38.021   6.188  30.432  0.00  0.00     0.084 H 
ENDBRANCH  58  61
ENDBRANCH  57  58
ENDBRANCH  55  57
ENDBRANCH  52  55
ENDBRANCH  49  52
ENDBRANCH  47  49
BRANCH  47  72
ATOM     72  C24 non d ame     -32.003   6.083  25.391  0.00  0.00    -0.039 C 
ATOM     73  H35 non d ame     -31.325   6.899  25.643  0.00  0.00     0.036 H 
ATOM     74  H36 non d ame     -31.614   5.075  25.251  0.00  0.00     0.036 H 
BRANCH  72  75
ATOM     75  C25 non d ame     -32.753   6.493  24.036  0.00  0.00    -0.001 C 
ATOM     76  C26 non d ame     -32.341   5.452  22.832  0.00  0.00    -0.035 C 
ATOM     77  C27 non d ame     -31.933   6.166  21.756  0.00  0.00     0.085 C 
ATOM     78  H38 non d ame     -31.453   4.886  23.113  0.00  0.00     0.036 H 
ATOM     79  H39 non d ame     -33.227   4.929  22.470  0.00  0.00     0.036 H 
ATOM     80  N5  non d ame     -31.718   7.585  22.226  0.00  0.00    -0.049 N 
ATOM     81  H40 non d ame     -30.974   5.737  21.468  0.00  0.00     0.075 H 
ATOM     82  H41 non d ame     -32.770   6.146  21.059  0.00  0.00     0.075 H 
ATOM     83  C28 non d ame     -32.433   7.689  23.669  0.00  0.00     0.193 C 
ATOM     84  H42 non d ame     -30.722   7.696  22.352  0.00  0.00     0.280 HD
ATOM     85  H43 non d ame     -32.214   8.179  21.576  0.00  0.00     0.280 HD
ATOM     86  H44 non d ame     -33.395   8.192  23.774  0.00  0.00     0.129 H 
ATOM     87  H37 non d ame     -33.815   6.676  24.191  0.00  0.00     0.046 H 
BRANCH  83  88
ATOM     88  O6  non d ame     -31.564   8.327  24.606  0.00  0.00    -0.369 OA
ATOM     89  H45 non d ame     -31.580   9.277  24.463  0.00  0.00     0.212 HD
ENDBRANCH  83  88
ENDBRANCH  72  75
ENDBRANCH  47  72
ENDBRANCH  45  47
ENDBRANCH   1  43
BRANCH   1  90
ATOM     90  C16 non d ame     -35.969   9.874  27.368  0.00  0.00    -0.035 C 
ATOM     91  H21 non d ame     -35.646  10.901  27.206  0.00  0.00     0.037 H 
ATOM     92  H22 non d ame     -36.199   9.233  26.516  0.00  0.00     0.037 H 
BRANCH  90  93
ATOM     93  C17 non d ame     -37.271   9.951  28.227  0.00  0.00    -0.059 C 
ATOM     94  H23 non d ame     -36.994   9.759  29.264  0.00  0.00     0.038 H 
BRANCH  93  95
ATOM     95  C18 non d ame     -37.934  11.364  28.167  0.00  0.00    -0.073 C 
ATOM     96  H24 non d ame     -38.989  11.282  28.428  0.00  0.00     0.028 H 
ATOM     97  H25 non d ame     -37.437  12.029  28.872  0.00  0.00     0.028 H 
ATOM     98  H26 non d ame     -37.840  11.767  27.158  0.00  0.00     0.028 H 
ENDBRANCH  93  95
BRANCH  93  99
ATOM     99  C19 non d ame     -38.266   8.864  27.812  0.00  0.00    -0.073 C 
ATOM    100  H27 non d ame     -38.509   8.979  26.755  0.00  0.00     0.028 H 
ATOM    101  H28 non d ame     -37.823   7.882  27.977  0.00  0.00     0.028 H 
ATOM    102  H29 non d ame     -39.175   8.957  28.406  0.00  0.00     0.028 H 
ENDBRANCH  93  99
ENDBRANCH  90  93
ENDBRANCH   1  90
TORSDOF 26
ENDMDL
MODEL 9
REMARK VINA RESULT:      -6.5      3.487     10.007
REMARK  26 active torsions:
REMARK  status: ('A' for Active; 'I' for Inactive)
REMARK    1  A    between atoms: C2_2  and  C3_3 
REMARK    2  A    between atoms: C4_6  and  C5_7 
REMARK       I    between atoms: C5_7  and  N2_9 
REMARK    3  A    between atoms: N2_9  and  C6_10 
REMARK    4  A    between atoms: C6_10  and  C7_11 
REMARK    5  A    between atoms: C6_10  and  C8_13 
REMARK       I    between atoms: C7_11  and  N3_14 
REMARK    6  A    between atoms: N3_14  and  C9_15 
REMARK    7  A    between atoms: C9_15  and  C10_16 
REMARK    8  A    between atoms: C9_15  and  C11_18 
REMARK       I    between atoms: C10_16  and  N4_21 
REMARK    9  A    between atoms: C11_18  and  C12_19 
REMARK   10  A    between atoms: C11_18  and  C13_20 
REMARK   11  A    between atoms: N4_21  and  C14_22 
REMARK   12  A    between atoms: C14_22  and  C15_23 
REMARK   13  A    between atoms: C14_22  and  C16_25 
REMARK       I    between atoms: C15_23  and  N6_40 
REMARK   14  A    between atoms: C16_25  and  C17_26 
REMARK   15  A    between atoms: C17_26  and  C18_27 
REMARK   16  A    between atoms: C17_26  and  C19_28 
REMARK   17  A    between atoms: C20_29  and  C21_30 
REMARK   18  A    between atoms: C20_29  and  C24_33 
REMARK   19  A    between atoms: C20_29  and  N6_40 
REMARK   20  A    between atoms: C21_30  and  C22_31 
REMARK   21  A    between atoms: C22_31  and  C23_32 
REMARK   22  A    between atoms: C23_32  and  O8_43 
REMARK   23  A    between atoms: C24_33  and  C25_34 
REMARK   24  A    between atoms: C28_38  and  O6_39 
REMARK   25  A    between atoms: C29_42  and  O8_43 
REMARK   26  A    between atoms: C29_42  and  C35_49 
ROOT
ATOM      1  C14 non d ame     -35.742   5.859  29.782  0.00  0.00     0.089 C 
ATOM      2  H20 non d ame     -35.648   5.600  30.837  0.00  0.00     0.087 H 
ENDROOT
BRANCH   1   3
ATOM      3  N4  non d ame     -36.017   7.286  29.703  0.00  0.00    -0.346 N 
ATOM      4  C10 non d ame     -35.361   8.242  30.667  0.00  0.00     0.241 C 
ATOM      5  O4  non d ame     -34.617   7.840  31.499  0.00  0.00    -0.271 OA
ATOM      6  H19 non d ame     -36.655   7.608  28.990  0.00  0.00     0.163 HD
BRANCH   4   7
ATOM      7  C9  non d ame     -35.653   9.717  30.569  0.00  0.00     0.092 C 
ATOM      8  H11 non d ame     -35.720  10.137  31.572  0.00  0.00     0.088 H 
BRANCH   7   9
ATOM      9  N3  non d ame     -34.541  10.391  29.890  0.00  0.00    -0.346 N 
ATOM     10  C7  non d ame     -33.625  11.207  30.647  0.00  0.00     0.240 C 
ATOM     11  O3  non d ame     -33.766  11.333  31.802  0.00  0.00    -0.271 OA
ATOM     12  H10 non d ame     -34.408  10.292  28.894  0.00  0.00     0.163 HD
BRANCH  10  13
ATOM     13  C6  non d ame     -32.446  11.925  29.919  0.00  0.00     0.086 C 
ATOM     14  H6  non d ame     -32.331  11.603  28.884  0.00  0.00     0.086 H 
BRANCH  13  15
ATOM     15  N2  non d ame     -32.713  13.353  29.883  0.00  0.00    -0.343 N 
ATOM     16  C5  non d ame     -31.902  14.218  29.024  0.00  0.00     0.273 C 
ATOM     17  O2  non d ame     -31.034  13.755  28.367  0.00  0.00    -0.266 OA
ATOM     18  H5  non d ame     -33.454  13.740  30.450  0.00  0.00     0.163 HD
BRANCH  16  19
ATOM     19  C4  non d ame     -32.174  15.730  28.975  0.00  0.00     0.154 A 
ATOM     20  C1  non d ame     -32.909  16.444  27.978  0.00  0.00    -0.017 A 
ATOM     21  C2  non d ame     -32.867  17.794  28.393  0.00  0.00     0.077 A 
ATOM     22  H1  non d ame     -33.398  16.045  27.089  0.00  0.00     0.091 H 
ATOM     23  O1  non d ame     -32.187  17.838  29.500  0.00  0.00    -0.218 OA
ATOM     24  N1  non d ame     -31.772  16.645  29.861  0.00  0.00    -0.123 NA
BRANCH  21  25
ATOM     25  C3  non d ame     -33.502  18.978  27.676  0.00  0.00    -0.029 C 
ATOM     26  H2  non d ame     -34.545  18.752  27.456  0.00  0.00     0.036 H 
ATOM     27  H3  non d ame     -33.450  19.860  28.315  0.00  0.00     0.036 H 
ATOM     28  H4  non d ame     -32.968  19.171  26.747  0.00  0.00     0.036 H 
ENDBRANCH  21  25
ENDBRANCH  16  19
ENDBRANCH  13  15
BRANCH  13  29
ATOM     29  C8  non d ame     -31.159  11.658  30.658  0.00  0.00    -0.049 C 
ATOM     30  H7  non d ame     -31.197  12.132  31.638  0.00  0.00     0.030 H 
ATOM     31  H8  non d ame     -31.026  10.584  30.779  0.00  0.00     0.030 H 
ATOM     32  H9  non d ame     -30.322  12.067  30.089  0.00  0.00     0.030 H 
ENDBRANCH  13  29
ENDBRANCH  10  13
ENDBRANCH   7   9
BRANCH   7  33
ATOM     33  C11 non d ame     -36.962   9.932  29.753  0.00  0.00    -0.033 C 
ATOM     34  H12 non d ame     -37.363   8.949  29.510  0.00  0.00     0.042 H 
BRANCH  33  35
ATOM     35  C12 non d ame     -38.039  10.683  30.596  0.00  0.00    -0.071 C 
ATOM     36  H13 non d ame     -38.921  10.052  30.705  0.00  0.00     0.028 H 
ATOM     37  H14 non d ame     -37.634  10.914  31.581  0.00  0.00     0.028 H 
ATOM     38  H15 non d ame     -38.316  11.609  30.091  0.00  0.00     0.028 H 
ENDBRANCH  33  35
BRANCH  33  39
ATOM     39  C13 non d ame     -36.669  10.680  28.413  0.00  0.00    -0.071 C 
ATOM     40  H16 non d ame     -37.100  10.120  27.583  0.00  0.00     0.028 H 
ATOM     41  H17 non d ame     -37.109  11.677  28.448  0.00  0.00     0.028 H 
ATOM     42  H18 non d ame     -35.591  10.765  28.272  0.00  0.00     0.028 H 
ENDBRANCH  33  39
ENDBRANCH   7  33
ENDBRANCH   4   7
ENDBRANCH   1   3
BRANCH   1  43
ATOM     43  C15 non d ame     -34.439   5.561  28.986  0.00  0.00     0.240 C 
ATOM     44  O5  non d ame     -33.751   4.645  29.301  0.00  0.00    -0.271 OA
ATOM     45  N6  non d ame     -34.054   6.412  27.824  0.00  0.00    -0.355 N 
ATOM     46  H46 non d ame     -34.634   7.190  27.543  0.00  0.00     0.162 HD
BRANCH  45  47
ATOM     47  C20 non d ame     -32.813   6.114  27.077  0.00  0.00     0.013 C 
ATOM     48  H30 non d ame     -32.148   5.562  27.740  0.00  0.00     0.072 H 
BRANCH  47  49
ATOM     49  C21 non d ame     -32.162   7.411  26.653  0.00  0.00    -0.038 C 
ATOM     50  H31 non d ame     -31.088   7.240  26.732  0.00  0.00     0.036 H 
ATOM     51  H32 non d ame     -32.604   7.660  25.688  0.00  0.00     0.036 H 
BRANCH  49  52
ATOM     52  C22 non d ame     -32.490   8.585  27.601  0.00  0.00     0.018 C 
ATOM     53  H33 non d ame     -33.479   8.371  28.003  0.00  0.00     0.048 H 
ATOM     54  H34 non d ame     -31.635   8.670  28.271  0.00  0.00     0.048 H 
BRANCH  52  55
ATOM     55  C23 non d ame     -32.608   9.957  26.880  0.00  0.00     0.259 C 
ATOM     56  O7  non d ame     -33.670  10.467  26.726  0.00  0.00    -0.265 OA
BRANCH  55  57
ATOM     57  O8  non d ame     -31.431  10.591  26.394  0.00  0.00    -0.317 OA
BRANCH  57  58
ATOM     58  C29 non d ame     -31.617  11.299  25.164  0.00  0.00     0.052 C 
ATOM     59  H47 non d ame     -32.679  11.540  25.120  0.00  0.00     0.082 H 
ATOM     60  H48 non d ame     -30.876  12.097  25.168  0.00  0.00     0.082 H 
BRANCH  58  61
ATOM     61  C35 non d ame     -31.285  10.328  23.999  0.00  0.00    -0.034 A 
ATOM     62  C30 non d ame     -29.989  10.263  23.495  0.00  0.00    -0.075 A 
ATOM     63  C31 non d ame     -29.691   9.392  22.448  0.00  0.00    -0.082 A 
ATOM     64  H49 non d ame     -29.209  10.894  23.919  0.00  0.00     0.084 H 
ATOM     65  C32 non d ame     -30.694   8.585  21.904  0.00  0.00    -0.083 A 
ATOM     66  H50 non d ame     -28.674   9.341  22.057  0.00  0.00     0.083 H 
ATOM     67  C33 non d ame     -31.986   8.656  22.408  0.00  0.00    -0.082 A 
ATOM     68  H51 non d ame     -30.469   7.900  21.086  0.00  0.00     0.083 H 
ATOM     69  C34 non d ame     -32.288   9.524  23.455  0.00  0.00    -0.075 A 
ATOM     70  H52 non d ame     -32.767   8.027  21.980  0.00  0.00     0.083 H 
ATOM     71  H53 non d ame     -33.304   9.574  23.846  0.00  0.00     0.084 H 
ENDBRANCH  58  61
ENDBRANCH  57  58
ENDBRANCH  55  57
ENDBRANCH  52  55
ENDBRANCH  49  52
ENDBRANCH  47  49
BRANCH  47  72
ATOM     72  C24 non d ame     -33.142   5.279  25.841  0.00  0.00    -0.039 C 
ATOM     73  H35 non d ame     -32.201   4.813  25.547  0.00  0.00     0.036 H 
ATOM     74  H36 non d ame     -33.991   4.658  26.127  0.00  0.00     0.036 H 
BRANCH  72  75
ATOM     75  C25 non d ame     -33.618   6.196  24.616  0.00  0.00    -0.001 C 
ATOM     76  C26 non d ame     -35.186   6.642  24.828  0.00  0.00    -0.035 C 
ATOM     77  C27 non d ame     -35.880   6.353  23.701  0.00  0.00     0.085 C 
ATOM     78  H38 non d ame     -35.656   6.014  25.584  0.00  0.00     0.036 H 
ATOM     79  H39 non d ame     -35.260   7.728  24.901  0.00  0.00     0.036 H 
ATOM     80  N5  non d ame     -35.003   5.453  22.863  0.00  0.00    -0.049 N 
ATOM     81  H40 non d ame     -36.753   5.792  24.033  0.00  0.00     0.075 H 
ATOM     82  H41 non d ame     -36.007   7.304  23.186  0.00  0.00     0.075 H 
ATOM     83  C28 non d ame     -33.521   5.563  23.495  0.00  0.00     0.193 C 
ATOM     84  H42 non d ame     -35.343   4.512  23.004  0.00  0.00     0.280 HD
ATOM     85  H43 non d ame     -34.989   5.852  21.936  0.00  0.00     0.280 HD
ATOM     86  H44 non d ame     -32.752   6.157  22.999  0.00  0.00     0.129 H 
ATOM     87  H37 non d ame     -32.904   6.986  24.390  0.00  0.00     0.046 H 
BRANCH  83  88
ATOM     88  O6  non d ame     -32.956   4.261  23.656  0.00  0.00    -0.369 OA
ATOM     89  H45 non d ame     -32.097   4.230  23.227  0.00  0.00     0.212 HD
ENDBRANCH  83  88
ENDBRANCH  72  75
ENDBRANCH  47  72
ENDBRANCH  45  47
ENDBRANCH   1  43
BRANCH   1  90
ATOM     90  C16 non d ame     -36.903   5.095  29.166  0.00  0.00    -0.035 C 
ATOM     91  H21 non d ame     -36.509   4.663  28.248  0.00  0.00     0.037 H 
ATOM     92  H22 non d ame     -37.274   4.446  29.960  0.00  0.00     0.037 H 
BRANCH  90  93
ATOM     93  C17 non d ame     -38.100   6.006  28.746  0.00  0.00    -0.059 C 
ATOM     94  H23 non d ame     -38.047   6.917  29.343  0.00  0.00     0.038 H 
BRANCH  93  95
ATOM     95  C18 non d ame     -38.027   6.419  27.241  0.00  0.00    -0.073 C 
ATOM     96  H24 non d ame     -39.017   6.718  26.897  0.00  0.00     0.028 H 
ATOM     97  H25 non d ame     -37.336   7.254  27.126  0.00  0.00     0.028 H 
ATOM     98  H26 non d ame     -37.677   5.573  26.649  0.00  0.00     0.028 H 
ENDBRANCH  93  95
BRANCH  93  99
ATOM     99  C19 non d ame     -39.438   5.333  29.062  0.00  0.00    -0.073 C 
ATOM    100  H27 non d ame     -39.476   5.080  30.122  0.00  0.00     0.028 H 
ATOM    101  H28 non d ame     -40.255   6.014  28.822  0.00  0.00     0.028 H 
ATOM    102  H29 non d ame     -39.537   4.424  28.468  0.00  0.00     0.028 H 
ENDBRANCH  93  99
ENDBRANCH  90  93
ENDBRANCH   1  90
TORSDOF 26
ENDMDL
MODEL 10
REMARK VINA RESULT:      -6.5      2.344      7.886
REMARK  26 active torsions:
REMARK  status: ('A' for Active; 'I' for Inactive)
REMARK    1  A    between atoms: C2_2  and  C3_3 
REMARK    2  A    between atoms: C4_6  and  C5_7 
REMARK       I    between atoms: C5_7  and  N2_9 
REMARK    3  A    between atoms: N2_9  and  C6_10 
REMARK    4  A    between atoms: C6_10  and  C7_11 
REMARK    5  A    between atoms: C6_10  and  C8_13 
REMARK       I    between atoms: C7_11  and  N3_14 
REMARK    6  A    between atoms: N3_14  and  C9_15 
REMARK    7  A    between atoms: C9_15  and  C10_16 
REMARK    8  A    between atoms: C9_15  and  C11_18 
REMARK       I    between atoms: C10_16  and  N4_21 
REMARK    9  A    between atoms: C11_18  and  C12_19 
REMARK   10  A    between atoms: C11_18  and  C13_20 
REMARK   11  A    between atoms: N4_21  and  C14_22 
REMARK   12  A    between atoms: C14_22  and  C15_23 
REMARK   13  A    between atoms: C14_22  and  C16_25 
REMARK       I    between atoms: C15_23  and  N6_40 
REMARK   14  A    between atoms: C16_25  and  C17_26 
REMARK   15  A    between atoms: C17_26  and  C18_27 
REMARK   16  A    between atoms: C17_26  and  C19_28 
REMARK   17  A    between atoms: C20_29  and  C21_30 
REMARK   18  A    between atoms: C20_29  and  C24_33 
REMARK   19  A    between atoms: C20_29  and  N6_40 
REMARK   20  A    between atoms: C21_30  and  C22_31 
REMARK   21  A    between atoms: C22_31  and  C23_32 
REMARK   22  A    between atoms: C23_32  and  O8_43 
REMARK   23  A    between atoms: C24_33  and  C25_34 
REMARK   24  A    between atoms: C28_38  and  O6_39 
REMARK   25  A    between atoms: C29_42  and  O8_43 
REMARK   26  A    between atoms: C29_42  and  C35_49 
ROOT
ATOM      1  C14 non d ame     -31.777  14.950  23.838  0.00  0.00     0.089 C 
ATOM      2  H20 non d ame     -32.083  14.590  22.855  0.00  0.00     0.087 H 
ENDROOT
BRANCH   1   3
ATOM      3  N4  non d ame     -32.678  16.031  24.209  0.00  0.00    -0.346 N 
ATOM      4  C10 non d ame     -32.400  16.870  25.430  0.00  0.00     0.241 C 
ATOM      5  O4  non d ame     -31.444  16.656  26.101  0.00  0.00    -0.271 OA
ATOM      6  H19 non d ame     -33.487  16.196  23.626  0.00  0.00     0.163 HD
BRANCH   4   7
ATOM      7  C9  non d ame     -33.340  17.988  25.796  0.00  0.00     0.092 C 
ATOM      8  H11 non d ame     -33.165  18.836  25.135  0.00  0.00     0.088 H 
BRANCH   7   9
ATOM      9  N3  non d ame     -34.724  17.552  25.585  0.00  0.00    -0.346 N 
ATOM     10  C7  non d ame     -35.730  18.509  25.197  0.00  0.00     0.240 C 
ATOM     11  O3  non d ame     -35.443  19.635  25.050  0.00  0.00    -0.271 OA
ATOM     12  H10 non d ame     -34.986  16.584  25.709  0.00  0.00     0.163 HD
BRANCH  10  13
ATOM     13  C6  non d ame     -37.201  18.040  24.976  0.00  0.00     0.086 C 
ATOM     14  H6  non d ame     -37.638  18.440  24.061  0.00  0.00     0.086 H 
BRANCH  13  15
ATOM     15  N2  non d ame     -37.221  16.593  24.849  0.00  0.00    -0.343 N 
ATOM     16  C5  non d ame     -37.768  15.983  23.635  0.00  0.00     0.273 C 
ATOM     17  O2  non d ame     -38.193  16.664  22.768  0.00  0.00    -0.266 OA
ATOM     18  H5  non d ame     -36.859  16.018  25.596  0.00  0.00     0.163 HD
BRANCH  16  19
ATOM     19  C4  non d ame     -37.794  14.453  23.487  0.00  0.00     0.154 A 
ATOM     20  C1  non d ame     -38.455  13.513  24.340  0.00  0.00    -0.017 A 
ATOM     21  C2  non d ame     -38.174  12.250  23.775  0.00  0.00     0.077 A 
ATOM     22  H1  non d ame     -39.048  13.717  25.232  0.00  0.00     0.091 H 
ATOM     23  O1  non d ame     -37.439  12.451  22.721  0.00  0.00    -0.218 OA
ATOM     24  N1  non d ame     -37.204  13.730  22.533  0.00  0.00    -0.123 NA
BRANCH  21  25
ATOM     25  C3  non d ame     -38.646  10.901  24.301  0.00  0.00    -0.029 C 
ATOM     26  H2  non d ame     -39.731  10.842  24.228  0.00  0.00     0.036 H 
ATOM     27  H3  non d ame     -38.200  10.103  23.707  0.00  0.00     0.036 H 
ATOM     28  H4  non d ame     -38.345  10.790  25.342  0.00  0.00     0.036 H 
ENDBRANCH  21  25
ENDBRANCH  16  19
ENDBRANCH  13  15
BRANCH  13  29
ATOM     29  C8  non d ame     -38.048  18.468  26.147  0.00  0.00    -0.049 C 
ATOM     30  H7  non d ame     -39.092  18.227  25.949  0.00  0.00     0.030 H 
ATOM     31  H8  non d ame     -37.720  17.944  27.045  0.00  0.00     0.030 H 
ATOM     32  H9  non d ame     -37.946  19.544  26.296  0.00  0.00     0.030 H 
ENDBRANCH  13  29
ENDBRANCH  10  13
ENDBRANCH   7   9
BRANCH   7  33
ATOM     33  C11 non d ame     -33.141  18.362  27.295  0.00  0.00    -0.033 C 
ATOM     34  H12 non d ame     -32.173  17.969  27.606  0.00  0.00     0.042 H 
BRANCH  33  35
ATOM     35  C12 non d ame     -33.103  19.910  27.493  0.00  0.00    -0.071 C 
ATOM     36  H13 non d ame     -32.115  20.207  27.847  0.00  0.00     0.028 H 
ATOM     37  H14 non d ame     -33.313  20.403  26.545  0.00  0.00     0.028 H 
ATOM     38  H15 non d ame     -33.853  20.200  28.228  0.00  0.00     0.028 H 
ENDBRANCH  33  35
BRANCH  33  39
ATOM     39  C13 non d ame     -34.240  17.703  28.187  0.00  0.00    -0.071 C 
ATOM     40  H16 non d ame     -33.973  16.665  28.386  0.00  0.00     0.028 H 
ATOM     41  H17 non d ame     -34.318  18.246  29.129  0.00  0.00     0.028 H 
ATOM     42  H18 non d ame     -35.199  17.738  27.669  0.00  0.00     0.028 H 
ENDBRANCH  33  39
ENDBRANCH   7  33
ENDBRANCH   4   7
ENDBRANCH   1   3
BRANCH   1  43
ATOM     43  C15 non d ame     -31.865  13.838  24.923  0.00  0.00     0.240 C 
ATOM     44  O5  non d ame     -30.869  13.370  25.371  0.00  0.00    -0.271 OA
ATOM     45  N6  non d ame     -33.192  13.364  25.411  0.00  0.00    -0.355 N 
ATOM     46  H46 non d ame     -34.045  13.758  25.041  0.00  0.00     0.162 HD
BRANCH  45  47
ATOM     47  C20 non d ame     -33.258  12.307  26.443  0.00  0.00     0.013 C 
ATOM     48  H30 non d ame     -32.475  11.580  26.227  0.00  0.00     0.072 H 
BRANCH  47  49
ATOM     49  C21 non d ame     -34.614  11.641  26.391  0.00  0.00    -0.038 C 
ATOM     50  H31 non d ame     -34.642  10.964  27.245  0.00  0.00     0.036 H 
ATOM     51  H32 non d ame     -35.337  12.453  26.314  0.00  0.00     0.036 H 
BRANCH  49  52
ATOM     52  C22 non d ame     -34.803  10.766  25.132  0.00  0.00     0.018 C 
ATOM     53  H33 non d ame     -35.824  10.948  24.797  0.00  0.00     0.048 H 
ATOM     54  H34 non d ame     -33.964  11.004  24.479  0.00  0.00     0.048 H 
BRANCH  52  55
ATOM     55  C23 non d ame     -34.710   9.240  25.410  0.00  0.00     0.259 C 
ATOM     56  O7  non d ame     -35.410   8.732  26.226  0.00  0.00    -0.265 OA
BRANCH  55  57
ATOM     57  O8  non d ame     -33.766   8.457  24.689  0.00  0.00    -0.317 OA
BRANCH  57  58
ATOM     58  C29 non d ame     -33.681   8.781  23.299  0.00  0.00     0.052 C 
ATOM     59  H47 non d ame     -33.931   7.864  22.766  0.00  0.00     0.082 H 
ATOM     60  H48 non d ame     -34.292   9.673  23.165  0.00  0.00     0.082 H 
BRANCH  58  61
ATOM     61  C35 non d ame     -32.206   9.146  22.982  0.00  0.00    -0.034 A 
ATOM     62  C30 non d ame     -31.468   8.361  22.101  0.00  0.00    -0.075 A 
ATOM     63  C31 non d ame     -30.143   8.688  21.817  0.00  0.00    -0.082 A 
ATOM     64  H49 non d ame     -31.927   7.490  21.634  0.00  0.00     0.084 H 
ATOM     65  C32 non d ame     -29.555   9.804  22.419  0.00  0.00    -0.083 A 
ATOM     66  H50 non d ame     -29.568   8.072  21.124  0.00  0.00     0.083 H 
ATOM     67  C33 non d ame     -30.294  10.582  23.300  0.00  0.00    -0.082 A 
ATOM     68  H51 non d ame     -28.519  10.068  22.201  0.00  0.00     0.083 H 
ATOM     69  C34 non d ame     -31.619  10.259  23.586  0.00  0.00    -0.075 A 
ATOM     70  H52 non d ame     -29.831  11.451  23.770  0.00  0.00     0.083 H 
ATOM     71  H53 non d ame     -32.193  10.876  24.277  0.00  0.00     0.084 H 
ENDBRANCH  58  61
ENDBRANCH  57  58
ENDBRANCH  55  57
ENDBRANCH  52  55
ENDBRANCH  49  52
ENDBRANCH  47  49
BRANCH  47  72
ATOM     72  C24 non d ame     -33.044  12.922  27.825  0.00  0.00    -0.039 C 
ATOM     73  H35 non d ame     -32.758  13.958  27.640  0.00  0.00     0.036 H 
ATOM     74  H36 non d ame     -33.951  12.698  28.386  0.00  0.00     0.036 H 
BRANCH  72  75
ATOM     75  C25 non d ame     -31.826  12.228  28.600  0.00  0.00    -0.001 C 
ATOM     76  C26 non d ame     -32.357  11.588  30.019  0.00  0.00    -0.035 C 
ATOM     77  C27 non d ame     -31.559  12.026  31.022  0.00  0.00     0.085 C 
ATOM     78  H38 non d ame     -33.334  12.000  30.272  0.00  0.00     0.036 H 
ATOM     79  H39 non d ame     -32.203  10.509  30.024  0.00  0.00     0.036 H 
ATOM     80  N5  non d ame     -30.735  13.163  30.465  0.00  0.00    -0.049 N 
ATOM     81  H40 non d ame     -32.236  12.417  31.783  0.00  0.00     0.075 H 
ATOM     82  H41 non d ame     -30.901  11.191  31.256  0.00  0.00     0.075 H 
ATOM     83  C28 non d ame     -30.891  13.080  28.860  0.00  0.00     0.193 C 
ATOM     84  H42 non d ame     -31.170  14.015  30.787  0.00  0.00     0.280 HD
ATOM     85  H43 non d ame     -29.775  12.963  30.706  0.00  0.00     0.280 HD
ATOM     86  H44 non d ame     -30.084  12.681  28.246  0.00  0.00     0.129 H 
ATOM     87  H37 non d ame     -31.241  11.577  27.951  0.00  0.00     0.046 H 
BRANCH  83  88
ATOM     88  O6  non d ame     -31.177  14.373  28.325  0.00  0.00    -0.369 OA
ATOM     89  H45 non d ame     -32.128  14.495  28.272  0.00  0.00     0.212 HD
ENDBRANCH  83  88
ENDBRANCH  72  75
ENDBRANCH  47  72
ENDBRANCH  45  47
ENDBRANCH   1  43
BRANCH   1  90
ATOM     90  C16 non d ame     -30.357  15.487  23.771  0.00  0.00    -0.035 C 
ATOM     91  H21 non d ame     -30.441  16.553  23.978  0.00  0.00     0.037 H 
ATOM     92  H22 non d ame     -29.775  14.846  24.433  0.00  0.00     0.037 H 
BRANCH  90  93
ATOM     93  C17 non d ame     -29.708  15.365  22.355  0.00  0.00    -0.059 C 
ATOM     94  H23 non d ame     -28.808  15.980  22.350  0.00  0.00     0.038 H 
BRANCH  93  95
ATOM     95  C18 non d ame     -29.285  13.898  22.024  0.00  0.00    -0.073 C 
ATOM     96  H24 non d ame     -29.391  13.721  20.954  0.00  0.00     0.028 H 
ATOM     97  H25 non d ame     -28.245  13.746  22.315  0.00  0.00     0.028 H 
ATOM     98  H26 non d ame     -29.921  13.204  22.573  0.00  0.00     0.028 H 
ENDBRANCH  93  95
BRANCH  93  99
ATOM     99  C19 non d ame     -30.643  15.918  21.275  0.00  0.00    -0.073 C 
ATOM    100  H27 non d ame     -30.101  15.996  20.331  0.00  0.00     0.028 H 
ATOM    101  H28 non d ame     -31.493  15.247  21.151  0.00  0.00     0.028 H 
ATOM    102  H29 non d ame     -30.999  16.904  21.573  0.00  0.00     0.028 H 
ENDBRANCH  93  99
ENDBRANCH  90  93
ENDBRANCH   1  90
TORSDOF 26
ENDMDL
MODEL 11
REMARK VINA RESULT:      -6.5      3.690      6.761
REMARK  26 active torsions:
REMARK  status: ('A' for Active; 'I' for Inactive)
REMARK    1  A    between atoms: C2_2  and  C3_3 
REMARK    2  A    between atoms: C4_6  and  C5_7 
REMARK       I    between atoms: C5_7  and  N2_9 
REMARK    3  A    between atoms: N2_9  and  C6_10 
REMARK    4  A    between atoms: C6_10  and  C7_11 
REMARK    5  A    between atoms: C6_10  and  C8_13 
REMARK       I    between atoms: C7_11  and  N3_14 
REMARK    6  A    between atoms: N3_14  and  C9_15 
REMARK    7  A    between atoms: C9_15  and  C10_16 
REMARK    8  A    between atoms: C9_15  and  C11_18 
REMARK       I    between atoms: C10_16  and  N4_21 
REMARK    9  A    between atoms: C11_18  and  C12_19 
REMARK   10  A    between atoms: C11_18  and  C13_20 
REMARK   11  A    between atoms: N4_21  and  C14_22 
REMARK   12  A    between atoms: C14_22  and  C15_23 
REMARK   13  A    between atoms: C14_22  and  C16_25 
REMARK       I    between atoms: C15_23  and  N6_40 
REMARK   14  A    between atoms: C16_25  and  C17_26 
REMARK   15  A    between atoms: C17_26  and  C18_27 
REMARK   16  A    between atoms: C17_26  and  C19_28 
REMARK   17  A    between atoms: C20_29  and  C21_30 
REMARK   18  A    between atoms: C20_29  and  C24_33 
REMARK   19  A    between atoms: C20_29  and  N6_40 
REMARK   20  A    between atoms: C21_30  and  C22_31 
REMARK   21  A    between atoms: C22_31  and  C23_32 
REMARK   22  A    between atoms: C23_32  and  O8_43 
REMARK   23  A    between atoms: C24_33  and  C25_34 
REMARK   24  A    between atoms: C28_38  and  O6_39 
REMARK   25  A    between atoms: C29_42  and  O8_43 
REMARK   26  A    between atoms: C29_42  and  C35_49 
ROOT
ATOM      1  C14 non d ame     -32.876  10.341  25.635  0.00  0.00     0.089 C 
ATOM      2  H20 non d ame     -33.596  10.432  24.821  0.00  0.00     0.087 H 
ENDROOT
BRANCH   1   3
ATOM      3  N4  non d ame     -32.293   9.010  25.557  0.00  0.00    -0.346 N 
ATOM      4  C10 non d ame     -32.914   7.956  24.676  0.00  0.00     0.241 C 
ATOM      5  O4  non d ame     -33.885   8.202  24.039  0.00  0.00    -0.271 OA
ATOM      6  H19 non d ame     -31.468   8.820  26.109  0.00  0.00     0.163 HD
BRANCH   4   7
ATOM      7  C9  non d ame     -32.295   6.585  24.604  0.00  0.00     0.092 C 
ATOM      8  H11 non d ame     -31.237   6.655  24.855  0.00  0.00     0.088 H 
BRANCH   7   9
ATOM      9  N3  non d ame     -32.921   5.713  25.603  0.00  0.00    -0.346 N 
ATOM     10  C7  non d ame     -32.506   5.784  26.982  0.00  0.00     0.240 C 
ATOM     11  O3  non d ame     -31.671   6.537  27.306  0.00  0.00    -0.271 OA
ATOM     12  H10 non d ame     -33.642   5.057  25.338  0.00  0.00     0.163 HD
BRANCH  10  13
ATOM     13  C6  non d ame     -33.174   4.851  28.040  0.00  0.00     0.086 C 
ATOM     14  H6  non d ame     -32.468   4.154  28.492  0.00  0.00     0.086 H 
BRANCH  13  15
ATOM     15  N2  non d ame     -33.703   5.666  29.121  0.00  0.00    -0.343 N 
ATOM     16  C5  non d ame     -34.610   6.773  28.812  0.00  0.00     0.273 C 
ATOM     17  O2  non d ame     -34.906   7.003  27.691  0.00  0.00    -0.266 OA
ATOM     18  H5  non d ame     -33.442   5.465  30.076  0.00  0.00     0.163 HD
BRANCH  16  19
ATOM     19  C4  non d ame     -35.178   7.643  29.946  0.00  0.00     0.154 A 
ATOM     20  C1  non d ame     -34.512   8.703  30.638  0.00  0.00    -0.017 A 
ATOM     21  C2  non d ame     -35.457   9.173  31.576  0.00  0.00     0.077 A 
ATOM     22  H1  non d ame     -33.499   9.074  30.483  0.00  0.00     0.091 H 
ATOM     23  O1  non d ame     -36.536   8.462  31.431  0.00  0.00    -0.218 OA
ATOM     24  N1  non d ame     -36.397   7.561  30.485  0.00  0.00    -0.123 NA
BRANCH  21  25
ATOM     25  C3  non d ame     -35.252  10.306  32.573  0.00  0.00    -0.029 C 
ATOM     26  H2  non d ame     -35.926  11.128  32.334  0.00  0.00     0.036 H 
ATOM     27  H3  non d ame     -35.462   9.948  33.580  0.00  0.00     0.036 H 
ATOM     28  H4  non d ame     -34.221  10.656  32.520  0.00  0.00     0.036 H 
ENDBRANCH  21  25
ENDBRANCH  16  19
ENDBRANCH  13  15
BRANCH  13  29
ATOM     29  C8  non d ame     -34.286   4.067  27.392  0.00  0.00    -0.049 C 
ATOM     30  H7  non d ame     -34.762   4.676  26.625  0.00  0.00     0.030 H 
ATOM     31  H8  non d ame     -33.877   3.165  26.937  0.00  0.00     0.030 H 
ATOM     32  H9  non d ame     -35.024   3.791  28.147  0.00  0.00     0.030 H 
ENDBRANCH  13  29
ENDBRANCH  10  13
ENDBRANCH   7   9
BRANCH   7  33
ATOM     33  C11 non d ame     -32.522   5.988  23.184  0.00  0.00    -0.033 C 
ATOM     34  H12 non d ame     -33.330   6.550  22.716  0.00  0.00     0.042 H 
BRANCH  33  35
ATOM     35  C12 non d ame     -31.255   6.156  22.289  0.00  0.00    -0.071 C 
ATOM     36  H13 non d ame     -30.381   6.312  22.922  0.00  0.00     0.028 H 
ATOM     37  H14 non d ame     -31.112   5.259  21.687  0.00  0.00     0.028 H 
ATOM     38  H15 non d ame     -31.385   7.017  21.633  0.00  0.00     0.028 H 
ENDBRANCH  33  35
BRANCH  33  39
ATOM     39  C13 non d ame     -32.961   4.491  23.270  0.00  0.00    -0.071 C 
ATOM     40  H16 non d ame     -32.360   3.896  22.582  0.00  0.00     0.028 H 
ATOM     41  H17 non d ame     -32.817   4.127  24.288  0.00  0.00     0.028 H 
ATOM     42  H18 non d ame     -34.013   4.405  23.001  0.00  0.00     0.028 H 
ENDBRANCH  33  39
ENDBRANCH   7  33
ENDBRANCH   4   7
ENDBRANCH   1   3
BRANCH   1  43
ATOM     43  C15 non d ame     -31.731  11.390  25.525  0.00  0.00     0.240 C 
ATOM     44  O5  non d ame     -30.711  11.215  26.109  0.00  0.00    -0.271 OA
ATOM     45  N6  non d ame     -31.903  12.607  24.683  0.00  0.00    -0.355 N 
ATOM     46  H46 non d ame     -32.764  12.765  24.178  0.00  0.00     0.162 HD
BRANCH  45  47
ATOM     47  C20 non d ame     -30.805  13.594  24.589  0.00  0.00     0.013 C 
ATOM     48  H30 non d ame     -29.987  13.245  25.219  0.00  0.00     0.072 H 
BRANCH  47  49
ATOM     49  C21 non d ame     -31.297  14.938  25.077  0.00  0.00    -0.038 C 
ATOM     50  H31 non d ame     -30.751  15.134  26.000  0.00  0.00     0.036 H 
ATOM     51  H32 non d ame     -31.195  15.614  24.228  0.00  0.00     0.036 H 
BRANCH  49  52
ATOM     52  C22 non d ame     -32.796  14.928  25.449  0.00  0.00     0.018 C 
ATOM     53  H33 non d ame     -33.249  15.731  24.868  0.00  0.00     0.048 H 
ATOM     54  H34 non d ame     -33.128  13.899  25.310  0.00  0.00     0.048 H 
BRANCH  52  55
ATOM     55  C23 non d ame     -33.073  15.269  26.939  0.00  0.00     0.259 C 
ATOM     56  O7  non d ame     -34.185  15.442  27.322  0.00  0.00    -0.265 OA
BRANCH  55  57
ATOM     57  O8  non d ame     -31.980  15.386  27.842  0.00  0.00    -0.317 OA
BRANCH  57  58
ATOM     58  C29 non d ame     -31.055  14.297  27.782  0.00  0.00     0.052 C 
ATOM     59  H47 non d ame     -31.251  13.795  26.835  0.00  0.00     0.082 H 
ATOM     60  H48 non d ame     -30.075  14.729  27.978  0.00  0.00     0.082 H 
BRANCH  58  61
ATOM     61  C35 non d ame     -31.396  13.316  28.937  0.00  0.00    -0.034 A 
ATOM     62  C30 non d ame     -32.723  13.097  29.295  0.00  0.00    -0.075 A 
ATOM     63  C31 non d ame     -33.030  12.217  30.332  0.00  0.00    -0.082 A 
ATOM     64  H49 non d ame     -33.522  13.615  28.764  0.00  0.00     0.084 H 
ATOM     65  C32 non d ame     -32.004  11.556  31.012  0.00  0.00    -0.083 A 
ATOM     66  H50 non d ame     -34.071  12.046  30.609  0.00  0.00     0.083 H 
ATOM     67  C33 non d ame     -30.682  11.781  30.654  0.00  0.00    -0.082 A 
ATOM     68  H51 non d ame     -32.235  10.865  31.824  0.00  0.00     0.083 H 
ATOM     69  C34 non d ame     -30.371  12.658  29.617  0.00  0.00    -0.075 A 
ATOM     70  H52 non d ame     -29.883  11.265  31.189  0.00  0.00     0.083 H 
ATOM     71  H53 non d ame     -29.330  12.828  29.340  0.00  0.00     0.084 H 
ENDBRANCH  58  61
ENDBRANCH  57  58
ENDBRANCH  55  57
ENDBRANCH  52  55
ENDBRANCH  49  52
ENDBRANCH  47  49
BRANCH  47  72
ATOM     72  C24 non d ame     -30.344  13.715  23.138  0.00  0.00    -0.039 C 
ATOM     73  H35 non d ame     -29.332  13.308  23.121  0.00  0.00     0.036 H 
ATOM     74  H36 non d ame     -31.129  13.248  22.544  0.00  0.00     0.036 H 
BRANCH  72  75
ATOM     75  C25 non d ame     -30.245  15.245  22.673  0.00  0.00    -0.001 C 
ATOM     76  C26 non d ame     -31.318  15.531  21.461  0.00  0.00    -0.035 C 
ATOM     77  C27 non d ame     -30.666  16.121  20.430  0.00  0.00     0.085 C 
ATOM     78  H38 non d ame     -31.664  14.589  21.037  0.00  0.00     0.036 H 
ATOM     79  H39 non d ame     -32.040  16.287  21.770  0.00  0.00     0.036 H 
ATOM     80  N5  non d ame     -29.187  15.965  20.697  0.00  0.00    -0.049 N 
ATOM     81  H40 non d ame     -30.931  15.539  19.547  0.00  0.00     0.075 H 
ATOM     82  H41 non d ame     -30.927  17.176  20.486  0.00  0.00     0.075 H 
ATOM     83  C28 non d ame     -29.060  15.527  22.246  0.00  0.00     0.193 C 
ATOM     84  H42 non d ame     -28.872  15.199  20.120  0.00  0.00     0.280 HD
ATOM     85  H43 non d ame     -28.780  16.883  20.587  0.00  0.00     0.280 HD
ATOM     86  H44 non d ame     -28.745  16.249  23.000  0.00  0.00     0.129 H 
ATOM     87  H37 non d ame     -30.255  15.934  23.517  0.00  0.00     0.046 H 
BRANCH  83  88
ATOM     88  O6  non d ame     -28.163  14.423  22.374  0.00  0.00    -0.369 OA
ATOM     89  H45 non d ame     -27.760  14.237  21.522  0.00  0.00     0.212 HD
ENDBRANCH  83  88
ENDBRANCH  72  75
ENDBRANCH  47  72
ENDBRANCH  45  47
ENDBRANCH   1  43
BRANCH   1  90
ATOM     90  C16 non d ame     -33.585  10.496  26.970  0.00  0.00    -0.035 C 
ATOM     91  H21 non d ame     -33.252   9.653  27.573  0.00  0.00     0.037 H 
ATOM     92  H22 non d ame     -33.372  11.516  27.293  0.00  0.00     0.037 H 
BRANCH  90  93
ATOM     93  C17 non d ame     -35.140  10.380  26.870  0.00  0.00    -0.059 C 
ATOM     94  H23 non d ame     -35.391   9.319  26.852  0.00  0.00     0.038 H 
BRANCH  93  95
ATOM     95  C18 non d ame     -35.859  11.018  28.101  0.00  0.00    -0.073 C 
ATOM     96  H24 non d ame     -35.115  11.419  28.790  0.00  0.00     0.028 H 
ATOM     97  H25 non d ame     -36.511  11.823  27.764  0.00  0.00     0.028 H 
ATOM     98  H26 non d ame     -36.452  10.258  28.610  0.00  0.00     0.028 H 
ENDBRANCH  93  95
BRANCH  93  99
ATOM     99  C19 non d ame     -35.651  10.992  25.564  0.00  0.00    -0.073 C 
ATOM    100  H27 non d ame     -35.238  10.441  24.718  0.00  0.00     0.028 H 
ATOM    101  H28 non d ame     -36.739  10.935  25.536  0.00  0.00     0.028 H 
ATOM    102  H29 non d ame     -35.340  12.035  25.505  0.00  0.00     0.028 H 
ENDBRANCH  93  99
ENDBRANCH  90  93
ENDBRANCH   1  90
TORSDOF 26
ENDMDL
MODEL 12
REMARK VINA RESULT:      -6.5      2.449      6.014
REMARK  26 active torsions:
REMARK  status: ('A' for Active; 'I' for Inactive)
REMARK    1  A    between atoms: C2_2  and  C3_3 
REMARK    2  A    between atoms: C4_6  and  C5_7 
REMARK       I    between atoms: C5_7  and  N2_9 
REMARK    3  A    between atoms: N2_9  and  C6_10 
REMARK    4  A    between atoms: C6_10  and  C7_11 
REMARK    5  A    between atoms: C6_10  and  C8_13 
REMARK       I    between atoms: C7_11  and  N3_14 
REMARK    6  A    between atoms: N3_14  and  C9_15 
REMARK    7  A    between atoms: C9_15  and  C10_16 
REMARK    8  A    between atoms: C9_15  and  C11_18 
REMARK       I    between atoms: C10_16  and  N4_21 
REMARK    9  A    between atoms: C11_18  and  C12_19 
REMARK   10  A    between atoms: C11_18  and  C13_20 
REMARK   11  A    between atoms: N4_21  and  C14_22 
REMARK   12  A    between atoms: C14_22  and  C15_23 
REMARK   13  A    between atoms: C14_22  and  C16_25 
REMARK       I    between atoms: C15_23  and  N6_40 
REMARK   14  A    between atoms: C16_25  and  C17_26 
REMARK   15  A    between atoms: C17_26  and  C18_27 
REMARK   16  A    between atoms: C17_26  and  C19_28 
REMARK   17  A    between atoms: C20_29  and  C21_30 
REMARK   18  A    between atoms: C20_29  and  C24_33 
REMARK   19  A    between atoms: C20_29  and  N6_40 
REMARK   20  A    between atoms: C21_30  and  C22_31 
REMARK   21  A    between atoms: C22_31  and  C23_32 
REMARK   22  A    between atoms: C23_32  and  O8_43 
REMARK   23  A    between atoms: C24_33  and  C25_34 
REMARK   24  A    between atoms: C28_38  and  O6_39 
REMARK   25  A    between atoms: C29_42  and  O8_43 
REMARK   26  A    between atoms: C29_42  and  C35_49 
ROOT
ATOM      1  C14 non d ame     -32.162   9.122  24.611  0.00  0.00     0.089 C 
ATOM      2  H20 non d ame     -31.540   8.296  24.957  0.00  0.00     0.087 H 
ENDROOT
BRANCH   1   3
ATOM      3  N4  non d ame     -33.445   9.019  25.290  0.00  0.00    -0.346 N 
ATOM      4  C10 non d ame     -33.873   7.716  25.917  0.00  0.00     0.241 C 
ATOM      5  O4  non d ame     -33.168   6.763  25.861  0.00  0.00    -0.271 OA
ATOM      6  H19 non d ame     -34.031   9.841  25.324  0.00  0.00     0.163 HD
BRANCH   4   7
ATOM      7  C9  non d ame     -35.202   7.629  26.620  0.00  0.00     0.092 C 
ATOM      8  H11 non d ame     -35.230   6.722  27.223  0.00  0.00     0.088 H 
BRANCH   7   9
ATOM      9  N3  non d ame     -35.347   8.764  27.536  0.00  0.00    -0.346 N 
ATOM     10  C7  non d ame     -35.936   8.568  28.838  0.00  0.00     0.240 C 
ATOM     11  O3  non d ame     -36.299   7.504  29.164  0.00  0.00    -0.271 OA
ATOM     12  H10 non d ame     -35.039   9.687  27.268  0.00  0.00     0.163 HD
BRANCH  10  13
ATOM     13  C6  non d ame     -36.090   9.780  29.808  0.00  0.00     0.086 C 
ATOM     14  H6  non d ame     -36.122   9.481  30.855  0.00  0.00     0.086 H 
BRANCH  13  15
ATOM     15  N2  non d ame     -34.938  10.653  29.660  0.00  0.00    -0.343 N 
ATOM     16  C5  non d ame     -33.904  10.665  30.696  0.00  0.00     0.273 C 
ATOM     17  O2  non d ame     -34.010   9.971  31.648  0.00  0.00    -0.266 OA
ATOM     18  H5  non d ame     -34.856  11.245  28.845  0.00  0.00     0.163 HD
BRANCH  16  19
ATOM     19  C4  non d ame     -32.679  11.582  30.552  0.00  0.00     0.154 A 
ATOM     20  C1  non d ame     -32.622  12.851  29.893  0.00  0.00    -0.017 A 
ATOM     21  C2  non d ame     -31.284  13.277  30.042  0.00  0.00     0.077 A 
ATOM     22  H1  non d ame     -33.428  13.381  29.386  0.00  0.00     0.091 H 
ATOM     23  O1  non d ame     -30.655  12.356  30.710  0.00  0.00    -0.218 OA
ATOM     24  N1  non d ame     -31.448  11.356  31.019  0.00  0.00    -0.123 NA
BRANCH  21  25
ATOM     25  C3  non d ame     -30.688  14.577  29.518  0.00  0.00    -0.029 C 
ATOM     26  H2  non d ame     -29.743  14.774  30.024  0.00  0.00     0.036 H 
ATOM     27  H3  non d ame     -30.513  14.491  28.445  0.00  0.00     0.036 H 
ATOM     28  H4  non d ame     -31.380  15.398  29.708  0.00  0.00     0.036 H 
ENDBRANCH  21  25
ENDBRANCH  16  19
ENDBRANCH  13  15
BRANCH  13  29
ATOM     29  C8  non d ame     -37.354  10.533  29.478  0.00  0.00    -0.049 C 
ATOM     30  H7  non d ame     -37.111  11.405  28.873  0.00  0.00     0.030 H 
ATOM     31  H8  non d ame     -38.030   9.883  28.923  0.00  0.00     0.030 H 
ATOM     32  H9  non d ame     -37.836  10.855  30.403  0.00  0.00     0.030 H 
ENDBRANCH  13  29
ENDBRANCH  10  13
ENDBRANCH   7   9
BRANCH   7  33
ATOM     33  C11 non d ame     -36.349   7.667  25.566  0.00  0.00    -0.033 C 
ATOM     34  H12 non d ame     -35.908   7.454  24.593  0.00  0.00     0.042 H 
BRANCH  33  35
ATOM     35  C12 non d ame     -37.417   6.565  25.849  0.00  0.00    -0.071 C 
ATOM     36  H13 non d ame     -36.916   5.636  26.125  0.00  0.00     0.028 H 
ATOM     37  H14 non d ame     -38.063   6.886  26.665  0.00  0.00     0.028 H 
ATOM     38  H15 non d ame     -38.016   6.401  24.953  0.00  0.00     0.028 H 
ENDBRANCH  33  35
BRANCH  33  39
ATOM     39  C13 non d ame     -37.001   9.085  25.501  0.00  0.00    -0.071 C 
ATOM     40  H16 non d ame     -36.429   9.717  24.821  0.00  0.00     0.028 H 
ATOM     41  H17 non d ame     -38.026   8.998  25.141  0.00  0.00     0.028 H 
ATOM     42  H18 non d ame     -37.003   9.530  26.496  0.00  0.00     0.028 H 
ENDBRANCH  33  39
ENDBRANCH   7  33
ENDBRANCH   4   7
ENDBRANCH   1   3
BRANCH   1  43
ATOM     43  C15 non d ame     -31.536  10.507  24.944  0.00  0.00     0.240 C 
ATOM     44  O5  non d ame     -31.124  10.722  26.038  0.00  0.00    -0.271 OA
ATOM     45  N6  non d ame     -31.440  11.562  23.896  0.00  0.00    -0.355 N 
ATOM     46  H46 non d ame     -31.782  11.390  22.961  0.00  0.00     0.162 HD
BRANCH  45  47
ATOM     47  C20 non d ame     -30.841  12.873  24.228  0.00  0.00     0.013 C 
ATOM     48  H30 non d ame     -30.224  12.743  25.117  0.00  0.00     0.072 H 
BRANCH  47  49
ATOM     49  C21 non d ame     -31.943  13.871  24.504  0.00  0.00    -0.038 C 
ATOM     50  H31 non d ame     -31.707  14.745  23.897  0.00  0.00     0.036 H 
ATOM     51  H32 non d ame     -32.876  13.331  24.342  0.00  0.00     0.036 H 
BRANCH  49  52
ATOM     52  C22 non d ame     -31.964  14.350  25.972  0.00  0.00     0.018 C 
ATOM     53  H33 non d ame     -31.510  13.547  26.551  0.00  0.00     0.048 H 
ATOM     54  H34 non d ame     -31.510  15.341  25.965  0.00  0.00     0.048 H 
BRANCH  52  55
ATOM     55  C23 non d ame     -33.395  14.538  26.548  0.00  0.00     0.259 C 
ATOM     56  O7  non d ame     -34.325  13.998  26.041  0.00  0.00    -0.265 OA
BRANCH  55  57
ATOM     57  O8  non d ame     -33.585  15.376  27.682  0.00  0.00    -0.317 OA
BRANCH  57  58
ATOM     58  C29 non d ame     -32.938  16.649  27.581  0.00  0.00     0.052 C 
ATOM     59  H47 non d ame     -32.669  16.924  28.601  0.00  0.00     0.082 H 
ATOM     60  H48 non d ame     -32.163  16.527  26.826  0.00  0.00     0.082 H 
BRANCH  58  61
ATOM     61  C35 non d ame     -33.979  17.673  27.054  0.00  0.00    -0.034 A 
ATOM     62  C30 non d ame     -33.738  18.363  25.870  0.00  0.00    -0.075 A 
ATOM     63  C31 non d ame     -34.672  19.284  25.397  0.00  0.00    -0.082 A 
ATOM     64  H49 non d ame     -32.818  18.184  25.313  0.00  0.00     0.084 H 
ATOM     65  C32 non d ame     -35.850  19.515  26.113  0.00  0.00    -0.083 A 
ATOM     66  H50 non d ame     -34.481  19.822  24.467  0.00  0.00     0.083 H 
ATOM     67  C33 non d ame     -36.083  18.826  27.295  0.00  0.00    -0.082 A 
ATOM     68  H51 non d ame     -36.586  20.232  25.749  0.00  0.00     0.083 H 
ATOM     69  C34 non d ame     -35.154  17.904  27.771  0.00  0.00    -0.075 A 
ATOM     70  H52 non d ame     -37.002  19.010  27.854  0.00  0.00     0.083 H 
ATOM     71  H53 non d ame     -35.345  17.366  28.700  0.00  0.00     0.084 H 
ENDBRANCH  58  61
ENDBRANCH  57  58
ENDBRANCH  55  57
ENDBRANCH  52  55
ENDBRANCH  49  52
ENDBRANCH  47  49
BRANCH  47  72
ATOM     72  C24 non d ame     -29.989  13.363  23.059  0.00  0.00    -0.039 C 
ATOM     73  H35 non d ame     -28.956  13.285  23.400  0.00  0.00     0.036 H 
ATOM     74  H36 non d ame     -30.322  12.786  22.196  0.00  0.00     0.036 H 
BRANCH  72  75
ATOM     75  C25 non d ame     -30.264  14.906  22.730  0.00  0.00    -0.001 C 
ATOM     76  C26 non d ame     -30.999  15.044  21.266  0.00  0.00    -0.035 C 
ATOM     77  C27 non d ame     -30.316  15.943  20.517  0.00  0.00     0.085 C 
ATOM     78  H38 non d ame     -30.895  14.115  20.706  0.00  0.00     0.036 H 
ATOM     79  H39 non d ame     -31.982  15.503  21.381  0.00  0.00     0.036 H 
ATOM     80  N5  non d ame     -28.998  16.186  21.213  0.00  0.00    -0.049 N 
ATOM     81  H40 non d ame     -30.130  15.447  19.565  0.00  0.00     0.075 H 
ATOM     82  H41 non d ame     -30.908  16.857  20.548  0.00  0.00     0.075 H 
ATOM     83  C28 non d ame     -29.164  15.581  22.701  0.00  0.00     0.193 C 
ATOM     84  H42 non d ame     -28.309  15.639  20.719  0.00  0.00     0.280 HD
ATOM     85  H43 non d ame     -28.893  17.188  21.283  0.00  0.00     0.280 HD
ATOM     86  H44 non d ame     -29.315  16.243  23.554  0.00  0.00     0.129 H 
ATOM     87  H37 non d ame     -30.724  15.431  23.567  0.00  0.00     0.046 H 
BRANCH  83  88
ATOM     88  O6  non d ame     -28.030  14.778  23.036  0.00  0.00    -0.369 OA
ATOM     89  H45 non d ame     -27.608  15.133  23.823  0.00  0.00     0.212 HD
ENDBRANCH  83  88
ENDBRANCH  72  75
ENDBRANCH  47  72
ENDBRANCH  45  47
ENDBRANCH   1  43
BRANCH   1  90
ATOM     90  C16 non d ame     -32.382   9.008  23.111  0.00  0.00    -0.035 C 
ATOM     91  H21 non d ame     -33.334   8.491  22.998  0.00  0.00     0.037 H 
ATOM     92  H22 non d ame     -32.261  10.020  22.724  0.00  0.00     0.037 H 
BRANCH  90  93
ATOM     93  C17 non d ame     -31.314   8.127  22.387  0.00  0.00    -0.059 C 
ATOM     94  H23 non d ame     -31.758   7.767  21.459  0.00  0.00     0.038 H 
BRANCH  93  95
ATOM     95  C18 non d ame     -30.032   8.939  22.018  0.00  0.00    -0.073 C 
ATOM     96  H24 non d ame     -30.271   9.663  21.238  0.00  0.00     0.028 H 
ATOM     97  H25 non d ame     -29.669   9.465  22.901  0.00  0.00     0.028 H 
ATOM     98  H26 non d ame     -29.262   8.258  21.658  0.00  0.00     0.028 H 
ENDBRANCH  93  95
BRANCH  93  99
ATOM     99  C19 non d ame     -30.957   6.899  23.228  0.00  0.00    -0.073 C 
ATOM    100  H27 non d ame     -30.208   7.173  23.972  0.00  0.00     0.028 H 
ATOM    101  H28 non d ame     -31.851   6.530  23.732  0.00  0.00     0.028 H 
ATOM    102  H29 non d ame     -30.557   6.119  22.581  0.00  0.00     0.028 H 
ENDBRANCH  93  99
ENDBRANCH  90  93
ENDBRANCH   1  90
TORSDOF 26
ENDMDL
MODEL 13
REMARK VINA RESULT:      -6.5      3.362      6.153
REMARK  26 active torsions:
REMARK  status: ('A' for Active; 'I' for Inactive)
REMARK    1  A    between atoms: C2_2  and  C3_3 
REMARK    2  A    between atoms: C4_6  and  C5_7 
REMARK       I    between atoms: C5_7  and  N2_9 
REMARK    3  A    between atoms: N2_9  and  C6_10 
REMARK    4  A    between atoms: C6_10  and  C7_11 
REMARK    5  A    between atoms: C6_10  and  C8_13 
REMARK       I    between atoms: C7_11  and  N3_14 
REMARK    6  A    between atoms: N3_14  and  C9_15 
REMARK    7  A    between atoms: C9_15  and  C10_16 
REMARK    8  A    between atoms: C9_15  and  C11_18 
REMARK       I    between atoms: C10_16  and  N4_21 
REMARK    9  A    between atoms: C11_18  and  C12_19 
REMARK   10  A    between atoms: C11_18  and  C13_20 
REMARK   11  A    between atoms: N4_21  and  C14_22 
REMARK   12  A    between atoms: C14_22  and  C15_23 
REMARK   13  A    between atoms: C14_22  and  C16_25 
REMARK       I    between atoms: C15_23  and  N6_40 
REMARK   14  A    between atoms: C16_25  and  C17_26 
REMARK   15  A    between atoms: C17_26  and  C18_27 
REMARK   16  A    between atoms: C17_26  and  C19_28 
REMARK   17  A    between atoms: C20_29  and  C21_30 
REMARK   18  A    between atoms: C20_29  and  C24_33 
REMARK   19  A    between atoms: C20_29  and  N6_40 
REMARK   20  A    between atoms: C21_30  and  C22_31 
REMARK   21  A    between atoms: C22_31  and  C23_32 
REMARK   22  A    between atoms: C23_32  and  O8_43 
REMARK   23  A    between atoms: C24_33  and  C25_34 
REMARK   24  A    between atoms: C28_38  and  O6_39 
REMARK   25  A    between atoms: C29_42  and  O8_43 
REMARK   26  A    between atoms: C29_42  and  C35_49 
ROOT
ATOM      1  C14 non d ame     -32.765  10.444  25.688  0.00  0.00     0.089 C 
ATOM      2  H20 non d ame     -33.513  10.368  24.898  0.00  0.00     0.087 H 
ENDROOT
BRANCH   1   3
ATOM      3  N4  non d ame     -32.197   9.119  25.884  0.00  0.00    -0.346 N 
ATOM      4  C10 non d ame     -32.841   7.913  25.249  0.00  0.00     0.241 C 
ATOM      5  O4  non d ame     -33.818   8.033  24.585  0.00  0.00    -0.271 OA
ATOM      6  H19 non d ame     -31.368   9.038  26.454  0.00  0.00     0.163 HD
BRANCH   4   7
ATOM      7  C9  non d ame     -32.238   6.549  25.459  0.00  0.00     0.092 C 
ATOM      8  H11 non d ame     -31.425   6.623  26.180  0.00  0.00     0.088 H 
BRANCH   7   9
ATOM      9  N3  non d ame     -33.246   5.651  26.031  0.00  0.00    -0.346 N 
ATOM     10  C7  non d ame     -33.104   5.181  27.387  0.00  0.00     0.240 C 
ATOM     11  O3  non d ame     -32.186   5.515  28.032  0.00  0.00    -0.271 OA
ATOM     12  H10 non d ame     -34.042   5.353  25.487  0.00  0.00     0.163 HD
BRANCH  10  13
ATOM     13  C6  non d ame     -34.178   4.224  27.991  0.00  0.00     0.086 C 
ATOM     14  H6  non d ame     -33.796   3.633  28.822  0.00  0.00     0.086 H 
BRANCH  13  15
ATOM     15  N2  non d ame     -35.277   5.017  28.515  0.00  0.00    -0.343 N 
ATOM     16  C5  non d ame     -35.276   5.407  29.926  0.00  0.00     0.273 C 
ATOM     17  O2  non d ame     -34.389   5.075  30.633  0.00  0.00    -0.266 OA
ATOM     18  H5  non d ame     -36.033   5.294  27.905  0.00  0.00     0.163 HD
BRANCH  16  19
ATOM     19  C4  non d ame     -36.432   6.247  30.494  0.00  0.00     0.154 A 
ATOM     20  C1  non d ame     -36.526   7.674  30.532  0.00  0.00    -0.017 A 
ATOM     21  C2  non d ame     -37.770   7.940  31.147  0.00  0.00     0.077 A 
ATOM     22  H1  non d ame     -35.803   8.405  30.169  0.00  0.00     0.091 H 
ATOM     23  O1  non d ame     -38.318   6.794  31.423  0.00  0.00    -0.218 OA
ATOM     24  N1  non d ame     -37.556   5.791  31.052  0.00  0.00    -0.123 NA
BRANCH  21  25
ATOM     25  C3  non d ame     -38.360   9.314  31.431  0.00  0.00    -0.029 C 
ATOM     26  H2  non d ame     -37.786   9.801  32.219  0.00  0.00     0.036 H 
ATOM     27  H3  non d ame     -38.319   9.922  30.526  0.00  0.00     0.036 H 
ATOM     28  H4  non d ame     -39.396   9.207  31.749  0.00  0.00     0.036 H 
ENDBRANCH  21  25
ENDBRANCH  16  19
ENDBRANCH  13  15
BRANCH  13  29
ATOM     29  C8  non d ame     -34.681   3.289  26.920  0.00  0.00    -0.049 C 
ATOM     30  H7  non d ame     -34.126   3.461  25.998  0.00  0.00     0.030 H 
ATOM     31  H8  non d ame     -34.539   2.258  27.241  0.00  0.00     0.030 H 
ATOM     32  H9  non d ame     -35.742   3.473  26.745  0.00  0.00     0.030 H 
ENDBRANCH  13  29
ENDBRANCH  10  13
ENDBRANCH   7   9
BRANCH   7  33
ATOM     33  C11 non d ame     -31.758   5.979  24.091  0.00  0.00    -0.033 C 
ATOM     34  H12 non d ame     -30.977   5.246  24.296  0.00  0.00     0.042 H 
BRANCH  33  35
ATOM     35  C12 non d ame     -32.913   5.239  23.347  0.00  0.00    -0.071 C 
ATOM     36  H13 non d ame     -33.046   5.675  22.357  0.00  0.00     0.028 H 
ATOM     37  H14 non d ame     -32.664   4.183  23.249  0.00  0.00     0.028 H 
ATOM     38  H15 non d ame     -33.837   5.344  23.916  0.00  0.00     0.028 H 
ENDBRANCH  33  35
BRANCH  33  39
ATOM     39  C13 non d ame     -31.141   7.105  23.202  0.00  0.00    -0.071 C 
ATOM     40  H16 non d ame     -30.435   6.666  22.496  0.00  0.00     0.028 H 
ATOM     41  H17 non d ame     -31.936   7.613  22.653  0.00  0.00     0.028 H 
ATOM     42  H18 non d ame     -30.622   7.825  23.834  0.00  0.00     0.028 H 
ENDBRANCH  33  39
ENDBRANCH   7  33
ENDBRANCH   4   7
ENDBRANCH   1   3
BRANCH   1  43
ATOM     43  C15 non d ame     -31.615  11.425  25.313  0.00  0.00     0.240 C 
ATOM     44  O5  non d ame     -30.496  11.030  25.261  0.00  0.00    -0.271 OA
ATOM     45  N6  non d ame     -31.912  12.854  25.010  0.00  0.00    -0.355 N 
ATOM     46  H46 non d ame     -32.861  13.199  25.046  0.00  0.00     0.162 HD
BRANCH  45  47
ATOM     47  C20 non d ame     -30.809  13.772  24.655  0.00  0.00     0.013 C 
ATOM     48  H30 non d ame     -29.883  13.350  25.046  0.00  0.00     0.072 H 
BRANCH  47  49
ATOM     49  C21 non d ame     -31.064  15.125  25.278  0.00  0.00    -0.038 C 
ATOM     50  H31 non d ame     -30.145  15.693  25.136  0.00  0.00     0.036 H 
ATOM     51  H32 non d ame     -31.997  15.480  24.839  0.00  0.00     0.036 H 
BRANCH  49  52
ATOM     52  C22 non d ame     -31.300  15.048  26.803  0.00  0.00     0.018 C 
ATOM     53  H33 non d ame     -31.136  14.007  27.074  0.00  0.00     0.048 H 
ATOM     54  H34 non d ame     -30.677  15.830  27.237  0.00  0.00     0.048 H 
BRANCH  52  55
ATOM     55  C23 non d ame     -32.758  15.378  27.228  0.00  0.00     0.259 C 
ATOM     56  O7  non d ame     -33.645  14.629  26.970  0.00  0.00    -0.265 OA
BRANCH  55  57
ATOM     57  O8  non d ame     -33.026  16.593  27.917  0.00  0.00    -0.317 OA
BRANCH  57  58
ATOM     58  C29 non d ame     -32.940  17.760  27.095  0.00  0.00     0.052 C 
ATOM     59  H47 non d ame     -32.164  18.380  27.543  0.00  0.00     0.082 H 
ATOM     60  H48 non d ame     -32.825  17.396  26.075  0.00  0.00     0.082 H 
BRANCH  58  61
ATOM     61  C35 non d ame     -34.292  18.517  27.195  0.00  0.00    -0.034 A 
ATOM     62  C30 non d ame     -34.496  19.678  26.456  0.00  0.00    -0.075 A 
ATOM     63  C31 non d ame     -35.710  20.357  26.546  0.00  0.00    -0.082 A 
ATOM     64  H49 non d ame     -33.707  20.055  25.807  0.00  0.00     0.084 H 
ATOM     65  C32 non d ame     -36.721  19.873  27.381  0.00  0.00    -0.083 A 
ATOM     66  H50 non d ame     -35.869  21.266  25.964  0.00  0.00     0.083 H 
ATOM     67  C33 non d ame     -36.510  18.717  28.120  0.00  0.00    -0.082 A 
ATOM     68  H51 non d ame     -37.674  20.398  27.457  0.00  0.00     0.083 H 
ATOM     69  C34 non d ame     -35.299  18.033  28.031  0.00  0.00    -0.075 A 
ATOM     70  H52 non d ame     -37.300  18.343  28.773  0.00  0.00     0.083 H 
ATOM     71  H53 non d ame     -35.142  17.125  28.613  0.00  0.00     0.084 H 
ENDBRANCH  58  61
ENDBRANCH  57  58
ENDBRANCH  55  57
ENDBRANCH  52  55
ENDBRANCH  49  52
ENDBRANCH  47  49
BRANCH  47  72
ATOM     72  C24 non d ame     -30.726  13.916  23.137  0.00  0.00    -0.039 C 
ATOM     73  H35 non d ame     -30.021  13.150  22.811  0.00  0.00     0.036 H 
ATOM     74  H36 non d ame     -31.758  13.892  22.786  0.00  0.00     0.036 H 
BRANCH  72  75
ATOM     75  C25 non d ame     -30.114  15.333  22.708  0.00  0.00    -0.001 C 
ATOM     76  C26 non d ame     -31.251  16.217  21.915  0.00  0.00    -0.035 C 
ATOM     77  C27 non d ame     -30.726  16.657  20.747  0.00  0.00     0.085 C 
ATOM     78  H38 non d ame     -32.072  15.574  21.599  0.00  0.00     0.036 H 
ATOM     79  H39 non d ame     -31.460  17.137  22.463  0.00  0.00     0.036 H 
ATOM     80  N5  non d ame     -29.449  15.884  20.519  0.00  0.00    -0.049 N 
ATOM     81  H40 non d ame     -31.451  16.382  19.980  0.00  0.00     0.075 H 
ATOM     82  H41 non d ame     -30.481  17.705  20.914  0.00  0.00     0.075 H 
ATOM     83  C28 non d ame     -29.094  15.186  21.930  0.00  0.00     0.193 C 
ATOM     84  H42 non d ame     -29.668  15.161  19.849  0.00  0.00     0.280 HD
ATOM     85  H43 non d ame     -28.736  16.568  20.309  0.00  0.00     0.280 HD
ATOM     86  H44 non d ame     -28.303  15.589  22.563  0.00  0.00     0.129 H 
ATOM     87  H37 non d ame     -29.590  15.822  23.529  0.00  0.00     0.046 H 
BRANCH  83  88
ATOM     88  O6  non d ame     -28.763  13.811  21.730  0.00  0.00    -0.369 OA
ATOM     89  H45 non d ame     -29.462  13.382  21.231  0.00  0.00     0.212 HD
ENDBRANCH  83  88
ENDBRANCH  72  75
ENDBRANCH  47  72
ENDBRANCH  45  47
ENDBRANCH   1  43
BRANCH   1  90
ATOM     90  C16 non d ame     -33.424  10.900  26.980  0.00  0.00    -0.035 C 
ATOM     91  H21 non d ame     -33.511  11.981  26.893  0.00  0.00     0.037 H 
ATOM     92  H22 non d ame     -34.319  10.285  27.079  0.00  0.00     0.037 H 
BRANCH  90  93
ATOM     93  C17 non d ame     -32.559  10.629  28.252  0.00  0.00    -0.059 C 
ATOM     94  H23 non d ame     -31.734   9.980  27.959  0.00  0.00     0.038 H 
BRANCH  93  95
ATOM     95  C18 non d ame     -31.948  11.940  28.840  0.00  0.00    -0.073 C 
ATOM     96  H24 non d ame     -31.337  11.699  29.711  0.00  0.00     0.028 H 
ATOM     97  H25 non d ame     -31.327  12.422  28.085  0.00  0.00     0.028 H 
ATOM     98  H26 non d ame     -32.751  12.615  29.135  0.00  0.00     0.028 H 
ENDBRANCH  93  95
BRANCH  93  99
ATOM     99  C19 non d ame     -33.370   9.882  29.315  0.00  0.00    -0.073 C 
ATOM    100  H27 non d ame     -34.375  10.301  29.366  0.00  0.00     0.028 H 
ATOM    101  H28 non d ame     -33.430   8.826  29.052  0.00  0.00     0.028 H 
ATOM    102  H29 non d ame     -32.882   9.987  30.284  0.00  0.00     0.028 H 
ENDBRANCH  93  99
ENDBRANCH  90  93
ENDBRANCH   1  90
TORSDOF 26
ENDMDL
MODEL 14
REMARK VINA RESULT:      -6.4      2.934      8.977
REMARK  26 active torsions:
REMARK  status: ('A' for Active; 'I' for Inactive)
REMARK    1  A    between atoms: C2_2  and  C3_3 
REMARK    2  A    between atoms: C4_6  and  C5_7 
REMARK       I    between atoms: C5_7  and  N2_9 
REMARK    3  A    between atoms: N2_9  and  C6_10 
REMARK    4  A    between atoms: C6_10  and  C7_11 
REMARK    5  A    between atoms: C6_10  and  C8_13 
REMARK       I    between atoms: C7_11  and  N3_14 
REMARK    6  A    between atoms: N3_14  and  C9_15 
REMARK    7  A    between atoms: C9_15  and  C10_16 
REMARK    8  A    between atoms: C9_15  and  C11_18 
REMARK       I    between atoms: C10_16  and  N4_21 
REMARK    9  A    between atoms: C11_18  and  C12_19 
REMARK   10  A    between atoms: C11_18  and  C13_20 
REMARK   11  A    between atoms: N4_21  and  C14_22 
REMARK   12  A    between atoms: C14_22  and  C15_23 
REMARK   13  A    between atoms: C14_22  and  C16_25 
REMARK       I    between atoms: C15_23  and  N6_40 
REMARK   14  A    between atoms: C16_25  and  C17_26 
REMARK   15  A    between atoms: C17_26  and  C18_27 
REMARK   16  A    between atoms: C17_26  and  C19_28 
REMARK   17  A    between atoms: C20_29  and  C21_30 
REMARK   18  A    between atoms: C20_29  and  C24_33 
REMARK   19  A    between atoms: C20_29  and  N6_40 
REMARK   20  A    between atoms: C21_30  and  C22_31 
REMARK   21  A    between atoms: C22_31  and  C23_32 
REMARK   22  A    between atoms: C23_32  and  O8_43 
REMARK   23  A    between atoms: C24_33  and  C25_34 
REMARK   24  A    between atoms: C28_38  and  O6_39 
REMARK   25  A    between atoms: C29_42  and  O8_43 
REMARK   26  A    between atoms: C29_42  and  C35_49 
ROOT
ATOM      1  C14 non d ame     -36.186  13.852  25.924  0.00  0.00     0.089 C 
ATOM      2  H20 non d ame     -36.903  13.992  26.734  0.00  0.00     0.087 H 
ENDROOT
BRANCH   1   3
ATOM      3  N4  non d ame     -34.934  14.470  26.334  0.00  0.00    -0.346 N 
ATOM      4  C10 non d ame     -34.942  15.706  27.197  0.00  0.00     0.241 C 
ATOM      5  O4  non d ame     -35.969  16.187  27.549  0.00  0.00    -0.271 OA
ATOM      6  H19 non d ame     -34.072  14.048  26.022  0.00  0.00     0.163 HD
BRANCH   4   7
ATOM      7  C9  non d ame     -33.637  16.331  27.616  0.00  0.00     0.092 C 
ATOM      8  H11 non d ame     -33.804  16.955  28.493  0.00  0.00     0.088 H 
BRANCH   7   9
ATOM      9  N3  non d ame     -32.694  15.278  28.006  0.00  0.00    -0.346 N 
ATOM     10  C7  non d ame     -31.926  15.412  29.219  0.00  0.00     0.240 C 
ATOM     11  O3  non d ame     -32.054  16.360  29.893  0.00  0.00    -0.271 OA
ATOM     12  H10 non d ame     -32.572  14.455  27.433  0.00  0.00     0.163 HD
BRANCH  10  13
ATOM     13  C6  non d ame     -30.921  14.290  29.627  0.00  0.00     0.086 C 
ATOM     14  H6  non d ame     -30.111  14.658  30.256  0.00  0.00     0.086 H 
BRANCH  13  15
ATOM     15  N2  non d ame     -31.627  13.285  30.404  0.00  0.00    -0.343 N 
ATOM     16  C5  non d ame     -32.502  12.329  29.722  0.00  0.00     0.273 C 
ATOM     17  O2  non d ame     -32.636  12.380  28.549  0.00  0.00    -0.266 OA
ATOM     18  H5  non d ame     -31.510  13.251  31.407  0.00  0.00     0.163 HD
BRANCH  16  19
ATOM     19  C4  non d ame     -33.254  11.260  30.532  0.00  0.00     0.154 A 
ATOM     20  C1  non d ame     -33.567   9.926  30.121  0.00  0.00    -0.017 A 
ATOM     21  C2  non d ame     -34.257   9.362  31.217  0.00  0.00     0.077 A 
ATOM     22  H1  non d ame     -33.329   9.442  29.174  0.00  0.00     0.091 H 
ATOM     23  O1  non d ame     -34.326  10.272  32.143  0.00  0.00    -0.218 OA
ATOM     24  N1  non d ame     -33.747  11.389  31.766  0.00  0.00    -0.123 NA
BRANCH  21  25
ATOM     25  C3  non d ame     -34.816   7.948  31.298  0.00  0.00    -0.029 C 
ATOM     26  H2  non d ame     -35.478   7.867  32.160  0.00  0.00     0.036 H 
ATOM     27  H3  non d ame     -35.377   7.725  30.390  0.00  0.00     0.036 H 
ATOM     28  H4  non d ame     -33.997   7.237  31.402  0.00  0.00     0.036 H 
ENDBRANCH  21  25
ENDBRANCH  16  19
ENDBRANCH  13  15
BRANCH  13  29
ATOM     29  C8  non d ame     -30.331  13.666  28.389  0.00  0.00    -0.049 C 
ATOM     30  H7  non d ame     -29.314  14.030  28.248  0.00  0.00     0.030 H 
ATOM     31  H8  non d ame     -30.316  12.582  28.499  0.00  0.00     0.030 H 
ATOM     32  H9  non d ame     -30.936  13.935  27.522  0.00  0.00     0.030 H 
ENDBRANCH  13  29
ENDBRANCH  10  13
ENDBRANCH   7   9
BRANCH   7  33
ATOM     33  C11 non d ame     -33.044  17.139  26.425  0.00  0.00    -0.033 C 
ATOM     34  H12 non d ame     -33.842  17.284  25.696  0.00  0.00     0.042 H 
BRANCH  33  35
ATOM     35  C12 non d ame     -32.563  18.552  26.881  0.00  0.00    -0.071 C 
ATOM     36  H13 non d ame     -31.705  18.447  27.545  0.00  0.00     0.028 H 
ATOM     37  H14 non d ame     -32.278  19.139  26.009  0.00  0.00     0.028 H 
ATOM     38  H15 non d ame     -33.371  19.057  27.411  0.00  0.00     0.028 H 
ENDBRANCH  33  35
BRANCH  33  39
ATOM     39  C13 non d ame     -31.893  16.346  25.729  0.00  0.00    -0.071 C 
ATOM     40  H16 non d ame     -31.074  16.199  26.434  0.00  0.00     0.028 H 
ATOM     41  H17 non d ame     -32.266  15.376  25.398  0.00  0.00     0.028 H 
ATOM     42  H18 non d ame     -31.533  16.908  24.867  0.00  0.00     0.028 H 
ENDBRANCH  33  39
ENDBRANCH   7  33
ENDBRANCH   4   7
ENDBRANCH   1   3
BRANCH   1  43
ATOM     43  C15 non d ame     -35.922  12.347  25.629  0.00  0.00     0.240 C 
ATOM     44  O5  non d ame     -36.429  11.831  24.686  0.00  0.00    -0.271 OA
ATOM     45  N6  non d ame     -35.027  11.551  26.518  0.00  0.00    -0.355 N 
ATOM     46  H46 non d ame     -34.587  11.979  27.319  0.00  0.00     0.162 HD
BRANCH  45  47
ATOM     47  C20 non d ame     -34.786  10.122  26.223  0.00  0.00     0.013 C 
ATOM     48  H30 non d ame     -35.258   9.892  25.268  0.00  0.00     0.072 H 
BRANCH  47  49
ATOM     49  C21 non d ame     -35.394   9.275  27.318  0.00  0.00    -0.038 C 
ATOM     50  H31 non d ame     -34.732   8.416  27.428  0.00  0.00     0.036 H 
ATOM     51  H32 non d ame     -35.553   9.952  28.159  0.00  0.00     0.036 H 
BRANCH  49  52
ATOM     52  C22 non d ame     -36.782   8.714  26.941  0.00  0.00     0.018 C 
ATOM     53  H33 non d ame     -37.494   9.503  27.180  0.00  0.00     0.048 H 
ATOM     54  H34 non d ame     -36.687   8.358  25.915  0.00  0.00     0.048 H 
BRANCH  52  55
ATOM     55  C23 non d ame     -37.210   7.481  27.785  0.00  0.00     0.259 C 
ATOM     56  O7  non d ame     -38.360   7.242  27.963  0.00  0.00    -0.265 OA
BRANCH  55  57
ATOM     57  O8  non d ame     -36.209   6.647  28.356  0.00  0.00    -0.317 OA
BRANCH  57  58
ATOM     58  C29 non d ame     -35.857   5.522  27.545  0.00  0.00     0.052 C 
ATOM     59  H47 non d ame     -35.723   4.690  28.237  0.00  0.00     0.082 H 
ATOM     60  H48 non d ame     -36.618   5.468  26.768  0.00  0.00     0.082 H 
BRANCH  58  61
ATOM     61  C35 non d ame     -34.491   5.825  26.873  0.00  0.00    -0.034 A 
ATOM     62  C30 non d ame     -34.379   5.809  25.486  0.00  0.00    -0.075 A 
ATOM     63  C31 non d ame     -33.152   6.081  24.882  0.00  0.00    -0.082 A 
ATOM     64  H49 non d ame     -35.251   5.582  24.872  0.00  0.00     0.084 H 
ATOM     65  C32 non d ame     -32.034   6.369  25.670  0.00  0.00    -0.083 A 
ATOM     66  H50 non d ame     -33.068   6.069  23.794  0.00  0.00     0.083 H 
ATOM     67  C33 non d ame     -32.151   6.380  27.053  0.00  0.00    -0.082 A 
ATOM     68  H51 non d ame     -31.072   6.584  25.205  0.00  0.00     0.083 H 
ATOM     69  C34 non d ame     -33.375   6.111  27.661  0.00  0.00    -0.075 A 
ATOM     70  H52 non d ame     -31.276   6.603  27.665  0.00  0.00     0.083 H 
ATOM     71  H53 non d ame     -33.458   6.123  28.748  0.00  0.00     0.084 H 
ENDBRANCH  58  61
ENDBRANCH  57  58
ENDBRANCH  55  57
ENDBRANCH  52  55
ENDBRANCH  49  52
ENDBRANCH  47  49
BRANCH  47  72
ATOM     72  C24 non d ame     -33.283   9.857  26.148  0.00  0.00    -0.039 C 
ATOM     73  H35 non d ame     -32.863  10.321  27.042  0.00  0.00     0.036 H 
ATOM     74  H36 non d ame     -33.185   8.783  25.995  0.00  0.00     0.036 H 
BRANCH  72  75
ATOM     75  C25 non d ame     -32.616  10.579  24.883  0.00  0.00    -0.001 C 
ATOM     76  C26 non d ame     -32.532   9.529  23.621  0.00  0.00    -0.035 C 
ATOM     77  C27 non d ame     -31.265   9.522  23.142  0.00  0.00     0.085 C 
ATOM     78  H38 non d ame     -32.677   8.508  23.972  0.00  0.00     0.036 H 
ATOM     79  H39 non d ame     -33.119   9.904  22.782  0.00  0.00     0.036 H 
ATOM     80  N5  non d ame     -30.403  10.221  24.167  0.00  0.00    -0.049 N 
ATOM     81  H40 non d ame     -30.978   8.472  23.093  0.00  0.00     0.075 H 
ATOM     82  H41 non d ame     -31.293  10.122  22.234  0.00  0.00     0.075 H 
ATOM     83  C28 non d ame     -31.423  10.989  25.155  0.00  0.00     0.193 C 
ATOM     84  H42 non d ame     -29.934   9.496  24.689  0.00  0.00     0.280 HD
ATOM     85  H43 non d ame     -29.863  10.910  23.662  0.00  0.00     0.280 HD
ATOM     86  H44 non d ame     -31.562  12.068  25.077  0.00  0.00     0.129 H 
ATOM     87  H37 non d ame     -33.056  11.556  24.687  0.00  0.00     0.046 H 
BRANCH  83  88
ATOM     88  O6  non d ame     -31.066  10.746  26.517  0.00  0.00    -0.369 OA
ATOM     89  H45 non d ame     -31.519   9.960  26.832  0.00  0.00     0.212 HD
ENDBRANCH  83  88
ENDBRANCH  72  75
ENDBRANCH  47  72
ENDBRANCH  45  47
ENDBRANCH   1  43
BRANCH   1  90
ATOM     90  C16 non d ame     -36.691  14.537  24.665  0.00  0.00    -0.035 C 
ATOM     91  H21 non d ame     -36.080  15.433  24.559  0.00  0.00     0.037 H 
ATOM     92  H22 non d ame     -36.673  13.770  23.891  0.00  0.00     0.037 H 
BRANCH  90  93
ATOM     93  C17 non d ame     -38.172  15.024  24.768  0.00  0.00    -0.059 C 
ATOM     94  H23 non d ame     -38.740  14.523  23.985  0.00  0.00     0.038 H 
BRANCH  93  95
ATOM     95  C18 non d ame     -38.821  14.652  26.139  0.00  0.00    -0.073 C 
ATOM     96  H24 non d ame     -38.821  15.525  26.792  0.00  0.00     0.028 H 
ATOM     97  H25 non d ame     -39.847  14.321  25.978  0.00  0.00     0.028 H 
ATOM     98  H26 non d ame     -38.249  13.849  26.606  0.00  0.00     0.028 H 
ENDBRANCH  93  95
BRANCH  93  99
ATOM     99  C19 non d ame     -38.272  16.530  24.511  0.00  0.00    -0.073 C 
ATOM    100  H27 non d ame     -37.877  16.756  23.519  0.00  0.00     0.028 H 
ATOM    101  H28 non d ame     -39.315  16.841  24.565  0.00  0.00     0.028 H 
ATOM    102  H29 non d ame     -37.693  17.067  25.262  0.00  0.00     0.028 H 
ENDBRANCH  93  99
ENDBRANCH  90  93
ENDBRANCH   1  90
TORSDOF 26
ENDMDL
MODEL 15
REMARK VINA RESULT:      -6.4      3.367      9.464
REMARK  26 active torsions:
REMARK  status: ('A' for Active; 'I' for Inactive)
REMARK    1  A    between atoms: C2_2  and  C3_3 
REMARK    2  A    between atoms: C4_6  and  C5_7 
REMARK       I    between atoms: C5_7  and  N2_9 
REMARK    3  A    between atoms: N2_9  and  C6_10 
REMARK    4  A    between atoms: C6_10  and  C7_11 
REMARK    5  A    between atoms: C6_10  and  C8_13 
REMARK       I    between atoms: C7_11  and  N3_14 
REMARK    6  A    between atoms: N3_14  and  C9_15 
REMARK    7  A    between atoms: C9_15  and  C10_16 
REMARK    8  A    between atoms: C9_15  and  C11_18 
REMARK       I    between atoms: C10_16  and  N4_21 
REMARK    9  A    between atoms: C11_18  and  C12_19 
REMARK   10  A    between atoms: C11_18  and  C13_20 
REMARK   11  A    between atoms: N4_21  and  C14_22 
REMARK   12  A    between atoms: C14_22  and  C15_23 
REMARK   13  A    between atoms: C14_22  and  C16_25 
REMARK       I    between atoms: C15_23  and  N6_40 
REMARK   14  A    between atoms: C16_25  and  C17_26 
REMARK   15  A    between atoms: C17_26  and  C18_27 
REMARK   16  A    between atoms: C17_26  and  C19_28 
REMARK   17  A    between atoms: C20_29  and  C21_30 
REMARK   18  A    between atoms: C20_29  and  C24_33 
REMARK   19  A    between atoms: C20_29  and  N6_40 
REMARK   20  A    between atoms: C21_30  and  C22_31 
REMARK   21  A    between atoms: C22_31  and  C23_32 
REMARK   22  A    between atoms: C23_32  and  O8_43 
REMARK   23  A    between atoms: C24_33  and  C25_34 
REMARK   24  A    between atoms: C28_38  and  O6_39 
REMARK   25  A    between atoms: C29_42  and  O8_43 
REMARK   26  A    between atoms: C29_42  and  C35_49 
ROOT
ATOM      1  C14 non d ame     -34.044   6.437  27.141  0.00  0.00     0.089 C 
ATOM      2  H20 non d ame     -33.842   5.795  27.999  0.00  0.00     0.087 H 
ENDROOT
BRANCH   1   3
ATOM      3  N4  non d ame     -34.278   7.782  27.646  0.00  0.00    -0.346 N 
ATOM      4  C10 non d ame     -34.661   7.998  29.088  0.00  0.00     0.241 C 
ATOM      5  O4  non d ame     -34.778   7.074  29.824  0.00  0.00    -0.271 OA
ATOM      6  H19 non d ame     -34.176   8.554  27.004  0.00  0.00     0.163 HD
BRANCH   4   7
ATOM      7  C9  non d ame     -34.895   9.397  29.595  0.00  0.00     0.092 C 
ATOM      8  H11 non d ame     -34.972   9.377  30.681  0.00  0.00     0.088 H 
BRANCH   7   9
ATOM      9  N3  non d ame     -33.742  10.238  29.258  0.00  0.00    -0.346 N 
ATOM     10  C7  non d ame     -33.046  10.956  30.297  0.00  0.00     0.240 C 
ATOM     11  O3  non d ame     -33.400  10.869  31.410  0.00  0.00    -0.271 OA
ATOM     12  H10 non d ame     -33.426  10.324  28.303  0.00  0.00     0.163 HD
BRANCH  10  13
ATOM     13  C6  non d ame     -31.822  11.852  29.933  0.00  0.00     0.086 C 
ATOM     14  H6  non d ame     -31.369  11.580  28.980  0.00  0.00     0.086 H 
BRANCH  13  15
ATOM     15  N2  non d ame     -32.267  13.229  29.803  0.00  0.00    -0.343 N 
ATOM     16  C5  non d ame     -31.391  14.214  29.165  0.00  0.00     0.273 C 
ATOM     17  O2  non d ame     -30.328  13.889  28.763  0.00  0.00    -0.266 OA
ATOM     18  H5  non d ame     -33.176  13.499  30.152  0.00  0.00     0.163 HD
BRANCH  16  19
ATOM     19  C4  non d ame     -31.850  15.674  29.021  0.00  0.00     0.154 A 
ATOM     20  C1  non d ame     -32.564  16.251  27.924  0.00  0.00    -0.017 A 
ATOM     21  C2  non d ame     -32.739  17.607  28.278  0.00  0.00     0.077 A 
ATOM     22  H1  non d ame     -32.903  15.761  27.011  0.00  0.00     0.091 H 
ATOM     23  O1  non d ame     -32.189  17.778  29.444  0.00  0.00    -0.218 OA
ATOM     24  N1  non d ame     -31.663  16.663  29.898  0.00  0.00    -0.123 NA
BRANCH  21  25
ATOM     25  C3  non d ame     -33.445  18.671  27.449  0.00  0.00    -0.029 C 
ATOM     26  H2  non d ame     -32.726  19.431  27.145  0.00  0.00     0.036 H 
ATOM     27  H3  non d ame     -33.881  18.211  26.562  0.00  0.00     0.036 H 
ATOM     28  H4  non d ame     -34.233  19.133  28.043  0.00  0.00     0.036 H 
ENDBRANCH  21  25
ENDBRANCH  16  19
ENDBRANCH  13  15
BRANCH  13  29
ATOM     29  C8  non d ame     -30.778  11.746  31.016  0.00  0.00    -0.049 C 
ATOM     30  H7  non d ame     -29.824  11.461  30.575  0.00  0.00     0.030 H 
ATOM     31  H8  non d ame     -30.674  12.709  31.515  0.00  0.00     0.030 H 
ATOM     32  H9  non d ame     -31.083  10.991  31.741  0.00  0.00     0.030 H 
ENDBRANCH  13  29
ENDBRANCH  10  13
ENDBRANCH   7   9
BRANCH   7  33
ATOM     33  C11 non d ame     -36.173   9.984  28.927  0.00  0.00    -0.033 C 
ATOM     34  H12 non d ame     -36.638   9.185  28.349  0.00  0.00     0.042 H 
BRANCH  33  35
ATOM     35  C12 non d ame     -37.209  10.453  29.996  0.00  0.00    -0.071 C 
ATOM     36  H13 non d ame     -36.955  11.459  30.330  0.00  0.00     0.028 H 
ATOM     37  H14 non d ame     -38.207  10.455  29.560  0.00  0.00     0.028 H 
ATOM     38  H15 non d ame     -37.185   9.772  30.848  0.00  0.00     0.028 H 
ENDBRANCH  33  35
BRANCH  33  39
ATOM     39  C13 non d ame     -35.810  11.142  27.944  0.00  0.00    -0.071 C 
ATOM     40  H16 non d ame     -36.109  12.096  28.379  0.00  0.00     0.028 H 
ATOM     41  H17 non d ame     -34.734  11.145  27.767  0.00  0.00     0.028 H 
ATOM     42  H18 non d ame     -36.332  10.994  26.998  0.00  0.00     0.028 H 
ENDBRANCH  33  39
ENDBRANCH   7  33
ENDBRANCH   4   7
ENDBRANCH   1   3
BRANCH   1  43
ATOM     43  C15 non d ame     -32.848   6.482  26.147  0.00  0.00     0.240 C 
ATOM     44  O5  non d ame     -31.804   6.007  26.457  0.00  0.00    -0.271 OA
ATOM     45  N6  non d ame     -33.007   7.108  24.804  0.00  0.00    -0.355 N 
ATOM     46  H46 non d ame     -33.892   7.511  24.527  0.00  0.00     0.162 HD
BRANCH  45  47
ATOM     47  C20 non d ame     -31.861   7.142  23.871  0.00  0.00     0.013 C 
ATOM     48  H30 non d ame     -30.957   7.311  24.457  0.00  0.00     0.072 H 
BRANCH  47  49
ATOM     49  C21 non d ame     -32.054   8.269  22.882  0.00  0.00    -0.038 C 
ATOM     50  H31 non d ame     -32.998   8.060  22.377  0.00  0.00     0.036 H 
ATOM     51  H32 non d ame     -31.935   9.188  23.456  0.00  0.00     0.036 H 
BRANCH  49  52
ATOM     52  C22 non d ame     -30.968   8.297  21.784  0.00  0.00     0.018 C 
ATOM     53  H33 non d ame     -30.694   7.256  21.615  0.00  0.00     0.048 H 
ATOM     54  H34 non d ame     -31.386   8.891  20.971  0.00  0.00     0.048 H 
BRANCH  52  55
ATOM     55  C23 non d ame     -29.661   9.019  22.214  0.00  0.00     0.259 C 
ATOM     56  O7  non d ame     -28.633   8.783  21.666  0.00  0.00    -0.265 OA
BRANCH  55  57
ATOM     57  O8  non d ame     -29.704   9.959  23.282  0.00  0.00    -0.317 OA
BRANCH  57  58
ATOM     58  C29 non d ame     -30.117  11.270  22.889  0.00  0.00     0.052 C 
ATOM     59  H47 non d ame     -29.201  11.852  22.792  0.00  0.00     0.082 H 
ATOM     60  H48 non d ame     -30.767  11.129  22.026  0.00  0.00     0.082 H 
BRANCH  58  61
ATOM     61  C35 non d ame     -30.961  11.872  24.044  0.00  0.00    -0.034 A 
ATOM     62  C30 non d ame     -31.625  11.032  24.932  0.00  0.00    -0.075 A 
ATOM     63  C31 non d ame     -32.384  11.572  25.970  0.00  0.00    -0.082 A 
ATOM     64  H49 non d ame     -31.553   9.951  24.815  0.00  0.00     0.084 H 
ATOM     65  C32 non d ame     -32.478  12.959  26.117  0.00  0.00    -0.083 A 
ATOM     66  H50 non d ame     -32.902  10.911  26.666  0.00  0.00     0.083 H 
ATOM     67  C33 non d ame     -31.817  13.793  25.226  0.00  0.00    -0.082 A 
ATOM     68  H51 non d ame     -33.069  13.390  26.926  0.00  0.00     0.083 H 
ATOM     69  C34 non d ame     -31.056  13.257  24.188  0.00  0.00    -0.075 A 
ATOM     70  H52 non d ame     -31.894  14.875  25.341  0.00  0.00     0.083 H 
ATOM     71  H53 non d ame     -30.538  13.919  23.494  0.00  0.00     0.084 H 
ENDBRANCH  58  61
ENDBRANCH  57  58
ENDBRANCH  55  57
ENDBRANCH  52  55
ENDBRANCH  49  52
ENDBRANCH  47  49
BRANCH  47  72
ATOM     72  C24 non d ame     -31.767   5.815  23.120  0.00  0.00    -0.039 C 
ATOM     73  H35 non d ame     -31.016   5.974  22.345  0.00  0.00     0.036 H 
ATOM     74  H36 non d ame     -31.605   5.059  23.889  0.00  0.00     0.036 H 
BRANCH  72  75
ATOM     75  C25 non d ame     -33.141   5.453  22.382  0.00  0.00    -0.001 C 
ATOM     76  C26 non d ame     -33.916   4.254  23.197  0.00  0.00    -0.035 C 
ATOM     77  C27 non d ame     -34.239   3.270  22.325  0.00  0.00     0.085 C 
ATOM     78  H38 non d ame     -33.228   3.767  23.888  0.00  0.00     0.036 H 
ATOM     79  H39 non d ame     -34.884   4.608  23.552  0.00  0.00     0.036 H 
ATOM     80  N5  non d ame     -33.468   3.537  21.054  0.00  0.00    -0.049 N 
ATOM     81  H40 non d ame     -33.872   2.348  22.777  0.00  0.00     0.075 H 
ATOM     82  H41 non d ame     -35.303   3.393  22.127  0.00  0.00     0.075 H 
ATOM     83  C28 non d ame     -32.929   5.054  21.172  0.00  0.00     0.193 C 
ATOM     84  H42 non d ame     -32.675   2.913  21.064  0.00  0.00     0.280 HD
ATOM     85  H43 non d ame     -34.138   3.491  20.300  0.00  0.00     0.280 HD
ATOM     86  H44 non d ame     -33.411   5.857  20.612  0.00  0.00     0.129 H 
ATOM     87  H37 non d ame     -33.722   6.340  22.134  0.00  0.00     0.046 H 
BRANCH  83  88
ATOM     88  O6  non d ame     -31.547   5.115  20.817  0.00  0.00    -0.369 OA
ATOM     89  H45 non d ame     -31.440   5.666  20.038  0.00  0.00     0.212 HD
ENDBRANCH  83  88
ENDBRANCH  72  75
ENDBRANCH  47  72
ENDBRANCH  45  47
ENDBRANCH   1  43
BRANCH   1  90
ATOM     90  C16 non d ame     -35.291   5.953  26.419  0.00  0.00    -0.035 C 
ATOM     91  H21 non d ame     -34.938   5.560  25.467  0.00  0.00     0.037 H 
ATOM     92  H22 non d ame     -35.798   5.298  27.126  0.00  0.00     0.037 H 
BRANCH  90  93
ATOM     93  C17 non d ame     -36.299   7.097  26.076  0.00  0.00    -0.059 C 
ATOM     94  H23 non d ame     -35.872   8.033  26.437  0.00  0.00     0.038 H 
BRANCH  93  95
ATOM     95  C18 non d ame     -36.526   7.241  24.537  0.00  0.00    -0.073 C 
ATOM     96  H24 non d ame     -37.585   7.408  24.339  0.00  0.00     0.028 H 
ATOM     97  H25 non d ame     -35.950   8.086  24.162  0.00  0.00     0.028 H 
ATOM     98  H26 non d ame     -36.203   6.329  24.035  0.00  0.00     0.028 H 
ENDBRANCH  93  95
BRANCH  93  99
ATOM     99  C19 non d ame     -37.629   6.891  26.805  0.00  0.00    -0.073 C 
ATOM    100  H27 non d ame     -38.002   7.854  27.158  0.00  0.00     0.028 H 
ATOM    101  H28 non d ame     -38.355   6.450  26.123  0.00  0.00     0.028 H 
ATOM    102  H29 non d ame     -37.478   6.226  27.655  0.00  0.00     0.028 H 
ENDBRANCH  93  99
ENDBRANCH  90  93
ENDBRANCH   1  90
TORSDOF 26
ENDMDL
MODEL 16
REMARK VINA RESULT:      -6.3      2.656      6.352
REMARK  26 active torsions:
REMARK  status: ('A' for Active; 'I' for Inactive)
REMARK    1  A    between atoms: C2_2  and  C3_3 
REMARK    2  A    between atoms: C4_6  and  C5_7 
REMARK       I    between atoms: C5_7  and  N2_9 
REMARK    3  A    between atoms: N2_9  and  C6_10 
REMARK    4  A    between atoms: C6_10  and  C7_11 
REMARK    5  A    between atoms: C6_10  and  C8_13 
REMARK       I    between atoms: C7_11  and  N3_14 
REMARK    6  A    between atoms: N3_14  and  C9_15 
REMARK    7  A    between atoms: C9_15  and  C10_16 
REMARK    8  A    between atoms: C9_15  and  C11_18 
REMARK       I    between atoms: C10_16  and  N4_21 
REMARK    9  A    between atoms: C11_18  and  C12_19 
REMARK   10  A    between atoms: C11_18  and  C13_20 
REMARK   11  A    between atoms: N4_21  and  C14_22 
REMARK   12  A    between atoms: C14_22  and  C15_23 
REMARK   13  A    between atoms: C14_22  and  C16_25 
REMARK       I    between atoms: C15_23  and  N6_40 
REMARK   14  A    between atoms: C16_25  and  C17_26 
REMARK   15  A    between atoms: C17_26  and  C18_27 
REMARK   16  A    between atoms: C17_26  and  C19_28 
REMARK   17  A    between atoms: C20_29  and  C21_30 
REMARK   18  A    between atoms: C20_29  and  C24_33 
REMARK   19  A    between atoms: C20_29  and  N6_40 
REMARK   20  A    between atoms: C21_30  and  C22_31 
REMARK   21  A    between atoms: C22_31  and  C23_32 
REMARK   22  A    between atoms: C23_32  and  O8_43 
REMARK   23  A    between atoms: C24_33  and  C25_34 
REMARK   24  A    between atoms: C28_38  and  O6_39 
REMARK   25  A    between atoms: C29_42  and  O8_43 
REMARK   26  A    between atoms: C29_42  and  C35_49 
ROOT
ATOM      1  C14 non d ame     -33.455  11.867  28.755  0.00  0.00     0.089 C 
ATOM      2  H20 non d ame     -33.853  12.209  29.710  0.00  0.00     0.087 H 
ENDROOT
BRANCH   1   3
ATOM      3  N4  non d ame     -34.007  10.544  28.499  0.00  0.00    -0.346 N 
ATOM      4  C10 non d ame     -34.333   9.620  29.644  0.00  0.00     0.241 C 
ATOM      5  O4  non d ame     -34.142   9.962  30.764  0.00  0.00    -0.271 OA
ATOM      6  H19 non d ame     -34.159  10.272  27.538  0.00  0.00     0.163 HD
BRANCH   4   7
ATOM      7  C9  non d ame     -34.908   8.257  29.361  0.00  0.00     0.092 C 
ATOM      8  H11 non d ame     -35.799   8.364  28.743  0.00  0.00     0.088 H 
BRANCH   7   9
ATOM      9  N3  non d ame     -33.940   7.468  28.592  0.00  0.00    -0.346 N 
ATOM     10  C7  non d ame     -34.024   7.429  27.153  0.00  0.00     0.240 C 
ATOM     11  O3  non d ame     -34.864   8.025  26.597  0.00  0.00    -0.271 OA
ATOM     12  H10 non d ame     -33.211   6.948  29.058  0.00  0.00     0.163 HD
BRANCH  10  13
ATOM     13  C6  non d ame     -32.993   6.585  26.340  0.00  0.00     0.086 C 
ATOM     14  H6  non d ame     -33.465   5.957  25.585  0.00  0.00     0.086 H 
BRANCH  13  15
ATOM     15  N2  non d ame     -32.100   7.487  25.632  0.00  0.00    -0.343 N 
ATOM     16  C5  non d ame     -32.321   7.751  24.209  0.00  0.00     0.273 C 
ATOM     17  O2  non d ame     -33.218   7.232  23.642  0.00  0.00    -0.266 OA
ATOM     18  H5  non d ame     -31.334   7.924  26.124  0.00  0.00     0.163 HD
BRANCH  16  19
ATOM     19  C4  non d ame     -31.384   8.703  23.449  0.00  0.00     0.154 A 
ATOM     20  C1  non d ame     -31.320  10.128  23.563  0.00  0.00    -0.017 A 
ATOM     21  C2  non d ame     -30.306  10.519  22.661  0.00  0.00     0.077 A 
ATOM     22  H1  non d ame     -31.917  10.778  24.202  0.00  0.00     0.091 H 
ATOM     23  O1  non d ame     -29.846   9.439  22.101  0.00  0.00    -0.218 OA
ATOM     24  N1  non d ame     -30.460   8.366  22.544  0.00  0.00    -0.123 NA
BRANCH  21  25
ATOM     25  C3  non d ame     -29.836  11.943  22.396  0.00  0.00    -0.029 C 
ATOM     26  H2  non d ame     -30.287  12.617  23.123  0.00  0.00     0.036 H 
ATOM     27  H3  non d ame     -28.750  11.990  22.484  0.00  0.00     0.036 H 
ATOM     28  H4  non d ame     -30.131  12.243  21.391  0.00  0.00     0.036 H 
ENDBRANCH  21  25
ENDBRANCH  16  19
ENDBRANCH  13  15
BRANCH  13  29
ATOM     29  C8  non d ame     -32.205   5.709  27.280  0.00  0.00    -0.049 C 
ATOM     30  H7  non d ame     -32.181   4.691  26.893  0.00  0.00     0.030 H 
ATOM     31  H8  non d ame     -31.187   6.089  27.364  0.00  0.00     0.030 H 
ATOM     32  H9  non d ame     -32.678   5.713  28.263  0.00  0.00     0.030 H 
ENDBRANCH  13  29
ENDBRANCH  10  13
ENDBRANCH   7   9
BRANCH   7  33
ATOM     33  C11 non d ame     -35.210   7.533  30.706  0.00  0.00    -0.033 C 
ATOM     34  H12 non d ame     -34.597   8.000  31.476  0.00  0.00     0.042 H 
BRANCH  33  35
ATOM     35  C12 non d ame     -36.703   7.712  31.123  0.00  0.00    -0.071 C 
ATOM     36  H13 non d ame     -36.954   6.984  31.896  0.00  0.00     0.028 H 
ATOM     37  H14 non d ame     -36.855   8.719  31.510  0.00  0.00     0.028 H 
ATOM     38  H15 non d ame     -37.345   7.555  30.256  0.00  0.00     0.028 H 
ENDBRANCH  33  35
BRANCH  33  39
ATOM     39  C13 non d ame     -34.821   6.022  30.628  0.00  0.00    -0.071 C 
ATOM     40  H16 non d ame     -35.083   5.530  31.564  0.00  0.00     0.028 H 
ATOM     41  H17 non d ame     -35.359   5.550  29.805  0.00  0.00     0.028 H 
ATOM     42  H18 non d ame     -33.748   5.932  30.458  0.00  0.00     0.028 H 
ENDBRANCH  33  39
ENDBRANCH   7  33
ENDBRANCH   4   7
ENDBRANCH   1   3
BRANCH   1  43
ATOM     43  C15 non d ame     -33.857  12.806  27.581  0.00  0.00     0.240 C 
ATOM     44  O5  non d ame     -33.889  12.384  26.471  0.00  0.00    -0.271 OA
ATOM     45  N6  non d ame     -34.212  14.230  27.843  0.00  0.00    -0.355 N 
ATOM     46  H46 non d ame     -34.193  14.599  28.784  0.00  0.00     0.162 HD
BRANCH  45  47
ATOM     47  C20 non d ame     -34.592  15.110  26.717  0.00  0.00     0.013 C 
ATOM     48  H30 non d ame     -34.864  14.475  25.874  0.00  0.00     0.072 H 
BRANCH  47  49
ATOM     49  C21 non d ame     -33.417  15.986  26.348  0.00  0.00    -0.038 C 
ATOM     50  H31 non d ame     -32.808  15.390  25.667  0.00  0.00     0.036 H 
ATOM     51  H32 non d ame     -33.847  16.929  26.010  0.00  0.00     0.036 H 
BRANCH  49  52
ATOM     52  C22 non d ame     -32.518  16.325  27.557  0.00  0.00     0.018 C 
ATOM     53  H33 non d ame     -32.871  15.695  28.372  0.00  0.00     0.048 H 
ATOM     54  H34 non d ame     -31.493  16.229  27.198  0.00  0.00     0.048 H 
BRANCH  52  55
ATOM     55  C23 non d ame     -32.662  17.790  28.053  0.00  0.00     0.259 C 
ATOM     56  O7  non d ame     -32.187  18.125  29.091  0.00  0.00    -0.265 OA
BRANCH  55  57
ATOM     57  O8  non d ame     -33.382  18.727  27.261  0.00  0.00    -0.317 OA
BRANCH  57  58
ATOM     58  C29 non d ame     -34.333  19.503  27.995  0.00  0.00     0.052 C 
ATOM     59  H47 non d ame     -34.773  18.820  28.721  0.00  0.00     0.082 H 
ATOM     60  H48 non d ame     -33.794  20.387  28.334  0.00  0.00     0.082 H 
BRANCH  58  61
ATOM     61  C35 non d ame     -35.444  19.956  27.010  0.00  0.00    -0.034 A 
ATOM     62  C30 non d ame     -35.385  19.575  25.673  0.00  0.00    -0.075 A 
ATOM     63  C31 non d ame     -36.383  19.982  24.787  0.00  0.00    -0.082 A 
ATOM     64  H49 non d ame     -34.558  18.960  25.318  0.00  0.00     0.084 H 
ATOM     65  C32 non d ame     -37.440  20.773  25.243  0.00  0.00    -0.083 A 
ATOM     66  H50 non d ame     -36.335  19.681  23.740  0.00  0.00     0.083 H 
ATOM     67  C33 non d ame     -37.492  21.153  26.577  0.00  0.00    -0.082 A 
ATOM     68  H51 non d ame     -38.225  21.095  24.558  0.00  0.00     0.083 H 
ATOM     69  C34 non d ame     -36.498  20.748  27.466  0.00  0.00    -0.075 A 
ATOM     70  H52 non d ame     -38.318  21.773  26.930  0.00  0.00     0.083 H 
ATOM     71  H53 non d ame     -36.547  21.049  28.513  0.00  0.00     0.084 H 
ENDBRANCH  58  61
ENDBRANCH  57  58
ENDBRANCH  55  57
ENDBRANCH  52  55
ENDBRANCH  49  52
ENDBRANCH  47  49
BRANCH  47  72
ATOM     72  C24 non d ame     -35.775  15.987  27.124  0.00  0.00    -0.039 C 
ATOM     73  H35 non d ame     -35.986  15.725  28.161  0.00  0.00     0.036 H 
ATOM     74  H36 non d ame     -35.482  17.005  26.868  0.00  0.00     0.036 H 
BRANCH  72  75
ATOM     75  C25 non d ame     -37.087  15.644  26.273  0.00  0.00    -0.001 C 
ATOM     76  C26 non d ame     -36.795  15.883  24.673  0.00  0.00    -0.035 C 
ATOM     77  C27 non d ame     -37.772  16.671  24.163  0.00  0.00     0.085 C 
ATOM     78  H38 non d ame     -35.893  16.479  24.542  0.00  0.00     0.036 H 
ATOM     79  H39 non d ame     -36.913  14.946  24.126  0.00  0.00     0.036 H 
ATOM     80  N5  non d ame     -38.521  17.259  25.336  0.00  0.00    -0.049 N 
ATOM     81  H40 non d ame     -37.254  17.471  23.634  0.00  0.00     0.075 H 
ATOM     82  H41 non d ame     -38.435  15.999  23.620  0.00  0.00     0.075 H 
ATOM     83  C28 non d ame     -38.080  16.391  26.624  0.00  0.00     0.193 C 
ATOM     84  H42 non d ame     -38.178  18.201  25.450  0.00  0.00     0.280 HD
ATOM     85  H43 non d ame     -39.502  17.096  25.158  0.00  0.00     0.280 HD
ATOM     86  H44 non d ame     -38.753  15.642  27.042  0.00  0.00     0.129 H 
ATOM     87  H37 non d ame     -37.527  14.689  26.559  0.00  0.00     0.046 H 
BRANCH  83  88
ATOM     88  O6  non d ame     -37.746  17.256  27.710  0.00  0.00    -0.369 OA
ATOM     89  H45 non d ame     -38.512  17.366  28.279  0.00  0.00     0.212 HD
ENDBRANCH  83  88
ENDBRANCH  72  75
ENDBRANCH  47  72
ENDBRANCH  45  47
ENDBRANCH   1  43
BRANCH   1  90
ATOM     90  C16 non d ame     -31.941  11.767  28.834  0.00  0.00    -0.035 C 
ATOM     91  H21 non d ame     -31.738  10.787  29.263  0.00  0.00     0.037 H 
ATOM     92  H22 non d ame     -31.583  12.010  27.833  0.00  0.00     0.037 H 
BRANCH  90  93
ATOM     93  C17 non d ame     -31.294  12.812  29.799  0.00  0.00    -0.059 C 
ATOM     94  H23 non d ame     -32.096  13.437  30.193  0.00  0.00     0.038 H 
BRANCH  93  95
ATOM     95  C18 non d ame     -30.581  12.133  31.011  0.00  0.00    -0.073 C 
ATOM     96  H24 non d ame     -29.713  12.725  31.301  0.00  0.00     0.028 H 
ATOM     97  H25 non d ame     -31.272  12.068  31.851  0.00  0.00     0.028 H 
ATOM     98  H26 non d ame     -30.258  11.131  30.728  0.00  0.00     0.028 H 
ENDBRANCH  93  95
BRANCH  93  99
ATOM     99  C19 non d ame     -30.330  13.731  29.044  0.00  0.00    -0.073 C 
ATOM    100  H27 non d ame     -29.325  13.618  29.454  0.00  0.00     0.028 H 
ATOM    101  H28 non d ame     -30.322  13.462  27.988  0.00  0.00     0.028 H 
ATOM    102  H29 non d ame     -30.653  14.766  29.154  0.00  0.00     0.028 H 
ENDBRANCH  93  99
ENDBRANCH  90  93
ENDBRANCH   1  90
TORSDOF 26
ENDMDL
MODEL 17
REMARK VINA RESULT:      -6.3      3.236      6.398
REMARK  26 active torsions:
REMARK  status: ('A' for Active; 'I' for Inactive)
REMARK    1  A    between atoms: C2_2  and  C3_3 
REMARK    2  A    between atoms: C4_6  and  C5_7 
REMARK       I    between atoms: C5_7  and  N2_9 
REMARK    3  A    between atoms: N2_9  and  C6_10 
REMARK    4  A    between atoms: C6_10  and  C7_11 
REMARK    5  A    between atoms: C6_10  and  C8_13 
REMARK       I    between atoms: C7_11  and  N3_14 
REMARK    6  A    between atoms: N3_14  and  C9_15 
REMARK    7  A    between atoms: C9_15  and  C10_16 
REMARK    8  A    between atoms: C9_15  and  C11_18 
REMARK       I    between atoms: C10_16  and  N4_21 
REMARK    9  A    between atoms: C11_18  and  C12_19 
REMARK   10  A    between atoms: C11_18  and  C13_20 
REMARK   11  A    between atoms: N4_21  and  C14_22 
REMARK   12  A    between atoms: C14_22  and  C15_23 
REMARK   13  A    between atoms: C14_22  and  C16_25 
REMARK       I    between atoms: C15_23  and  N6_40 
REMARK   14  A    between atoms: C16_25  and  C17_26 
REMARK   15  A    between atoms: C17_26  and  C18_27 
REMARK   16  A    between atoms: C17_26  and  C19_28 
REMARK   17  A    between atoms: C20_29  and  C21_30 
REMARK   18  A    between atoms: C20_29  and  C24_33 
REMARK   19  A    between atoms: C20_29  and  N6_40 
REMARK   20  A    between atoms: C21_30  and  C22_31 
REMARK   21  A    between atoms: C22_31  and  C23_32 
REMARK   22  A    between atoms: C23_32  and  O8_43 
REMARK   23  A    between atoms: C24_33  and  C25_34 
REMARK   24  A    between atoms: C28_38  and  O6_39 
REMARK   25  A    between atoms: C29_42  and  O8_43 
REMARK   26  A    between atoms: C29_42  and  C35_49 
ROOT
ATOM      1  C14 non d ame     -32.190   9.344  24.822  0.00  0.00     0.089 C 
ATOM      2  H20 non d ame     -31.624   8.528  25.273  0.00  0.00     0.087 H 
ENDROOT
BRANCH   1   3
ATOM      3  N4  non d ame     -33.596   8.967  24.845  0.00  0.00    -0.346 N 
ATOM      4  C10 non d ame     -33.994   7.519  24.978  0.00  0.00     0.241 C 
ATOM      5  O4  non d ame     -33.166   6.674  25.063  0.00  0.00    -0.271 OA
ATOM      6  H19 non d ame     -34.285   9.701  24.769  0.00  0.00     0.163 HD
BRANCH   4   7
ATOM      7  C9  non d ame     -35.454   7.148  25.005  0.00  0.00     0.092 C 
ATOM      8  H11 non d ame     -35.621   6.303  24.336  0.00  0.00     0.088 H 
BRANCH   7   9
ATOM      9  N3  non d ame     -35.823   6.712  26.355  0.00  0.00    -0.346 N 
ATOM     10  C7  non d ame     -35.983   5.307  26.640  0.00  0.00     0.240 C 
ATOM     11  O3  non d ame     -35.818   4.514  25.795  0.00  0.00    -0.271 OA
ATOM     12  H10 non d ame     -35.969   7.385  27.093  0.00  0.00     0.163 HD
BRANCH  10  13
ATOM     13  C6  non d ame     -36.378   4.849  28.078  0.00  0.00     0.086 C 
ATOM     14  H6  non d ame     -35.588   4.287  28.574  0.00  0.00     0.086 H 
BRANCH  13  15
ATOM     15  N2  non d ame     -36.629   6.024  28.895  0.00  0.00    -0.343 N 
ATOM     16  C5  non d ame     -35.739   6.326  30.018  0.00  0.00     0.273 C 
ATOM     17  O2  non d ame     -34.825   5.615  30.258  0.00  0.00    -0.266 OA
ATOM     18  H5  non d ame     -37.414   6.625  28.685  0.00  0.00     0.163 HD
BRANCH  16  19
ATOM     19  C4  non d ame     -35.992   7.566  30.890  0.00  0.00     0.154 A 
ATOM     20  C1  non d ame     -35.013   8.469  31.412  0.00  0.00    -0.017 A 
ATOM     21  C2  non d ame     -35.755   9.427  32.139  0.00  0.00     0.077 A 
ATOM     22  H1  non d ame     -33.931   8.436  31.284  0.00  0.00     0.091 H 
ATOM     23  O1  non d ame     -37.011   9.104  32.038  0.00  0.00    -0.218 OA
ATOM     24  N1  non d ame     -37.174   8.020  31.313  0.00  0.00    -0.123 NA
BRANCH  21  25
ATOM     25  C3  non d ame     -35.189  10.619  32.899  0.00  0.00    -0.029 C 
ATOM     26  H2  non d ame     -34.203  10.367  33.288  0.00  0.00     0.036 H 
ATOM     27  H3  non d ame     -35.105  11.473  32.226  0.00  0.00     0.036 H 
ATOM     28  H4  non d ame     -35.852  10.873  33.725  0.00  0.00     0.036 H 
ENDBRANCH  21  25
ENDBRANCH  16  19
ENDBRANCH  13  15
BRANCH  13  29
ATOM     29  C8  non d ame     -37.616   3.992  28.012  0.00  0.00    -0.049 C 
ATOM     30  H7  non d ame     -38.348   4.459  27.354  0.00  0.00     0.030 H 
ATOM     31  H8  non d ame     -37.357   3.007  27.624  0.00  0.00     0.030 H 
ATOM     32  H9  non d ame     -38.041   3.889  29.012  0.00  0.00     0.030 H 
ENDBRANCH  13  29
ENDBRANCH  10  13
ENDBRANCH   7   9
BRANCH   7  33
ATOM     33  C11 non d ame     -36.311   8.386  24.610  0.00  0.00    -0.033 C 
ATOM     34  H12 non d ame     -35.625   9.186  24.331  0.00  0.00     0.042 H 
BRANCH  33  35
ATOM     35  C12 non d ame     -37.209   8.084  23.370  0.00  0.00    -0.071 C 
ATOM     36  H13 non d ame     -36.720   7.338  22.741  0.00  0.00     0.028 H 
ATOM     37  H14 non d ame     -38.173   7.703  23.703  0.00  0.00     0.028 H 
ATOM     38  H15 non d ame     -37.357   8.999  22.797  0.00  0.00     0.028 H 
ENDBRANCH  33  35
BRANCH  33  39
ATOM     39  C13 non d ame     -37.165   8.883  25.820  0.00  0.00    -0.071 C 
ATOM     40  H16 non d ame     -36.805   8.414  26.736  0.00  0.00     0.028 H 
ATOM     41  H17 non d ame     -37.077   9.967  25.907  0.00  0.00     0.028 H 
ATOM     42  H18 non d ame     -38.210   8.616  25.662  0.00  0.00     0.028 H 
ENDBRANCH  33  39
ENDBRANCH   7  33
ENDBRANCH   4   7
ENDBRANCH   1   3
BRANCH   1  43
ATOM     43  C15 non d ame     -32.022  10.677  25.607  0.00  0.00     0.240 C 
ATOM     44  O5  non d ame     -31.441  10.684  26.643  0.00  0.00    -0.271 OA
ATOM     45  N6  non d ame     -32.578  11.948  25.060  0.00  0.00    -0.355 N 
ATOM     46  H46 non d ame     -33.070  11.956  24.178  0.00  0.00     0.162 HD
BRANCH  45  47
ATOM     47  C20 non d ame     -32.409  13.207  25.818  0.00  0.00     0.013 C 
ATOM     48  H30 non d ame     -32.417  12.962  26.880  0.00  0.00     0.072 H 
BRANCH  47  49
ATOM     49  C21 non d ame     -33.551  14.143  25.493  0.00  0.00    -0.038 C 
ATOM     50  H31 non d ame     -33.085  15.079  25.183  0.00  0.00     0.036 H 
ATOM     51  H32 non d ame     -34.191  13.597  24.801  0.00  0.00     0.036 H 
BRANCH  49  52
ATOM     52  C22 non d ame     -34.422  14.475  26.725  0.00  0.00     0.018 C 
ATOM     53  H33 non d ame     -35.418  14.680  26.335  0.00  0.00     0.048 H 
ATOM     54  H34 non d ame     -34.267  13.654  27.425  0.00  0.00     0.048 H 
BRANCH  52  55
ATOM     55  C23 non d ame     -33.982  15.764  27.473  0.00  0.00     0.259 C 
ATOM     56  O7  non d ame     -34.082  16.828  26.952  0.00  0.00    -0.265 OA
BRANCH  55  57
ATOM     57  O8  non d ame     -33.443  15.659  28.786  0.00  0.00    -0.317 OA
BRANCH  57  58
ATOM     58  C29 non d ame     -32.053  15.323  28.820  0.00  0.00     0.052 C 
ATOM     59  H47 non d ame     -31.741  15.252  27.779  0.00  0.00     0.082 H 
ATOM     60  H48 non d ame     -31.589  16.055  29.480  0.00  0.00     0.082 H 
BRANCH  58  61
ATOM     61  C35 non d ame     -31.916  13.920  29.471  0.00  0.00    -0.034 A 
ATOM     62  C30 non d ame     -33.054  13.174  29.762  0.00  0.00    -0.075 A 
ATOM     63  C31 non d ame     -32.931  11.914  30.347  0.00  0.00    -0.082 A 
ATOM     64  H49 non d ame     -34.041  13.575  29.533  0.00  0.00     0.084 H 
ATOM     65  C32 non d ame     -31.665  11.402  30.643  0.00  0.00    -0.083 A 
ATOM     66  H50 non d ame     -33.825  11.330  30.572  0.00  0.00     0.083 H 
ATOM     67  C33 non d ame     -30.533  12.153  30.354  0.00  0.00    -0.082 A 
ATOM     68  H51 non d ame     -31.560  10.417  31.100  0.00  0.00     0.083 H 
ATOM     69  C34 non d ame     -30.651  13.411  29.768  0.00  0.00    -0.075 A 
ATOM     70  H52 non d ame     -29.546  11.751  30.588  0.00  0.00     0.083 H 
ATOM     71  H53 non d ame     -29.758  13.994  29.542  0.00  0.00     0.084 H 
ENDBRANCH  58  61
ENDBRANCH  57  58
ENDBRANCH  55  57
ENDBRANCH  52  55
ENDBRANCH  49  52
ENDBRANCH  47  49
BRANCH  47  72
ATOM     72  C24 non d ame     -31.084  13.865  25.436  0.00  0.00    -0.039 C 
ATOM     73  H35 non d ame     -31.033  14.779  26.030  0.00  0.00     0.036 H 
ATOM     74  H36 non d ame     -30.328  13.090  25.562  0.00  0.00     0.036 H 
BRANCH  72  75
ATOM     75  C25 non d ame     -31.062  14.301  23.895  0.00  0.00    -0.001 C 
ATOM     76  C26 non d ame     -30.026  13.339  23.056  0.00  0.00    -0.035 C 
ATOM     77  C27 non d ame     -29.174  14.123  22.352  0.00  0.00     0.085 C 
ATOM     78  H38 non d ame     -29.371  12.805  23.744  0.00  0.00     0.036 H 
ATOM     79  H39 non d ame     -30.565  12.792  22.282  0.00  0.00     0.036 H 
ATOM     80  N5  non d ame     -29.323  15.528  22.888  0.00  0.00    -0.049 N 
ATOM     81  H40 non d ame     -28.176  13.755  22.590  0.00  0.00     0.075 H 
ATOM     82  H41 non d ame     -29.534  14.095  21.325  0.00  0.00     0.075 H 
ATOM     83  C28 non d ame     -30.680  15.528  23.762  0.00  0.00     0.193 C 
ATOM     84  H42 non d ame     -28.541  15.681  23.508  0.00  0.00     0.280 HD
ATOM     85  H43 non d ame     -29.456  16.126  22.085  0.00  0.00     0.280 HD
ATOM     86  H44 non d ame     -31.592  15.977  23.367  0.00  0.00     0.129 H 
ATOM     87  H37 non d ame     -32.064  14.425  23.486  0.00  0.00     0.046 H 
BRANCH  83  88
ATOM     88  O6  non d ame     -30.455  16.162  25.022  0.00  0.00    -0.369 OA
ATOM     89  H45 non d ame     -30.193  15.503  25.670  0.00  0.00     0.212 HD
ENDBRANCH  83  88
ENDBRANCH  72  75
ENDBRANCH  47  72
ENDBRANCH  45  47
ENDBRANCH   1  43
BRANCH   1  90
ATOM     90  C16 non d ame     -31.751   9.541  23.380  0.00  0.00    -0.035 C 
ATOM     91  H21 non d ame     -32.579   9.176  22.775  0.00  0.00     0.037 H 
ATOM     92  H22 non d ame     -31.444  10.584  23.312  0.00  0.00     0.037 H 
BRANCH  90  93
ATOM     93  C17 non d ame     -30.505   8.686  22.983  0.00  0.00    -0.059 C 
ATOM     94  H23 non d ame     -29.930   8.500  23.890  0.00  0.00     0.038 H 
BRANCH  93  95
ATOM     95  C18 non d ame     -30.907   7.302  22.382  0.00  0.00    -0.073 C 
ATOM     96  H24 non d ame     -31.026   7.394  21.302  0.00  0.00     0.028 H 
ATOM     97  H25 non d ame     -30.128   6.571  22.599  0.00  0.00     0.028 H 
ATOM     98  H26 non d ame     -31.848   6.973  22.824  0.00  0.00     0.028 H 
ENDBRANCH  93  95
BRANCH  93  99
ATOM     99  C19 non d ame     -29.599   9.456  22.019  0.00  0.00    -0.073 C 
ATOM    100  H27 non d ame     -29.798  10.525  22.109  0.00  0.00     0.028 H 
ATOM    101  H28 non d ame     -28.555   9.259  22.264  0.00  0.00     0.028 H 
ATOM    102  H29 non d ame     -29.799   9.134  20.997  0.00  0.00     0.028 H 
ENDBRANCH  93  99
ENDBRANCH  90  93
ENDBRANCH   1  90
TORSDOF 26
ENDMDL
MODEL 18
REMARK VINA RESULT:      -6.3      3.279      9.712
REMARK  26 active torsions:
REMARK  status: ('A' for Active; 'I' for Inactive)
REMARK    1  A    between atoms: C2_2  and  C3_3 
REMARK    2  A    between atoms: C4_6  and  C5_7 
REMARK       I    between atoms: C5_7  and  N2_9 
REMARK    3  A    between atoms: N2_9  and  C6_10 
REMARK    4  A    between atoms: C6_10  and  C7_11 
REMARK    5  A    between atoms: C6_10  and  C8_13 
REMARK       I    between atoms: C7_11  and  N3_14 
REMARK    6  A    between atoms: N3_14  and  C9_15 
REMARK    7  A    between atoms: C9_15  and  C10_16 
REMARK    8  A    between atoms: C9_15  and  C11_18 
REMARK       I    between atoms: C10_16  and  N4_21 
REMARK    9  A    between atoms: C11_18  and  C12_19 
REMARK   10  A    between atoms: C11_18  and  C13_20 
REMARK   11  A    between atoms: N4_21  and  C14_22 
REMARK   12  A    between atoms: C14_22  and  C15_23 
REMARK   13  A    between atoms: C14_22  and  C16_25 
REMARK       I    between atoms: C15_23  and  N6_40 
REMARK   14  A    between atoms: C16_25  and  C17_26 
REMARK   15  A    between atoms: C17_26  and  C18_27 
REMARK   16  A    between atoms: C17_26  and  C19_28 
REMARK   17  A    between atoms: C20_29  and  C21_30 
REMARK   18  A    between atoms: C20_29  and  C24_33 
REMARK   19  A    between atoms: C20_29  and  N6_40 
REMARK   20  A    between atoms: C21_30  and  C22_31 
REMARK   21  A    between atoms: C22_31  and  C23_32 
REMARK   22  A    between atoms: C23_32  and  O8_43 
REMARK   23  A    between atoms: C24_33  and  C25_34 
REMARK   24  A    between atoms: C28_38  and  O6_39 
REMARK   25  A    between atoms: C29_42  and  O8_43 
REMARK   26  A    between atoms: C29_42  and  C35_49 
ROOT
ATOM      1  C14 non d ame     -33.330  10.003  30.194  0.00  0.00     0.089 C 
ATOM      2  H20 non d ame     -32.477   9.360  29.975  0.00  0.00     0.087 H 
ENDROOT
BRANCH   1   3
ATOM      3  N4  non d ame     -33.902  10.419  28.922  0.00  0.00    -0.346 N 
ATOM      4  C10 non d ame     -33.414   9.811  27.632  0.00  0.00     0.241 C 
ATOM      5  O4  non d ame     -32.558   8.989  27.641  0.00  0.00    -0.271 OA
ATOM      6  H19 non d ame     -34.627  11.122  28.935  0.00  0.00     0.163 HD
BRANCH   4   7
ATOM      7  C9  non d ame     -34.020  10.251  26.325  0.00  0.00     0.092 C 
ATOM      8  H11 non d ame     -35.014  10.658  26.509  0.00  0.00     0.088 H 
BRANCH   7   9
ATOM      9  N3  non d ame     -33.211  11.328  25.748  0.00  0.00    -0.346 N 
ATOM     10  C7  non d ame     -33.383  12.684  26.208  0.00  0.00     0.240 C 
ATOM     11  O3  non d ame     -34.169  12.926  27.040  0.00  0.00    -0.271 OA
ATOM     12  H10 non d ame     -32.530  11.135  25.028  0.00  0.00     0.163 HD
BRANCH  10  13
ATOM     13  C6  non d ame     -32.521  13.827  25.588  0.00  0.00     0.086 C 
ATOM     14  H6  non d ame     -32.572  13.851  24.500  0.00  0.00     0.086 H 
BRANCH  13  15
ATOM     15  N2  non d ame     -33.027  15.107  26.056  0.00  0.00    -0.343 N 
ATOM     16  C5  non d ame     -32.410  16.346  25.578  0.00  0.00     0.273 C 
ATOM     17  O2  non d ame     -31.504  16.303  24.820  0.00  0.00    -0.266 OA
ATOM     18  H5  non d ame     -33.799  15.134  26.706  0.00  0.00     0.163 HD
BRANCH  16  19
ATOM     19  C4  non d ame     -32.936  17.705  26.065  0.00  0.00     0.154 A 
ATOM     20  C1  non d ame     -34.300  18.129  26.136  0.00  0.00    -0.017 A 
ATOM     21  C2  non d ame     -34.245  19.446  26.645  0.00  0.00     0.077 A 
ATOM     22  H1  non d ame     -35.193  17.568  25.862  0.00  0.00     0.091 H 
ATOM     23  O1  non d ame     -32.992  19.734  26.840  0.00  0.00    -0.218 OA
ATOM     24  N1  non d ame     -32.208  18.734  26.509  0.00  0.00    -0.123 NA
BRANCH  21  25
ATOM     25  C3  non d ame     -35.434  20.358  26.915  0.00  0.00    -0.029 C 
ATOM     26  H2  non d ame     -35.594  21.011  26.058  0.00  0.00     0.036 H 
ATOM     27  H3  non d ame     -36.326  19.754  27.081  0.00  0.00     0.036 H 
ATOM     28  H4  non d ame     -35.235  20.963  27.800  0.00  0.00     0.036 H 
ENDBRANCH  21  25
ENDBRANCH  16  19
ENDBRANCH  13  15
BRANCH  13  29
ATOM     29  C8  non d ame     -31.082  13.657  26.004  0.00  0.00    -0.049 C 
ATOM     30  H7  non d ame     -30.925  14.129  26.973  0.00  0.00     0.030 H 
ATOM     31  H8  non d ame     -30.847  12.595  26.075  0.00  0.00     0.030 H 
ATOM     32  H9  non d ame     -30.432  14.124  25.263  0.00  0.00     0.030 H 
ENDBRANCH  13  29
ENDBRANCH  10  13
ENDBRANCH   7   9
BRANCH   7  33
ATOM     33  C11 non d ame     -34.054   9.046  25.338  0.00  0.00    -0.033 C 
ATOM     34  H12 non d ame     -33.312   8.323  25.677  0.00  0.00     0.042 H 
BRANCH  33  35
ATOM     35  C12 non d ame     -35.443   8.337  25.356  0.00  0.00    -0.071 C 
ATOM     36  H13 non d ame     -35.744   8.151  26.387  0.00  0.00     0.028 H 
ATOM     37  H14 non d ame     -36.183   8.973  24.871  0.00  0.00     0.028 H 
ATOM     38  H15 non d ame     -35.374   7.388  24.823  0.00  0.00     0.028 H 
ENDBRANCH  33  35
BRANCH  33  39
ATOM     39  C13 non d ame     -33.665   9.496  23.894  0.00  0.00    -0.071 C 
ATOM     40  H16 non d ame     -34.383   9.090  23.181  0.00  0.00     0.028 H 
ATOM     41  H17 non d ame     -33.671  10.585  23.837  0.00  0.00     0.028 H 
ATOM     42  H18 non d ame     -32.667   9.127  23.654  0.00  0.00     0.028 H 
ENDBRANCH  33  39
ENDBRANCH   7  33
ENDBRANCH   4   7
ENDBRANCH   1   3
BRANCH   1  43
ATOM     43  C15 non d ame     -34.428   9.263  31.012  0.00  0.00     0.240 C 
ATOM     44  O5  non d ame     -34.762   9.687  32.071  0.00  0.00    -0.271 OA
ATOM     45  N6  non d ame     -35.071   8.033  30.470  0.00  0.00    -0.355 N 
ATOM     46  H46 non d ame     -34.799   7.666  29.569  0.00  0.00     0.162 HD
BRANCH  45  47
ATOM     47  C20 non d ame     -36.114   7.342  31.260  0.00  0.00     0.013 C 
ATOM     48  H30 non d ame     -35.989   7.632  32.303  0.00  0.00     0.072 H 
BRANCH  47  49
ATOM     49  C21 non d ame     -35.944   5.847  31.114  0.00  0.00    -0.038 C 
ATOM     50  H31 non d ame     -35.705   5.479  32.112  0.00  0.00     0.036 H 
ATOM     51  H32 non d ame     -36.842   5.498  30.604  0.00  0.00     0.036 H 
BRANCH  49  52
ATOM     52  C22 non d ame     -34.751   5.465  30.210  0.00  0.00     0.018 C 
ATOM     53  H33 non d ame     -34.169   6.377  30.089  0.00  0.00     0.048 H 
ATOM     54  H34 non d ame     -34.301   4.587  30.673  0.00  0.00     0.048 H 
BRANCH  52  55
ATOM     55  C23 non d ame     -35.167   5.028  28.778  0.00  0.00     0.259 C 
ATOM     56  O7  non d ame     -36.284   5.180  28.401  0.00  0.00    -0.265 OA
BRANCH  55  57
ATOM     57  O8  non d ame     -34.199   4.430  27.923  0.00  0.00    -0.317 OA
BRANCH  57  58
ATOM     58  C29 non d ame     -33.050   5.247  27.683  0.00  0.00     0.052 C 
ATOM     59  H47 non d ame     -33.273   6.211  28.139  0.00  0.00     0.082 H 
ATOM     60  H48 non d ame     -32.196   4.665  28.027  0.00  0.00     0.082 H 
BRANCH  58  61
ATOM     61  C35 non d ame     -32.919   5.448  26.149  0.00  0.00    -0.034 A 
ATOM     62  C30 non d ame     -31.840   6.159  25.630  0.00  0.00    -0.075 A 
ATOM     63  C31 non d ame     -31.723   6.340  24.253  0.00  0.00    -0.082 A 
ATOM     64  H49 non d ame     -31.089   6.574  26.301  0.00  0.00     0.084 H 
ATOM     65  C32 non d ame     -32.688   5.809  23.393  0.00  0.00    -0.083 A 
ATOM     66  H50 non d ame     -30.875   6.896  23.848  0.00  0.00     0.083 H 
ATOM     67  C33 non d ame     -33.764   5.104  23.917  0.00  0.00    -0.082 A 
ATOM     68  H51 non d ame     -32.603   5.945  22.315  0.00  0.00     0.083 H 
ATOM     69  C34 non d ame     -33.885   4.920  25.292  0.00  0.00    -0.075 A 
ATOM     70  H52 non d ame     -34.518   4.693  23.244  0.00  0.00     0.083 H 
ATOM     71  H53 non d ame     -34.732   4.363  25.696  0.00  0.00     0.084 H 
ENDBRANCH  58  61
ENDBRANCH  57  58
ENDBRANCH  55  57
ENDBRANCH  52  55
ENDBRANCH  49  52
ENDBRANCH  47  49
BRANCH  47  72
ATOM     72  C24 non d ame     -37.497   7.751  30.757  0.00  0.00    -0.039 C 
ATOM     73  H35 non d ame     -38.012   6.816  30.535  0.00  0.00     0.036 H 
ATOM     74  H36 non d ame     -37.894   8.424  31.517  0.00  0.00     0.036 H 
BRANCH  72  75
ATOM     75  C25 non d ame     -37.410   8.580  29.389  0.00  0.00    -0.001 C 
ATOM     76  C26 non d ame     -37.873  10.136  29.647  0.00  0.00    -0.035 C 
ATOM     77  C27 non d ame     -38.815  10.469  28.732  0.00  0.00     0.085 C 
ATOM     78  H38 non d ame     -38.402  10.216  30.597  0.00  0.00     0.036 H 
ATOM     79  H39 non d ame     -37.050  10.814  29.423  0.00  0.00     0.036 H 
ATOM     80  N5  non d ame     -39.273   9.184  28.083  0.00  0.00    -0.049 N 
ATOM     81  H40 non d ame     -39.641  10.892  29.305  0.00  0.00     0.075 H 
ATOM     82  H41 non d ame     -38.299  11.077  27.991  0.00  0.00     0.075 H 
ATOM     83  C28 non d ame     -38.176   8.069  28.484  0.00  0.00     0.193 C 
ATOM     84  H42 non d ame     -40.151   8.941  28.517  0.00  0.00     0.280 HD
ATOM     85  H43 non d ame     -39.227   9.337  27.086  0.00  0.00     0.280 HD
ATOM     86  H44 non d ame     -37.432   7.739  27.758  0.00  0.00     0.129 H 
ATOM     87  H37 non d ame     -36.464   8.424  28.872  0.00  0.00     0.046 H 
BRANCH  83  88
ATOM     88  O6  non d ame     -38.825   6.879  28.936  0.00  0.00    -0.369 OA
ATOM     89  H45 non d ame     -38.701   6.786  29.884  0.00  0.00     0.212 HD
ENDBRANCH  83  88
ENDBRANCH  72  75
ENDBRANCH  47  72
ENDBRANCH  45  47
ENDBRANCH   1  43
BRANCH   1  90
ATOM     90  C16 non d ame     -32.865  11.233  30.957  0.00  0.00    -0.035 C 
ATOM     91  H21 non d ame     -33.738  11.881  31.017  0.00  0.00     0.037 H 
ATOM     92  H22 non d ame     -32.406  10.850  31.868  0.00  0.00     0.037 H 
BRANCH  90  93
ATOM     93  C17 non d ame     -31.760  12.050  30.214  0.00  0.00    -0.059 C 
ATOM     94  H23 non d ame     -31.564  11.552  29.264  0.00  0.00     0.038 H 
BRANCH  93  95
ATOM     95  C18 non d ame     -32.216  13.510  29.902  0.00  0.00    -0.073 C 
ATOM     96  H24 non d ame     -31.340  14.136  29.730  0.00  0.00     0.028 H 
ATOM     97  H25 non d ame     -32.843  13.512  29.010  0.00  0.00     0.028 H 
ATOM     98  H26 non d ame     -32.783  13.903  30.746  0.00  0.00     0.028 H 
ENDBRANCH  93  95
BRANCH  93  99
ATOM     99  C19 non d ame     -30.451  12.046  31.008  0.00  0.00    -0.073 C 
ATOM    100  H27 non d ame     -30.666  12.225  32.063  0.00  0.00     0.028 H 
ATOM    101  H28 non d ame     -29.960  11.079  30.897  0.00  0.00     0.028 H 
ATOM    102  H29 non d ame     -29.796  12.832  30.633  0.00  0.00     0.028 H 
ENDBRANCH  93  99
ENDBRANCH  90  93
ENDBRANCH   1  90
TORSDOF 26
ENDMDL
MODEL 19
REMARK VINA RESULT:      -6.3      2.427      7.850
REMARK  26 active torsions:
REMARK  status: ('A' for Active; 'I' for Inactive)
REMARK    1  A    between atoms: C2_2  and  C3_3 
REMARK    2  A    between atoms: C4_6  and  C5_7 
REMARK       I    between atoms: C5_7  and  N2_9 
REMARK    3  A    between atoms: N2_9  and  C6_10 
REMARK    4  A    between atoms: C6_10  and  C7_11 
REMARK    5  A    between atoms: C6_10  and  C8_13 
REMARK       I    between atoms: C7_11  and  N3_14 
REMARK    6  A    between atoms: N3_14  and  C9_15 
REMARK    7  A    between atoms: C9_15  and  C10_16 
REMARK    8  A    between atoms: C9_15  and  C11_18 
REMARK       I    between atoms: C10_16  and  N4_21 
REMARK    9  A    between atoms: C11_18  and  C12_19 
REMARK   10  A    between atoms: C11_18  and  C13_20 
REMARK   11  A    between atoms: N4_21  and  C14_22 
REMARK   12  A    between atoms: C14_22  and  C15_23 
REMARK   13  A    between atoms: C14_22  and  C16_25 
REMARK       I    between atoms: C15_23  and  N6_40 
REMARK   14  A    between atoms: C16_25  and  C17_26 
REMARK   15  A    between atoms: C17_26  and  C18_27 
REMARK   16  A    between atoms: C17_26  and  C19_28 
REMARK   17  A    between atoms: C20_29  and  C21_30 
REMARK   18  A    between atoms: C20_29  and  C24_33 
REMARK   19  A    between atoms: C20_29  and  N6_40 
REMARK   20  A    between atoms: C21_30  and  C22_31 
REMARK   21  A    between atoms: C22_31  and  C23_32 
REMARK   22  A    between atoms: C23_32  and  O8_43 
REMARK   23  A    between atoms: C24_33  and  C25_34 
REMARK   24  A    between atoms: C28_38  and  O6_39 
REMARK   25  A    between atoms: C29_42  and  O8_43 
REMARK   26  A    between atoms: C29_42  and  C35_49 
ROOT
ATOM      1  C14 non d ame     -31.828  13.623  26.446  0.00  0.00     0.089 C 
ATOM      2  H20 non d ame     -31.476  14.171  25.572  0.00  0.00     0.087 H 
ENDROOT
BRANCH   1   3
ATOM      3  N4  non d ame     -33.224  13.979  26.653  0.00  0.00    -0.346 N 
ATOM      4  C10 non d ame     -33.938  14.867  25.666  0.00  0.00     0.241 C 
ATOM      5  O4  non d ame     -33.368  15.286  24.713  0.00  0.00    -0.271 OA
ATOM      6  H19 non d ame     -33.691  13.615  27.471  0.00  0.00     0.163 HD
BRANCH   4   7
ATOM      7  C9  non d ame     -35.385  15.222  25.893  0.00  0.00     0.092 C 
ATOM      8  H11 non d ame     -35.864  15.405  24.932  0.00  0.00     0.088 H 
BRANCH   7   9
ATOM      9  N3  non d ame     -36.075  14.087  26.513  0.00  0.00    -0.346 N 
ATOM     10  C7  non d ame     -37.036  13.326  25.754  0.00  0.00     0.240 C 
ATOM     11  O3  non d ame     -37.266  13.613  24.643  0.00  0.00    -0.271 OA
ATOM     12  H10 non d ame     -35.887  13.829  27.471  0.00  0.00     0.163 HD
BRANCH  10  13
ATOM     13  C6  non d ame     -37.770  12.121  26.420  0.00  0.00     0.086 C 
ATOM     14  H6  non d ame     -37.870  11.267  25.751  0.00  0.00     0.086 H 
BRANCH  13  15
ATOM     15  N2  non d ame     -36.992  11.667  27.561  0.00  0.00    -0.343 N 
ATOM     16  C5  non d ame     -36.557  10.270  27.627  0.00  0.00     0.273 C 
ATOM     17  O2  non d ame     -36.840   9.519  26.760  0.00  0.00    -0.266 OA
ATOM     18  H5  non d ame     -36.757  12.315  28.299  0.00  0.00     0.163 HD
BRANCH  16  19
ATOM     19  C4  non d ame     -35.733   9.777  28.828  0.00  0.00     0.154 A 
ATOM     20  C1  non d ame     -36.040   8.681  29.695  0.00  0.00    -0.017 A 
ATOM     21  C2  non d ame     -34.978   8.647  30.625  0.00  0.00     0.077 A 
ATOM     22  H1  non d ame     -36.901   8.014  29.655  0.00  0.00     0.091 H 
ATOM     23  O1  non d ame     -34.162   9.612  30.319  0.00  0.00    -0.218 OA
ATOM     24  N1  non d ame     -34.582  10.286  29.273  0.00  0.00    -0.123 NA
BRANCH  21  25
ATOM     25  C3  non d ame     -34.818   7.660  31.774  0.00  0.00    -0.029 C 
ATOM     26  H2  non d ame     -34.139   6.861  31.475  0.00  0.00     0.036 H 
ATOM     27  H3  non d ame     -34.408   8.176  32.642  0.00  0.00     0.036 H 
ATOM     28  H4  non d ame     -35.788   7.236  32.029  0.00  0.00     0.036 H 
ENDBRANCH  21  25
ENDBRANCH  16  19
ENDBRANCH  13  15
BRANCH  13  29
ATOM     29  C8  non d ame     -39.143  12.552  26.869  0.00  0.00    -0.049 C 
ATOM     30  H7  non d ame     -39.063  13.109  27.801  0.00  0.00     0.030 H 
ATOM     31  H8  non d ame     -39.593  13.186  26.105  0.00  0.00     0.030 H 
ATOM     32  H9  non d ame     -39.767  11.670  27.024  0.00  0.00     0.030 H 
ENDBRANCH  13  29
ENDBRANCH  10  13
ENDBRANCH   7   9
BRANCH   7  33
ATOM     33  C11 non d ame     -35.473  16.457  26.837  0.00  0.00    -0.033 C 
ATOM     34  H12 non d ame     -34.888  16.232  27.729  0.00  0.00     0.042 H 
BRANCH  33  35
ATOM     35  C12 non d ame     -34.847  17.724  26.174  0.00  0.00    -0.071 C 
ATOM     36  H13 non d ame     -35.626  18.468  26.006  0.00  0.00     0.028 H 
ATOM     37  H14 non d ame     -34.084  18.139  26.830  0.00  0.00     0.028 H 
ATOM     38  H15 non d ame     -34.398  17.450  25.219  0.00  0.00     0.028 H 
ENDBRANCH  33  35
BRANCH  33  39
ATOM     39  C13 non d ame     -36.948  16.719  27.279  0.00  0.00    -0.071 C 
ATOM     40  H16 non d ame     -37.200  16.060  28.110  0.00  0.00     0.028 H 
ATOM     41  H17 non d ame     -37.055  17.758  27.593  0.00  0.00     0.028 H 
ATOM     42  H18 non d ame     -37.619  16.522  26.443  0.00  0.00     0.028 H 
ENDBRANCH  33  39
ENDBRANCH   7  33
ENDBRANCH   4   7
ENDBRANCH   1   3
BRANCH   1  43
ATOM     43  C15 non d ame     -31.734  12.082  26.250  0.00  0.00     0.240 C 
ATOM     44  O5  non d ame     -31.093  11.428  27.007  0.00  0.00    -0.271 OA
ATOM     45  N6  non d ame     -32.452  11.421  25.123  0.00  0.00    -0.355 N 
ATOM     46  H46 non d ame     -33.005  11.966  24.476  0.00  0.00     0.162 HD
BRANCH  45  47
ATOM     47  C20 non d ame     -32.353   9.955  24.951  0.00  0.00     0.013 C 
ATOM     48  H30 non d ame     -31.356   9.648  25.266  0.00  0.00     0.072 H 
BRANCH  47  49
ATOM     49  C21 non d ame     -32.567   9.607  23.496  0.00  0.00    -0.038 C 
ATOM     50  H31 non d ame     -33.364   8.863  23.485  0.00  0.00     0.036 H 
ATOM     51  H32 non d ame     -32.703  10.559  22.982  0.00  0.00     0.036 H 
BRANCH  49  52
ATOM     52  C22 non d ame     -31.333   8.937  22.852  0.00  0.00     0.018 C 
ATOM     53  H33 non d ame     -30.905   8.302  23.627  0.00  0.00     0.048 H 
ATOM     54  H34 non d ame     -31.690   8.496  21.921  0.00  0.00     0.048 H 
BRANCH  52  55
ATOM     55  C23 non d ame     -30.215   9.938  22.451  0.00  0.00     0.259 C 
ATOM     56  O7  non d ame     -29.197   9.547  21.978  0.00  0.00    -0.265 OA
BRANCH  55  57
ATOM     57  O8  non d ame     -30.415  11.330  22.670  0.00  0.00    -0.317 OA
BRANCH  57  58
ATOM     58  C29 non d ame     -29.447  12.165  22.027  0.00  0.00     0.052 C 
ATOM     59  H47 non d ame     -28.529  12.050  22.604  0.00  0.00     0.082 H 
ATOM     60  H48 non d ame     -29.468  11.886  20.975  0.00  0.00     0.082 H 
BRANCH  58  61
ATOM     61  C35 non d ame     -29.925  13.636  22.155  0.00  0.00    -0.034 A 
ATOM     62  C30 non d ame     -29.969  14.248  23.404  0.00  0.00    -0.075 A 
ATOM     63  C31 non d ame     -30.399  15.570  23.518  0.00  0.00    -0.082 A 
ATOM     64  H49 non d ame     -29.667  13.694  24.292  0.00  0.00     0.084 H 
ATOM     65  C32 non d ame     -30.788  16.279  22.378  0.00  0.00    -0.083 A 
ATOM     66  H50 non d ame     -30.430  16.048  24.498  0.00  0.00     0.083 H 
ATOM     67  C33 non d ame     -30.746  15.662  21.135  0.00  0.00    -0.082 A 
ATOM     68  H51 non d ame     -31.124  17.313  22.459  0.00  0.00     0.083 H 
ATOM     69  C34 non d ame     -30.315  14.342  21.016  0.00  0.00    -0.075 A 
ATOM     70  H52 non d ame     -31.053  16.217  20.248  0.00  0.00     0.083 H 
ATOM     71  H53 non d ame     -30.284  13.866  20.036  0.00  0.00     0.084 H 
ENDBRANCH  58  61
ENDBRANCH  57  58
ENDBRANCH  55  57
ENDBRANCH  52  55
ENDBRANCH  49  52
ENDBRANCH  47  49
BRANCH  47  72
ATOM     72  C24 non d ame     -33.415   9.263  25.804  0.00  0.00    -0.039 C 
ATOM     73  H35 non d ame     -33.422   9.802  26.752  0.00  0.00     0.036 H 
ATOM     74  H36 non d ame     -34.312   9.237  25.185  0.00  0.00     0.036 H 
BRANCH  72  75
ATOM     75  C25 non d ame     -33.019   7.745  26.126  0.00  0.00    -0.001 C 
ATOM     76  C26 non d ame     -34.338   6.776  25.968  0.00  0.00    -0.035 C 
ATOM     77  C27 non d ame     -34.468   6.028  27.090  0.00  0.00     0.085 C 
ATOM     78  H38 non d ame     -35.246   7.379  25.957  0.00  0.00     0.036 H 
ATOM     79  H39 non d ame     -34.167   6.035  25.187  0.00  0.00     0.036 H 
ATOM     80  N5  non d ame     -33.553   6.631  28.130  0.00  0.00    -0.049 N 
ATOM     81  H40 non d ame     -35.502   6.158  27.408  0.00  0.00     0.075 H 
ATOM     82  H41 non d ame     -34.100   5.038  26.825  0.00  0.00     0.075 H 
ATOM     83  C28 non d ame     -32.565   7.626  27.329  0.00  0.00     0.193 C 
ATOM     84  H42 non d ame     -34.138   7.182  28.741  0.00  0.00     0.280 HD
ATOM     85  H43 non d ame     -33.007   5.868  28.505  0.00  0.00     0.280 HD
ATOM     86  H44 non d ame     -31.534   7.335  27.124  0.00  0.00     0.129 H 
ATOM     87  H37 non d ame     -32.112   7.436  25.607  0.00  0.00     0.046 H 
BRANCH  83  88
ATOM     88  O6  non d ame     -32.482   8.884  28.001  0.00  0.00    -0.369 OA
ATOM     89  H45 non d ame     -33.016   9.532  27.535  0.00  0.00     0.212 HD
ENDBRANCH  83  88
ENDBRANCH  72  75
ENDBRANCH  47  72
ENDBRANCH  45  47
ENDBRANCH   1  43
BRANCH   1  90
ATOM     90  C16 non d ame     -31.024  14.032  27.669  0.00  0.00    -0.035 C 
ATOM     91  H21 non d ame     -30.330  13.212  27.846  0.00  0.00     0.037 H 
ATOM     92  H22 non d ame     -30.645  15.030  27.445  0.00  0.00     0.037 H 
BRANCH  90  93
ATOM     93  C17 non d ame     -31.884  14.168  28.967  0.00  0.00    -0.059 C 
ATOM     94  H23 non d ame     -32.922  13.972  28.697  0.00  0.00     0.038 H 
BRANCH  93  95
ATOM     95  C18 non d ame     -31.472  13.129  30.058  0.00  0.00    -0.073 C 
ATOM     96  H24 non d ame     -32.275  13.031  30.789  0.00  0.00     0.028 H 
ATOM     97  H25 non d ame     -31.289  12.163  29.589  0.00  0.00     0.028 H 
ATOM     98  H26 non d ame     -30.565  13.468  30.559  0.00  0.00     0.028 H 
ENDBRANCH  93  95
BRANCH  93  99
ATOM     99  C19 non d ame     -31.818  15.594  29.520  0.00  0.00    -0.073 C 
ATOM    100  H27 non d ame     -32.543  15.704  30.328  0.00  0.00     0.028 H 
ATOM    101  H28 non d ame     -30.817  15.791  29.903  0.00  0.00     0.028 H 
ATOM    102  H29 non d ame     -32.049  16.303  28.725  0.00  0.00     0.028 H 
ENDBRANCH  93  99
ENDBRANCH  90  93
ENDBRANCH   1  90
TORSDOF 26
ENDMDL
MODEL 20
REMARK VINA RESULT:      -6.3      3.348      7.806
REMARK  26 active torsions:
REMARK  status: ('A' for Active; 'I' for Inactive)
REMARK    1  A    between atoms: C2_2  and  C3_3 
REMARK    2  A    between atoms: C4_6  and  C5_7 
REMARK       I    between atoms: C5_7  and  N2_9 
REMARK    3  A    between atoms: N2_9  and  C6_10 
REMARK    4  A    between atoms: C6_10  and  C7_11 
REMARK    5  A    between atoms: C6_10  and  C8_13 
REMARK       I    between atoms: C7_11  and  N3_14 
REMARK    6  A    between atoms: N3_14  and  C9_15 
REMARK    7  A    between atoms: C9_15  and  C10_16 
REMARK    8  A    between atoms: C9_15  and  C11_18 
REMARK       I    between atoms: C10_16  and  N4_21 
REMARK    9  A    between atoms: C11_18  and  C12_19 
REMARK   10  A    between atoms: C11_18  and  C13_20 
REMARK   11  A    between atoms: N4_21  and  C14_22 
REMARK   12  A    between atoms: C14_22  and  C15_23 
REMARK   13  A    between atoms: C14_22  and  C16_25 
REMARK       I    between atoms: C15_23  and  N6_40 
REMARK   14  A    between atoms: C16_25  and  C17_26 
REMARK   15  A    between atoms: C17_26  and  C18_27 
REMARK   16  A    between atoms: C17_26  and  C19_28 
REMARK   17  A    between atoms: C20_29  and  C21_30 
REMARK   18  A    between atoms: C20_29  and  C24_33 
REMARK   19  A    between atoms: C20_29  and  N6_40 
REMARK   20  A    between atoms: C21_30  and  C22_31 
REMARK   21  A    between atoms: C22_31  and  C23_32 
REMARK   22  A    between atoms: C23_32  and  O8_43 
REMARK   23  A    between atoms: C24_33  and  C25_34 
REMARK   24  A    between atoms: C28_38  and  O6_39 
REMARK   25  A    between atoms: C29_42  and  O8_43 
REMARK   26  A    between atoms: C29_42  and  C35_49 
ROOT
ATOM      1  C14 non d ame     -35.107   8.540  29.818  0.00  0.00     0.089 C 
ATOM      2  H20 non d ame     -35.998   9.162  29.727  0.00  0.00     0.087 H 
ENDROOT
BRANCH   1   3
ATOM      3  N4  non d ame     -35.384   7.276  29.152  0.00  0.00    -0.346 N 
ATOM      4  C10 non d ame     -36.655   7.094  28.363  0.00  0.00     0.241 C 
ATOM      5  O4  non d ame     -37.442   7.978  28.278  0.00  0.00    -0.271 OA
ATOM      6  H19 non d ame     -34.703   6.535  29.239  0.00  0.00     0.163 HD
BRANCH   4   7
ATOM      7  C9  non d ame     -36.924   5.780  27.676  0.00  0.00     0.092 C 
ATOM      8  H11 non d ame     -37.639   5.938  26.869  0.00  0.00     0.088 H 
BRANCH   7   9
ATOM      9  N3  non d ame     -35.686   5.284  27.068  0.00  0.00    -0.346 N 
ATOM     10  C7  non d ame     -35.664   4.916  25.674  0.00  0.00     0.240 C 
ATOM     11  O3  non d ame     -36.634   5.013  25.026  0.00  0.00    -0.271 OA
ATOM     12  H10 non d ame     -34.842   5.193  27.615  0.00  0.00     0.163 HD
BRANCH  10  13
ATOM     13  C6  non d ame     -34.344   4.385  25.033  0.00  0.00     0.086 C 
ATOM     14  H6  non d ame     -34.506   3.913  24.065  0.00  0.00     0.086 H 
BRANCH  13  15
ATOM     15  N2  non d ame     -33.447   5.505  24.804  0.00  0.00    -0.343 N 
ATOM     16  C5  non d ame     -33.001   5.806  23.443  0.00  0.00     0.273 C 
ATOM     17  O2  non d ame     -33.366   5.138  22.538  0.00  0.00    -0.266 OA
ATOM     18  H5  non d ame     -33.137   6.069  25.584  0.00  0.00     0.163 HD
BRANCH  16  19
ATOM     19  C4  non d ame     -32.052   6.988  23.186  0.00  0.00     0.154 A 
ATOM     20  C1  non d ame     -30.747   6.938  22.604  0.00  0.00    -0.017 A 
ATOM     21  C2  non d ame     -30.303   8.279  22.592  0.00  0.00     0.077 A 
ATOM     22  H1  non d ame     -30.205   6.063  22.244  0.00  0.00     0.091 H 
ATOM     23  O1  non d ame     -31.250   9.006  23.108  0.00  0.00    -0.218 OA
ATOM     24  N1  non d ame     -32.282   8.274  23.463  0.00  0.00    -0.123 NA
BRANCH  21  25
ATOM     25  C3  non d ame     -28.964   8.781  22.070  0.00  0.00    -0.029 C 
ATOM     26  H2  non d ame     -28.791   9.796  22.427  0.00  0.00     0.036 H 
ATOM     27  H3  non d ame     -28.166   8.131  22.430  0.00  0.00     0.036 H 
ATOM     28  H4  non d ame     -28.972   8.776  20.981  0.00  0.00     0.036 H 
ENDBRANCH  21  25
ENDBRANCH  16  19
ENDBRANCH  13  15
BRANCH  13  29
ATOM     29  C8  non d ame     -33.699   3.387  25.960  0.00  0.00    -0.049 C 
ATOM     30  H7  non d ame     -32.632   3.593  26.031  0.00  0.00     0.030 H 
ATOM     31  H8  non d ame     -34.150   3.465  26.949  0.00  0.00     0.030 H 
ATOM     32  H9  non d ame     -33.849   2.379  25.570  0.00  0.00     0.030 H 
ENDBRANCH  13  29
ENDBRANCH  10  13
ENDBRANCH   7   9
BRANCH   7  33
ATOM     33  C11 non d ame     -37.437   4.745  28.720  0.00  0.00    -0.033 C 
ATOM     34  H12 non d ame     -36.566   4.249  29.146  0.00  0.00     0.042 H 
BRANCH  33  35
ATOM     35  C12 non d ame     -38.196   5.447  29.889  0.00  0.00    -0.071 C 
ATOM     36  H13 non d ame     -38.912   4.752  30.327  0.00  0.00     0.028 H 
ATOM     37  H14 non d ame     -37.482   5.760  30.650  0.00  0.00     0.028 H 
ATOM     38  H15 non d ame     -38.726   6.320  29.507  0.00  0.00     0.028 H 
ENDBRANCH  33  35
BRANCH  33  39
ATOM     39  C13 non d ame     -38.328   3.658  28.039  0.00  0.00    -0.071 C 
ATOM     40  H16 non d ame     -38.042   3.558  26.991  0.00  0.00     0.028 H 
ATOM     41  H17 non d ame     -38.189   2.703  28.546  0.00  0.00     0.028 H 
ATOM     42  H18 non d ame     -39.375   3.953  28.103  0.00  0.00     0.028 H 
ENDBRANCH  33  39
ENDBRANCH   7  33
ENDBRANCH   4   7
ENDBRANCH   1   3
BRANCH   1  43
ATOM     43  C15 non d ame     -33.865   9.192  29.145  0.00  0.00     0.240 C 
ATOM     44  O5  non d ame     -33.270   8.601  28.303  0.00  0.00    -0.271 OA
ATOM     45  N6  non d ame     -33.424  10.560  29.542  0.00  0.00    -0.355 N 
ATOM     46  H46 non d ame     -33.925  11.074  30.253  0.00  0.00     0.162 HD
BRANCH  45  47
ATOM     47  C20 non d ame     -32.242  11.166  28.891  0.00  0.00     0.013 C 
ATOM     48  H30 non d ame     -31.509  10.377  28.727  0.00  0.00     0.072 H 
BRANCH  47  49
ATOM     49  C21 non d ame     -31.663  12.229  29.797  0.00  0.00    -0.038 C 
ATOM     50  H31 non d ame     -31.648  11.790  30.795  0.00  0.00     0.036 H 
ATOM     51  H32 non d ame     -30.731  12.542  29.325  0.00  0.00     0.036 H 
BRANCH  49  52
ATOM     52  C22 non d ame     -32.552  13.489  29.887  0.00  0.00     0.018 C 
ATOM     53  H33 non d ame     -33.329  13.356  29.136  0.00  0.00     0.048 H 
ATOM     54  H34 non d ame     -32.820  13.586  30.939  0.00  0.00     0.048 H 
BRANCH  52  55
ATOM     55  C23 non d ame     -31.814  14.804  29.510  0.00  0.00     0.259 C 
ATOM     56  O7  non d ame     -30.628  14.828  29.431  0.00  0.00    -0.265 OA
BRANCH  55  57
ATOM     57  O8  non d ame     -32.570  15.985  29.274  0.00  0.00    -0.317 OA
BRANCH  57  58
ATOM     58  C29 non d ame     -33.332  15.958  28.063  0.00  0.00     0.052 C 
ATOM     59  H47 non d ame     -32.738  15.381  27.355  0.00  0.00     0.082 H 
ATOM     60  H48 non d ame     -34.326  15.616  28.347  0.00  0.00     0.082 H 
BRANCH  58  61
ATOM     61  C35 non d ame     -33.446  17.414  27.537  0.00  0.00    -0.034 A 
ATOM     62  C30 non d ame     -32.563  18.389  27.991  0.00  0.00    -0.075 A 
ATOM     63  C31 non d ame     -32.666  19.697  27.519  0.00  0.00    -0.082 A 
ATOM     64  H49 non d ame     -31.792  18.130  28.717  0.00  0.00     0.084 H 
ATOM     65  C32 non d ame     -33.657  20.028  26.591  0.00  0.00    -0.083 A 
ATOM     66  H50 non d ame     -31.972  20.459  27.875  0.00  0.00     0.083 H 
ATOM     67  C33 non d ame     -34.537  19.052  26.145  0.00  0.00    -0.082 A 
ATOM     68  H51 non d ame     -33.744  21.049  26.216  0.00  0.00     0.083 H 
ATOM     69  C34 non d ame     -34.437  17.744  26.612  0.00  0.00    -0.075 A 
ATOM     70  H52 non d ame     -35.312  19.315  25.422  0.00  0.00     0.083 H 
ATOM     71  H53 non d ame     -35.131  16.983  26.255  0.00  0.00     0.084 H 
ENDBRANCH  58  61
ENDBRANCH  57  58
ENDBRANCH  55  57
ENDBRANCH  52  55
ENDBRANCH  49  52
ENDBRANCH  47  49
BRANCH  47  72
ATOM     72  C24 non d ame     -32.652  11.796  27.561  0.00  0.00    -0.039 C 
ATOM     73  H35 non d ame     -33.278  11.051  27.069  0.00  0.00     0.036 H 
ATOM     74  H36 non d ame     -33.065  12.771  27.817  0.00  0.00     0.036 H 
BRANCH  72  75
ATOM     75  C25 non d ame     -31.387  12.052  26.613  0.00  0.00    -0.001 C 
ATOM     76  C26 non d ame     -31.488  13.548  25.938  0.00  0.00    -0.035 C 
ATOM     77  C27 non d ame     -31.327  13.434  24.597  0.00  0.00     0.085 C 
ATOM     78  H38 non d ame     -32.500  13.938  26.041  0.00  0.00     0.036 H 
ATOM     79  H39 non d ame     -30.636  14.155  26.246  0.00  0.00     0.036 H 
ATOM     80  N5  non d ame     -31.454  11.967  24.261  0.00  0.00    -0.049 N 
ATOM     81  H40 non d ame     -32.166  13.974  24.158  0.00  0.00     0.075 H 
ATOM     82  H41 non d ame     -30.306  13.757  24.398  0.00  0.00     0.075 H 
ATOM     83  C28 non d ame     -31.331  11.178  25.664  0.00  0.00     0.193 C 
ATOM     84  H42 non d ame     -32.388  11.837  23.900  0.00  0.00     0.280 HD
ATOM     85  H43 non d ame     -30.654  11.736  23.689  0.00  0.00     0.280 HD
ATOM     86  H44 non d ame     -30.408  10.659  25.927  0.00  0.00     0.129 H 
ATOM     87  H37 non d ame     -30.447  11.788  27.097  0.00  0.00     0.046 H 
BRANCH  83  88
ATOM     88  O6  non d ame     -32.365  10.198  25.770  0.00  0.00    -0.369 OA
ATOM     89  H45 non d ame     -32.375   9.840  26.662  0.00  0.00     0.212 HD
ENDBRANCH  83  88
ENDBRANCH  72  75
ENDBRANCH  47  72
ENDBRANCH  45  47
ENDBRANCH   1  43
BRANCH   1  90
ATOM     90  C16 non d ame     -34.812   8.275  31.286  0.00  0.00    -0.035 C 
ATOM     91  H21 non d ame     -34.981   7.208  31.426  0.00  0.00     0.037 H 
ATOM     92  H22 non d ame     -33.823   8.698  31.462  0.00  0.00     0.037 H 
BRANCH  90  93
ATOM     93  C17 non d ame     -35.786   9.007  32.263  0.00  0.00    -0.059 C 
ATOM     94  H23 non d ame     -35.738   8.495  33.223  0.00  0.00     0.038 H 
BRANCH  93  95
ATOM     95  C18 non d ame     -35.378  10.496  32.496  0.00  0.00    -0.073 C 
ATOM     96  H24 non d ame     -36.271  11.094  32.682  0.00  0.00     0.028 H 
ATOM     97  H25 non d ame     -34.714  10.560  33.358  0.00  0.00     0.028 H 
ATOM     98  H26 non d ame     -34.865  10.876  31.613  0.00  0.00     0.028 H 
ENDBRANCH  93  95
BRANCH  93  99
ATOM     99  C19 non d ame     -37.232   8.910  31.767  0.00  0.00    -0.073 C 
ATOM    100  H27 non d ame     -37.280   8.225  30.920  0.00  0.00     0.028 H 
ATOM    101  H28 non d ame     -37.868   8.538  32.571  0.00  0.00     0.028 H 
ATOM    102  H29 non d ame     -37.577   9.897  31.458  0.00  0.00     0.028 H 
ENDBRANCH  93  99
ENDBRANCH  90  93
ENDBRANCH   1  90
TORSDOF 26
ENDMDL
