MODEL 1
REMARK VINA RESULT:      -7.4      0.000      0.000
REMARK  26 active torsions:
REMARK  status: ('A' for Active; 'I' for Inactive)
REMARK    1  A    between atoms: C2_2  and  C3_3 
REMARK    2  A    between atoms: C4_6  and  C5_7 
REMARK       I    between atoms: C5_7  and  N2_9 
REMARK    3  A    between atoms: N2_9  and  C6_10 
REMARK    4  A    between atoms: C6_10  and  C7_11 
REMARK    5  A    between atoms: C6_10  and  C8_13 
REMARK       I    between atoms: C7_11  and  N3_14 
REMARK    6  A    between atoms: N3_14  and  C9_15 
REMARK    7  A    between atoms: C9_15  and  C10_16 
REMARK    8  A    between atoms: C9_15  and  C11_18 
REMARK       I    between atoms: C10_16  and  N4_21 
REMARK    9  A    between atoms: C11_18  and  C12_19 
REMARK   10  A    between atoms: C11_18  and  C13_20 
REMARK   11  A    between atoms: N4_21  and  C14_22 
REMARK   12  A    between atoms: C14_22  and  C15_23 
REMARK   13  A    between atoms: C14_22  and  C16_25 
REMARK       I    between atoms: C15_23  and  N6_40 
REMARK   14  A    between atoms: C16_25  and  C17_26 
REMARK   15  A    between atoms: C17_26  and  C18_27 
REMARK   16  A    between atoms: C17_26  and  C19_28 
REMARK   17  A    between atoms: C20_29  and  C21_30 
REMARK   18  A    between atoms: C20_29  and  C24_33 
REMARK   19  A    between atoms: C20_29  and  N6_40 
REMARK   20  A    between atoms: C21_30  and  C22_31 
REMARK   21  A    between atoms: C22_31  and  C23_32 
REMARK   22  A    between atoms: C23_32  and  O8_43 
REMARK   23  A    between atoms: C24_33  and  C25_34 
REMARK   24  A    between atoms: C28_38  and  O6_39 
REMARK   25  A    between atoms: C29_42  and  O8_43 
REMARK   26  A    between atoms: C29_42  and  C35_49 
ROOT
ATOM      1  C14 non d ame     -35.690  13.938  26.196  0.00  0.00     0.089 C 
ATOM      2  H20 non d ame     -36.143  14.437  27.052  0.00  0.00     0.087 H 
ENDROOT
BRANCH   1   3
ATOM      3  N4  non d ame     -34.606  14.783  25.718  0.00  0.00    -0.346 N 
ATOM      4  C10 non d ame     -33.941  15.767  26.646  0.00  0.00     0.241 C 
ATOM      5  O4  non d ame     -34.297  15.863  27.775  0.00  0.00    -0.271 OA
ATOM      6  H19 non d ame     -34.320  14.688  24.754  0.00  0.00     0.163 HD
BRANCH   4   7
ATOM      7  C9  non d ame     -32.818  16.631  26.136  0.00  0.00     0.092 C 
ATOM      8  H11 non d ame     -32.018  16.652  26.875  0.00  0.00     0.088 H 
BRANCH   7   9
ATOM      9  N3  non d ame     -32.264  16.042  24.913  0.00  0.00    -0.346 N 
ATOM     10  C7  non d ame     -31.263  15.009  25.001  0.00  0.00     0.240 C 
ATOM     11  O3  non d ame     -30.890  14.639  26.047  0.00  0.00    -0.271 OA
ATOM     12  H10 non d ame     -32.575  16.352  24.004  0.00  0.00     0.163 HD
BRANCH  10  13
ATOM     13  C6  non d ame     -30.675  14.388  23.696  0.00  0.00     0.086 C 
ATOM     14  H6  non d ame     -29.596  14.518  23.616  0.00  0.00     0.086 H 
BRANCH  13  15
ATOM     15  N2  non d ame     -30.922  12.956  23.702  0.00  0.00    -0.343 N 
ATOM     16  C5  non d ame     -30.191  12.093  22.771  0.00  0.00     0.273 C 
ATOM     17  O2  non d ame     -29.408  12.561  22.019  0.00  0.00    -0.266 OA
ATOM     18  H5  non d ame     -31.594  12.564  24.346  0.00  0.00     0.163 HD
BRANCH  16  19
ATOM     19  C4  non d ame     -30.442  10.577  22.768  0.00  0.00     0.154 A 
ATOM     20  C1  non d ame     -29.459   9.538  22.746  0.00  0.00    -0.017 A 
ATOM     21  C2  non d ame     -30.200   8.336  22.752  0.00  0.00     0.077 A 
ATOM     22  H1  non d ame     -28.373   9.640  22.728  0.00  0.00     0.091 H 
ATOM     23  O1  non d ame     -31.460   8.658  22.777  0.00  0.00    -0.218 OA
ATOM     24  N1  non d ame     -31.626   9.960  22.786  0.00  0.00    -0.123 NA
BRANCH  21  25
ATOM     25  C3  non d ame     -29.630   6.924  22.735  0.00  0.00    -0.029 C 
ATOM     26  H2  non d ame     -28.727   6.890  23.344  0.00  0.00     0.036 H 
ATOM     27  H3  non d ame     -30.366   6.230  23.141  0.00  0.00     0.036 H 
ATOM     28  H4  non d ame     -29.389   6.641  21.711  0.00  0.00     0.036 H 
ENDBRANCH  21  25
ENDBRANCH  16  19
ENDBRANCH  13  15
BRANCH  13  29
ATOM     29  C8  non d ame     -31.331  15.020  22.495  0.00  0.00    -0.049 C 
ATOM     30  H7  non d ame     -31.414  14.285  21.696  0.00  0.00     0.030 H 
ATOM     31  H8  non d ame     -32.325  15.373  22.768  0.00  0.00     0.030 H 
ATOM     32  H9  non d ame     -30.727  15.862  22.153  0.00  0.00     0.030 H 
ENDBRANCH  13  29
ENDBRANCH  10  13
ENDBRANCH   7   9
BRANCH   7  33
ATOM     33  C11 non d ame     -33.362  18.056  25.822  0.00  0.00    -0.033 C 
ATOM     34  H12 non d ame     -32.965  18.353  24.852  0.00  0.00     0.042 H 
BRANCH  33  35
ATOM     35  C12 non d ame     -34.919  18.057  25.711  0.00  0.00    -0.071 C 
ATOM     36  H13 non d ame     -35.338  17.398  26.472  0.00  0.00     0.028 H 
ATOM     37  H14 non d ame     -35.294  19.069  25.861  0.00  0.00     0.028 H 
ATOM     38  H15 non d ame     -35.214  17.702  24.724  0.00  0.00     0.028 H 
ENDBRANCH  33  35
BRANCH  33  39
ATOM     39  C13 non d ame     -32.869  19.090  26.883  0.00  0.00    -0.071 C 
ATOM     40  H16 non d ame     -31.976  19.594  26.512  0.00  0.00     0.028 H 
ATOM     41  H17 non d ame     -33.652  19.826  27.067  0.00  0.00     0.028 H 
ATOM     42  H18 non d ame     -32.634  18.573  27.813  0.00  0.00     0.028 H 
ENDBRANCH  33  39
ENDBRANCH   7  33
ENDBRANCH   4   7
ENDBRANCH   1   3
BRANCH   1  43
ATOM     43  C15 non d ame     -35.103  12.546  26.571  0.00  0.00     0.240 C 
ATOM     44  O5  non d ame     -34.698  11.826  25.717  0.00  0.00    -0.271 OA
ATOM     45  N6  non d ame     -35.038  12.115  27.997  0.00  0.00    -0.355 N 
ATOM     46  H46 non d ame     -35.375  12.721  28.732  0.00  0.00     0.162 HD
BRANCH  45  47
ATOM     47  C20 non d ame     -34.477  10.790  28.337  0.00  0.00     0.013 C 
ATOM     48  H30 non d ame     -34.418  10.206  27.418  0.00  0.00     0.072 H 
BRANCH  47  49
ATOM     49  C21 non d ame     -35.386  10.102  29.330  0.00  0.00    -0.038 C 
ATOM     50  H31 non d ame     -35.190  10.582  30.290  0.00  0.00     0.036 H 
ATOM     51  H32 non d ame     -36.384  10.143  28.894  0.00  0.00     0.036 H 
BRANCH  49  52
ATOM     52  C22 non d ame     -35.050   8.605  29.513  0.00  0.00     0.018 C 
ATOM     53  H33 non d ame     -35.910   8.061  29.124  0.00  0.00     0.048 H 
ATOM     54  H34 non d ame     -34.067   8.467  29.063  0.00  0.00     0.048 H 
BRANCH  52  55
ATOM     55  C23 non d ame     -34.906   8.173  30.999  0.00  0.00     0.259 C 
ATOM     56  O7  non d ame     -34.155   8.744  31.722  0.00  0.00    -0.265 OA
BRANCH  55  57
ATOM     57  O8  non d ame     -35.672   7.077  31.483  0.00  0.00    -0.317 OA
BRANCH  57  58
ATOM     58  C29 non d ame     -35.864   6.032  30.525  0.00  0.00     0.052 C 
ATOM     59  H47 non d ame     -36.697   5.437  30.900  0.00  0.00     0.082 H 
ATOM     60  H48 non d ame     -35.939   6.527  29.558  0.00  0.00     0.082 H 
BRANCH  58  61
ATOM     61  C35 non d ame     -34.589   5.145  30.524  0.00  0.00    -0.034 A 
ATOM     62  C30 non d ame     -33.947   4.852  29.324  0.00  0.00    -0.075 A 
ATOM     63  C31 non d ame     -32.803   4.055  29.322  0.00  0.00    -0.082 A 
ATOM     64  H49 non d ame     -34.340   5.245  28.387  0.00  0.00     0.084 H 
ATOM     65  C32 non d ame     -32.302   3.550  30.525  0.00  0.00    -0.083 A 
ATOM     66  H50 non d ame     -32.301   3.828  28.381  0.00  0.00     0.083 H 
ATOM     67  C33 non d ame     -32.949   3.842  31.718  0.00  0.00    -0.082 A 
ATOM     68  H51 non d ame     -31.407   2.926  30.532  0.00  0.00     0.083 H 
ATOM     69  C34 non d ame     -34.092   4.639  31.725  0.00  0.00    -0.075 A 
ATOM     70  H52 non d ame     -32.557   3.444  32.655  0.00  0.00     0.083 H 
ATOM     71  H53 non d ame     -34.593   4.866  32.666  0.00  0.00     0.084 H 
ENDBRANCH  58  61
ENDBRANCH  57  58
ENDBRANCH  55  57
ENDBRANCH  52  55
ENDBRANCH  49  52
ENDBRANCH  47  49
BRANCH  47  72
ATOM     72  C24 non d ame     -33.087  10.959  28.948  0.00  0.00    -0.039 C 
ATOM     73  H35 non d ame     -32.985  10.143  29.664  0.00  0.00     0.036 H 
ATOM     74  H36 non d ame     -32.405  11.029  28.101  0.00  0.00     0.036 H 
BRANCH  72  75
ATOM     75  C25 non d ame     -32.963  12.328  29.769  0.00  0.00    -0.001 C 
ATOM     76  C26 non d ame     -31.944  13.357  28.992  0.00  0.00    -0.035 C 
ATOM     77  C27 non d ame     -31.015  13.800  29.872  0.00  0.00     0.085 C 
ATOM     78  H38 non d ame     -31.355  12.814  28.253  0.00  0.00     0.036 H 
ATOM     79  H39 non d ame     -32.475  14.265  28.704  0.00  0.00     0.036 H 
ATOM     80  N5  non d ame     -31.109  12.917  31.094  0.00  0.00    -0.049 N 
ATOM     81  H40 non d ame     -30.052  13.636  29.388  0.00  0.00     0.075 H 
ATOM     82  H41 non d ame     -31.325  14.810  30.139  0.00  0.00     0.075 H 
ATOM     83  C28 non d ame     -32.506  12.120  30.958  0.00  0.00     0.193 C 
ATOM     84  H42 non d ame     -30.352  12.254  31.026  0.00  0.00     0.280 HD
ATOM     85  H43 non d ame     -31.168  13.537  31.889  0.00  0.00     0.280 HD
ATOM     86  H44 non d ame     -33.370  12.411  31.557  0.00  0.00     0.129 H 
ATOM     87  H37 non d ame     -33.936  12.722  30.064  0.00  0.00     0.046 H 
BRANCH  83  88
ATOM     88  O6  non d ame     -32.308  10.730  31.224  0.00  0.00    -0.369 OA
ATOM     89  H45 non d ame     -31.665  10.374  30.605  0.00  0.00     0.212 HD
ENDBRANCH  83  88
ENDBRANCH  72  75
ENDBRANCH  47  72
ENDBRANCH  45  47
ENDBRANCH   1  43
BRANCH   1  90
ATOM     90  C16 non d ame     -36.720  13.776  25.090  0.00  0.00    -0.035 C 
ATOM     91  H21 non d ame     -36.184  13.314  24.262  0.00  0.00     0.037 H 
ATOM     92  H22 non d ame     -37.561  13.260  25.552  0.00  0.00     0.037 H 
BRANCH  90  93
ATOM     93  C17 non d ame     -37.276  15.133  24.550  0.00  0.00    -0.059 C 
ATOM     94  H23 non d ame     -36.428  15.800  24.396  0.00  0.00     0.038 H 
BRANCH  93  95
ATOM     95  C18 non d ame     -38.006  14.967  23.179  0.00  0.00    -0.073 C 
ATOM     96  H24 non d ame     -39.021  14.608  23.348  0.00  0.00     0.028 H 
ATOM     97  H25 non d ame     -38.042  15.929  22.668  0.00  0.00     0.028 H 
ATOM     98  H26 non d ame     -37.464  14.249  22.563  0.00  0.00     0.028 H 
ENDBRANCH  93  95
BRANCH  93  99
ATOM     99  C19 non d ame     -38.196  15.795  25.579  0.00  0.00    -0.073 C 
ATOM    100  H27 non d ame     -37.852  15.549  26.585  0.00  0.00     0.028 H 
ATOM    101  H28 non d ame     -38.176  16.876  25.444  0.00  0.00     0.028 H 
ATOM    102  H29 non d ame     -39.214  15.430  25.445  0.00  0.00     0.028 H 
ENDBRANCH  93  99
ENDBRANCH  90  93
ENDBRANCH   1  90
TORSDOF 26
ENDMDL
MODEL 2
REMARK VINA RESULT:      -7.3      3.083      7.444
REMARK  26 active torsions:
REMARK  status: ('A' for Active; 'I' for Inactive)
REMARK    1  A    between atoms: C2_2  and  C3_3 
REMARK    2  A    between atoms: C4_6  and  C5_7 
REMARK       I    between atoms: C5_7  and  N2_9 
REMARK    3  A    between atoms: N2_9  and  C6_10 
REMARK    4  A    between atoms: C6_10  and  C7_11 
REMARK    5  A    between atoms: C6_10  and  C8_13 
REMARK       I    between atoms: C7_11  and  N3_14 
REMARK    6  A    between atoms: N3_14  and  C9_15 
REMARK    7  A    between atoms: C9_15  and  C10_16 
REMARK    8  A    between atoms: C9_15  and  C11_18 
REMARK       I    between atoms: C10_16  and  N4_21 
REMARK    9  A    between atoms: C11_18  and  C12_19 
REMARK   10  A    between atoms: C11_18  and  C13_20 
REMARK   11  A    between atoms: N4_21  and  C14_22 
REMARK   12  A    between atoms: C14_22  and  C15_23 
REMARK   13  A    between atoms: C14_22  and  C16_25 
REMARK       I    between atoms: C15_23  and  N6_40 
REMARK   14  A    between atoms: C16_25  and  C17_26 
REMARK   15  A    between atoms: C17_26  and  C18_27 
REMARK   16  A    between atoms: C17_26  and  C19_28 
REMARK   17  A    between atoms: C20_29  and  C21_30 
REMARK   18  A    between atoms: C20_29  and  C24_33 
REMARK   19  A    between atoms: C20_29  and  N6_40 
REMARK   20  A    between atoms: C21_30  and  C22_31 
REMARK   21  A    between atoms: C22_31  and  C23_32 
REMARK   22  A    between atoms: C23_32  and  O8_43 
REMARK   23  A    between atoms: C24_33  and  C25_34 
REMARK   24  A    between atoms: C28_38  and  O6_39 
REMARK   25  A    between atoms: C29_42  and  O8_43 
REMARK   26  A    between atoms: C29_42  and  C35_49 
ROOT
ATOM      1  C14 non d ame     -31.231  14.460  24.346  0.00  0.00     0.089 C 
ATOM      2  H20 non d ame     -30.208  14.081  24.363  0.00  0.00     0.087 H 
ENDROOT
BRANCH   1   3
ATOM      3  N4  non d ame     -32.123  13.320  24.493  0.00  0.00    -0.346 N 
ATOM      4  C10 non d ame     -31.784  12.206  25.450  0.00  0.00     0.241 C 
ATOM      5  O4  non d ame     -30.786  12.247  26.091  0.00  0.00    -0.271 OA
ATOM      6  H19 non d ame     -32.966  13.302  23.936  0.00  0.00     0.163 HD
BRANCH   4   7
ATOM      7  C9  non d ame     -32.722  11.035  25.593  0.00  0.00     0.092 C 
ATOM      8  H11 non d ame     -32.732  10.709  26.633  0.00  0.00     0.088 H 
BRANCH   7   9
ATOM      9  N3  non d ame     -34.086  11.457  25.258  0.00  0.00    -0.346 N 
ATOM     10  C7  non d ame     -34.854  12.226  26.205  0.00  0.00     0.240 C 
ATOM     11  O3  non d ame     -34.392  12.515  27.240  0.00  0.00    -0.271 OA
ATOM     12  H10 non d ame     -34.498  11.214  24.369  0.00  0.00     0.163 HD
BRANCH  10  13
ATOM     13  C6  non d ame     -36.306  12.670  25.844  0.00  0.00     0.086 C 
ATOM     14  H6  non d ame     -37.021  12.461  26.640  0.00  0.00     0.086 H 
BRANCH  13  15
ATOM     15  N2  non d ame     -36.323  14.108  25.637  0.00  0.00    -0.343 N 
ATOM     16  C5  non d ame     -37.417  14.905  26.195  0.00  0.00     0.273 C 
ATOM     17  O2  non d ame     -38.282  14.379  26.807  0.00  0.00    -0.266 OA
ATOM     18  H5  non d ame     -35.582  14.549  25.111  0.00  0.00     0.163 HD
BRANCH  16  19
ATOM     19  C4  non d ame     -37.447  16.427  25.985  0.00  0.00     0.154 A 
ATOM     20  C1  non d ame     -36.876  17.161  24.897  0.00  0.00    -0.017 A 
ATOM     21  C2  non d ame     -37.177  18.513  25.174  0.00  0.00     0.077 A 
ATOM     22  H1  non d ame     -36.328  16.771  24.039  0.00  0.00     0.091 H 
ATOM     23  O1  non d ame     -37.844  18.541  26.290  0.00  0.00    -0.218 OA
ATOM     24  N1  non d ame     -38.014  17.336  26.783  0.00  0.00    -0.123 NA
BRANCH  21  25
ATOM     25  C3  non d ame     -36.793  19.714  24.321  0.00  0.00    -0.029 C 
ATOM     26  H2  non d ame     -37.625  19.979  23.669  0.00  0.00     0.036 H 
ATOM     27  H3  non d ame     -36.558  20.560  24.969  0.00  0.00     0.036 H 
ATOM     28  H4  non d ame     -35.921  19.468  23.716  0.00  0.00     0.036 H 
ENDBRANCH  21  25
ENDBRANCH  16  19
ENDBRANCH  13  15
BRANCH  13  29
ATOM     29  C8  non d ame     -36.754  11.962  24.591  0.00  0.00    -0.049 C 
ATOM     30  H7  non d ame     -37.757  12.293  24.324  0.00  0.00     0.030 H 
ATOM     31  H8  non d ame     -36.068  12.195  23.777  0.00  0.00     0.030 H 
ATOM     32  H9  non d ame     -36.760  10.885  24.764  0.00  0.00     0.030 H 
ENDBRANCH  13  29
ENDBRANCH  10  13
ENDBRANCH   7   9
BRANCH   7  33
ATOM     33  C11 non d ame     -32.281   9.898  24.625  0.00  0.00    -0.033 C 
ATOM     34  H12 non d ame     -31.827   9.111  25.228  0.00  0.00     0.042 H 
BRANCH  33  35
ATOM     35  C12 non d ame     -33.507   9.274  23.887  0.00  0.00    -0.071 C 
ATOM     36  H13 non d ame     -34.066   8.644  24.579  0.00  0.00     0.028 H 
ATOM     37  H14 non d ame     -34.153  10.070  23.519  0.00  0.00     0.028 H 
ATOM     38  H15 non d ame     -33.158   8.671  23.049  0.00  0.00     0.028 H 
ENDBRANCH  33  35
BRANCH  33  39
ATOM     39  C13 non d ame     -31.209  10.410  23.611  0.00  0.00    -0.071 C 
ATOM     40  H16 non d ame     -30.567   9.582  23.312  0.00  0.00     0.028 H 
ATOM     41  H17 non d ame     -31.707  10.821  22.732  0.00  0.00     0.028 H 
ATOM     42  H18 non d ame     -30.606  11.186  24.082  0.00  0.00     0.028 H 
ENDBRANCH  33  39
ENDBRANCH   7  33
ENDBRANCH   4   7
ENDBRANCH   1   3
BRANCH   1  43
ATOM     43  C15 non d ame     -31.507  15.458  25.507  0.00  0.00     0.240 C 
ATOM     44  O5  non d ame     -31.080  16.565  25.449  0.00  0.00    -0.271 OA
ATOM     45  N6  non d ame     -32.312  15.035  26.688  0.00  0.00    -0.355 N 
ATOM     46  H46 non d ame     -32.684  14.098  26.747  0.00  0.00     0.162 HD
BRANCH  45  47
ATOM     47  C20 non d ame     -32.566  15.996  27.784  0.00  0.00     0.013 C 
ATOM     48  H30 non d ame     -31.830  16.796  27.704  0.00  0.00     0.072 H 
BRANCH  47  49
ATOM     49  C21 non d ame     -32.421  15.290  29.112  0.00  0.00    -0.038 C 
ATOM     50  H31 non d ame     -31.841  15.964  29.743  0.00  0.00     0.036 H 
ATOM     51  H32 non d ame     -33.432  15.005  29.405  0.00  0.00     0.036 H 
BRANCH  49  52
ATOM     52  C22 non d ame     -31.610  13.980  29.010  0.00  0.00     0.018 C 
ATOM     53  H33 non d ame     -31.991  13.466  28.128  0.00  0.00     0.048 H 
ATOM     54  H34 non d ame     -30.563  14.277  29.059  0.00  0.00     0.048 H 
BRANCH  52  55
ATOM     55  C23 non d ame     -31.836  13.009  30.202  0.00  0.00     0.259 C 
ATOM     56  O7  non d ame     -30.994  12.864  31.029  0.00  0.00    -0.265 OA
BRANCH  55  57
ATOM     57  O8  non d ame     -33.056  12.283  30.289  0.00  0.00    -0.317 OA
BRANCH  57  58
ATOM     58  C29 non d ame     -32.923  10.988  30.882  0.00  0.00     0.052 C 
ATOM     59  H47 non d ame     -32.275  10.423  30.213  0.00  0.00     0.082 H 
ATOM     60  H48 non d ame     -32.621  11.165  31.914  0.00  0.00     0.082 H 
BRANCH  58  61
ATOM     61  C35 non d ame     -34.324  10.319  30.890  0.00  0.00    -0.034 A 
ATOM     62  C30 non d ame     -34.976  10.085  32.097  0.00  0.00    -0.075 A 
ATOM     63  C31 non d ame     -36.234   9.483  32.104  0.00  0.00    -0.082 A 
ATOM     64  H49 non d ame     -34.503  10.370  33.036  0.00  0.00     0.084 H 
ATOM     65  C32 non d ame     -36.839   9.115  30.899  0.00  0.00    -0.083 A 
ATOM     66  H50 non d ame     -36.744   9.303  33.051  0.00  0.00     0.083 H 
ATOM     67  C33 non d ame     -36.182   9.348  29.699  0.00  0.00    -0.082 A 
ATOM     68  H51 non d ame     -37.823   8.646  30.896  0.00  0.00     0.083 H 
ATOM     69  C34 non d ame     -34.926   9.950  29.686  0.00  0.00    -0.075 A 
ATOM     70  H52 non d ame     -36.656   9.057  28.760  0.00  0.00     0.083 H 
ATOM     71  H53 non d ame     -34.417  10.131  28.739  0.00  0.00     0.084 H 
ENDBRANCH  58  61
ENDBRANCH  57  58
ENDBRANCH  55  57
ENDBRANCH  52  55
ENDBRANCH  49  52
ENDBRANCH  47  49
BRANCH  47  72
ATOM     72  C24 non d ame     -33.979  16.562  27.657  0.00  0.00    -0.039 C 
ATOM     73  H35 non d ame     -34.470  15.946  26.902  0.00  0.00     0.036 H 
ATOM     74  H36 non d ame     -34.371  16.594  28.673  0.00  0.00     0.036 H 
BRANCH  72  75
ATOM     75  C25 non d ame     -33.969  18.066  27.106  0.00  0.00    -0.001 C 
ATOM     76  C26 non d ame     -32.495  18.746  27.365  0.00  0.00    -0.035 C 
ATOM     77  C27 non d ame     -32.667  19.937  27.989  0.00  0.00     0.085 C 
ATOM     78  H38 non d ame     -31.933  18.158  28.090  0.00  0.00     0.036 H 
ATOM     79  H39 non d ame     -32.036  19.021  26.415  0.00  0.00     0.036 H 
ATOM     80  N5  non d ame     -34.097  19.979  28.471  0.00  0.00    -0.049 N 
ATOM     81  H40 non d ame     -32.001  19.913  28.851  0.00  0.00     0.075 H 
ATOM     82  H41 non d ame     -32.530  20.692  27.216  0.00  0.00     0.075 H 
ATOM     83  C28 non d ame     -34.862  18.786  27.698  0.00  0.00     0.193 C 
ATOM     84  H42 non d ame     -34.073  19.760  29.456  0.00  0.00     0.280 HD
ATOM     85  H43 non d ame     -34.477  20.861  28.159  0.00  0.00     0.280 HD
ATOM     86  H44 non d ame     -35.526  19.005  26.861  0.00  0.00     0.129 H 
ATOM     87  H37 non d ame     -34.379  18.139  26.099  0.00  0.00     0.046 H 
BRANCH  83  88
ATOM     88  O6  non d ame     -35.645  18.024  28.619  0.00  0.00    -0.369 OA
ATOM     89  H45 non d ame     -35.138  17.871  29.420  0.00  0.00     0.212 HD
ENDBRANCH  83  88
ENDBRANCH  72  75
ENDBRANCH  47  72
ENDBRANCH  45  47
ENDBRANCH   1  43
BRANCH   1  90
ATOM     90  C16 non d ame     -31.506  15.138  23.013  0.00  0.00    -0.035 C 
ATOM     91  H21 non d ame     -32.070  14.412  22.431  0.00  0.00     0.037 H 
ATOM     92  H22 non d ame     -31.952  16.100  23.266  0.00  0.00     0.037 H 
BRANCH  90  93
ATOM     93  C17 non d ame     -30.214  15.452  22.193  0.00  0.00    -0.059 C 
ATOM     94  H23 non d ame     -29.862  16.438  22.495  0.00  0.00     0.038 H 
BRANCH  93  95
ATOM     95  C18 non d ame     -29.069  14.429  22.481  0.00  0.00    -0.073 C 
ATOM     96  H24 non d ame     -28.551  14.711  23.397  0.00  0.00     0.028 H 
ATOM     97  H25 non d ame     -29.494  13.432  22.597  0.00  0.00     0.028 H 
ATOM     98  H26 non d ame     -28.364  14.429  21.649  0.00  0.00     0.028 H 
ENDBRANCH  93  95
BRANCH  93  99
ATOM     99  C19 non d ame     -30.521  15.518  20.694  0.00  0.00    -0.073 C 
ATOM    100  H27 non d ame     -30.788  16.540  20.423  0.00  0.00     0.028 H 
ATOM    101  H28 non d ame     -29.641  15.211  20.128  0.00  0.00     0.028 H 
ATOM    102  H29 non d ame     -31.352  14.852  20.463  0.00  0.00     0.028 H 
ENDBRANCH  93  99
ENDBRANCH  90  93
ENDBRANCH   1  90
TORSDOF 26
ENDMDL
MODEL 3
REMARK VINA RESULT:      -7.3      3.251      8.555
REMARK  26 active torsions:
REMARK  status: ('A' for Active; 'I' for Inactive)
REMARK    1  A    between atoms: C2_2  and  C3_3 
REMARK    2  A    between atoms: C4_6  and  C5_7 
REMARK       I    between atoms: C5_7  and  N2_9 
REMARK    3  A    between atoms: N2_9  and  C6_10 
REMARK    4  A    between atoms: C6_10  and  C7_11 
REMARK    5  A    between atoms: C6_10  and  C8_13 
REMARK       I    between atoms: C7_11  and  N3_14 
REMARK    6  A    between atoms: N3_14  and  C9_15 
REMARK    7  A    between atoms: C9_15  and  C10_16 
REMARK    8  A    between atoms: C9_15  and  C11_18 
REMARK       I    between atoms: C10_16  and  N4_21 
REMARK    9  A    between atoms: C11_18  and  C12_19 
REMARK   10  A    between atoms: C11_18  and  C13_20 
REMARK   11  A    between atoms: N4_21  and  C14_22 
REMARK   12  A    between atoms: C14_22  and  C15_23 
REMARK   13  A    between atoms: C14_22  and  C16_25 
REMARK       I    between atoms: C15_23  and  N6_40 
REMARK   14  A    between atoms: C16_25  and  C17_26 
REMARK   15  A    between atoms: C17_26  and  C18_27 
REMARK   16  A    between atoms: C17_26  and  C19_28 
REMARK   17  A    between atoms: C20_29  and  C21_30 
REMARK   18  A    between atoms: C20_29  and  C24_33 
REMARK   19  A    between atoms: C20_29  and  N6_40 
REMARK   20  A    between atoms: C21_30  and  C22_31 
REMARK   21  A    between atoms: C22_31  and  C23_32 
REMARK   22  A    between atoms: C23_32  and  O8_43 
REMARK   23  A    between atoms: C24_33  and  C25_34 
REMARK   24  A    between atoms: C28_38  and  O6_39 
REMARK   25  A    between atoms: C29_42  and  O8_43 
REMARK   26  A    between atoms: C29_42  and  C35_49 
ROOT
ATOM      1  C14 non d ame     -35.242  10.567  24.865  0.00  0.00     0.089 C 
ATOM      2  H20 non d ame     -35.211  11.027  23.877  0.00  0.00     0.087 H 
ENDROOT
BRANCH   1   3
ATOM      3  N4  non d ame     -34.351   9.417  24.842  0.00  0.00    -0.346 N 
ATOM      4  C10 non d ame     -34.027   8.730  23.540  0.00  0.00     0.241 C 
ATOM      5  O4  non d ame     -34.497   9.120  22.522  0.00  0.00    -0.271 OA
ATOM      6  H19 non d ame     -33.964   9.100  25.719  0.00  0.00     0.163 HD
BRANCH   4   7
ATOM      7  C9  non d ame     -33.099   7.544  23.534  0.00  0.00     0.092 C 
ATOM      8  H11 non d ame     -33.344   6.901  22.689  0.00  0.00     0.088 H 
BRANCH   7   9
ATOM      9  N3  non d ame     -31.720   8.003  23.344  0.00  0.00    -0.346 N 
ATOM     10  C7  non d ame     -31.153   8.051  22.019  0.00  0.00     0.240 C 
ATOM     11  O3  non d ame     -31.792   7.723  21.094  0.00  0.00    -0.271 OA
ATOM     12  H10 non d ame     -31.156   8.287  24.132  0.00  0.00     0.163 HD
BRANCH  10  13
ATOM     13  C6  non d ame     -29.684   8.537  21.822  0.00  0.00     0.086 C 
ATOM     14  H6  non d ame     -29.220   8.127  20.925  0.00  0.00     0.086 H 
BRANCH  13  15
ATOM     15  N2  non d ame     -29.681   9.982  21.669  0.00  0.00    -0.343 N 
ATOM     16  C5  non d ame     -29.993  10.830  22.821  0.00  0.00     0.273 C 
ATOM     17  O2  non d ame     -30.247  10.341  23.866  0.00  0.00    -0.266 OA
ATOM     18  H5  non d ame     -29.466  10.392  20.771  0.00  0.00     0.163 HD
BRANCH  16  19
ATOM     19  C4  non d ame     -29.993  12.360  22.672  0.00  0.00     0.154 A 
ATOM     20  C1  non d ame     -30.751  13.303  23.437  0.00  0.00    -0.017 A 
ATOM     21  C2  non d ame     -30.395  14.565  22.912  0.00  0.00     0.077 A 
ATOM     22  H1  non d ame     -31.450  13.102  24.248  0.00  0.00     0.091 H 
ATOM     23  O1  non d ame     -29.533  14.361  21.960  0.00  0.00    -0.218 OA
ATOM     24  N1  non d ame     -29.282  13.081  21.801  0.00  0.00    -0.123 NA
BRANCH  21  25
ATOM     25  C3  non d ame     -30.922  15.916  23.377  0.00  0.00    -0.029 C 
ATOM     26  H2  non d ame     -30.464  16.177  24.330  0.00  0.00     0.036 H 
ATOM     27  H3  non d ame     -30.675  16.677  22.637  0.00  0.00     0.036 H 
ATOM     28  H4  non d ame     -32.004  15.863  23.496  0.00  0.00     0.036 H 
ENDBRANCH  21  25
ENDBRANCH  16  19
ENDBRANCH  13  15
BRANCH  13  29
ATOM     29  C8  non d ame     -28.857   8.143  23.019  0.00  0.00    -0.049 C 
ATOM     30  H7  non d ame     -28.848   8.959  23.741  0.00  0.00     0.030 H 
ATOM     31  H8  non d ame     -29.287   7.255  23.482  0.00  0.00     0.030 H 
ATOM     32  H9  non d ame     -27.835   7.929  22.701  0.00  0.00     0.030 H 
ENDBRANCH  13  29
ENDBRANCH  10  13
ENDBRANCH   7   9
BRANCH   7  33
ATOM     33  C11 non d ame     -33.210   6.793  24.894  0.00  0.00    -0.033 C 
ATOM     34  H12 non d ame     -33.473   7.527  25.655  0.00  0.00     0.042 H 
BRANCH  33  35
ATOM     35  C12 non d ame     -34.346   5.724  24.861  0.00  0.00    -0.071 C 
ATOM     36  H13 non d ame     -35.066   5.934  25.652  0.00  0.00     0.028 H 
ATOM     37  H14 non d ame     -34.847   5.755  23.894  0.00  0.00     0.028 H 
ATOM     38  H15 non d ame     -33.917   4.733  25.017  0.00  0.00     0.028 H 
ENDBRANCH  33  35
BRANCH  33  39
ATOM     39  C13 non d ame     -31.841   6.154  25.293  0.00  0.00    -0.071 C 
ATOM     40  H16 non d ame     -31.479   5.531  24.475  0.00  0.00     0.028 H 
ATOM     41  H17 non d ame     -31.117   6.943  25.497  0.00  0.00     0.028 H 
ATOM     42  H18 non d ame     -31.972   5.543  26.186  0.00  0.00     0.028 H 
ENDBRANCH  33  39
ENDBRANCH   7  33
ENDBRANCH   4   7
ENDBRANCH   1   3
BRANCH   1  43
ATOM     43  C15 non d ame     -34.765  11.542  25.981  0.00  0.00     0.240 C 
ATOM     44  O5  non d ame     -35.361  11.602  27.007  0.00  0.00    -0.271 OA
ATOM     45  N6  non d ame     -33.558  12.392  25.773  0.00  0.00    -0.355 N 
ATOM     46  H46 non d ame     -33.041  12.346  24.907  0.00  0.00     0.162 HD
BRANCH  45  47
ATOM     47  C20 non d ame     -33.117  13.312  26.844  0.00  0.00     0.013 C 
ATOM     48  H30 non d ame     -33.687  13.077  27.743  0.00  0.00     0.072 H 
BRANCH  47  49
ATOM     49  C21 non d ame     -33.384  14.738  26.419  0.00  0.00    -0.038 C 
ATOM     50  H31 non d ame     -33.225  14.759  25.341  0.00  0.00     0.036 H 
ATOM     51  H32 non d ame     -34.362  14.990  26.831  0.00  0.00     0.036 H 
BRANCH  49  52
ATOM     52  C22 non d ame     -32.381  15.743  27.028  0.00  0.00     0.018 C 
ATOM     53  H33 non d ame     -31.477  15.170  27.231  0.00  0.00     0.048 H 
ATOM     54  H34 non d ame     -32.351  16.585  26.337  0.00  0.00     0.048 H 
BRANCH  52  55
ATOM     55  C23 non d ame     -32.834  16.327  28.395  0.00  0.00     0.259 C 
ATOM     56  O7  non d ame     -32.392  15.896  29.411  0.00  0.00    -0.265 OA
BRANCH  55  57
ATOM     57  O8  non d ame     -33.794  17.376  28.421  0.00  0.00    -0.317 OA
BRANCH  57  58
ATOM     58  C29 non d ame     -33.375  18.567  27.747  0.00  0.00     0.052 C 
ATOM     59  H47 non d ame     -33.119  19.276  28.534  0.00  0.00     0.082 H 
ATOM     60  H48 non d ame     -32.618  18.250  27.031  0.00  0.00     0.082 H 
BRANCH  58  61
ATOM     61  C35 non d ame     -34.592  19.124  26.960  0.00  0.00    -0.034 A 
ATOM     62  C30 non d ame     -35.242  20.271  27.405  0.00  0.00    -0.075 A 
ATOM     63  C31 non d ame     -36.335  20.772  26.698  0.00  0.00    -0.082 A 
ATOM     64  H49 non d ame     -34.896  20.778  28.306  0.00  0.00     0.084 H 
ATOM     65  C32 non d ame     -36.778  20.120  25.544  0.00  0.00    -0.083 A 
ATOM     66  H50 non d ame     -36.841  21.672  27.048  0.00  0.00     0.083 H 
ATOM     67  C33 non d ame     -36.128  18.973  25.107  0.00  0.00    -0.082 A 
ATOM     68  H51 non d ame     -37.631  20.505  24.985  0.00  0.00     0.083 H 
ATOM     69  C34 non d ame     -35.035  18.471  25.809  0.00  0.00    -0.075 A 
ATOM     70  H52 non d ame     -36.478  18.465  24.208  0.00  0.00     0.083 H 
ATOM     71  H53 non d ame     -34.528  17.571  25.459  0.00  0.00     0.084 H 
ENDBRANCH  58  61
ENDBRANCH  57  58
ENDBRANCH  55  57
ENDBRANCH  52  55
ENDBRANCH  49  52
ENDBRANCH  47  49
BRANCH  47  72
ATOM     72  C24 non d ame     -31.623  13.126  27.100  0.00  0.00    -0.039 C 
ATOM     73  H35 non d ame     -31.255  12.542  26.256  0.00  0.00     0.036 H 
ATOM     74  H36 non d ame     -31.233  14.128  27.280  0.00  0.00     0.036 H 
BRANCH  72  75
ATOM     75  C25 non d ame     -31.351  12.268  28.425  0.00  0.00    -0.001 C 
ATOM     76  C26 non d ame     -32.762  12.023  29.232  0.00  0.00    -0.035 C 
ATOM     77  C27 non d ame     -32.594  12.388  30.526  0.00  0.00     0.085 C 
ATOM     78  H38 non d ame     -33.525  12.711  28.871  0.00  0.00     0.036 H 
ATOM     79  H39 non d ame     -32.977  10.955  29.295  0.00  0.00     0.036 H 
ATOM     80  N5  non d ame     -31.301  13.165  30.601  0.00  0.00    -0.049 N 
ATOM     81  H40 non d ame     -33.425  13.057  30.750  0.00  0.00     0.075 H 
ATOM     82  H41 non d ame     -32.481  11.456  31.079  0.00  0.00     0.075 H 
ATOM     83  C28 non d ame     -30.528  12.874  29.214  0.00  0.00     0.193 C 
ATOM     84  H42 non d ame     -31.556  14.141  30.628  0.00  0.00     0.280 HD
ATOM     85  H43 non d ame     -30.769  12.760  31.357  0.00  0.00     0.280 HD
ATOM     86  H44 non d ame     -29.683  12.186  29.185  0.00  0.00     0.129 H 
ATOM     87  H37 non d ame     -30.733  11.392  28.229  0.00  0.00     0.046 H 
BRANCH  83  88
ATOM     88  O6  non d ame     -30.045  14.096  28.653  0.00  0.00    -0.369 OA
ATOM     89  H45 non d ame     -30.598  14.824  28.948  0.00  0.00     0.212 HD
ENDBRANCH  83  88
ENDBRANCH  72  75
ENDBRANCH  47  72
ENDBRANCH  45  47
ENDBRANCH   1  43
BRANCH   1  90
ATOM     90  C16 non d ame     -36.655  10.096  25.169  0.00  0.00    -0.035 C 
ATOM     91  H21 non d ame     -37.008  10.741  25.973  0.00  0.00     0.037 H 
ATOM     92  H22 non d ame     -37.170  10.090  24.208  0.00  0.00     0.037 H 
BRANCH  90  93
ATOM     93  C17 non d ame     -36.723   8.634  25.716  0.00  0.00    -0.059 C 
ATOM     94  H23 non d ame     -35.710   8.232  25.709  0.00  0.00     0.038 H 
BRANCH  93  95
ATOM     95  C18 non d ame     -37.247   8.579  27.186  0.00  0.00    -0.073 C 
ATOM     96  H24 non d ame     -37.652   9.551  27.466  0.00  0.00     0.028 H 
ATOM     97  H25 non d ame     -38.030   7.825  27.265  0.00  0.00     0.028 H 
ATOM     98  H26 non d ame     -36.426   8.321  27.855  0.00  0.00     0.028 H 
ENDBRANCH  93  95
BRANCH  93  99
ATOM     99  C19 non d ame     -37.573   7.747  24.802  0.00  0.00    -0.073 C 
ATOM    100  H27 non d ame     -37.764   8.270  23.864  0.00  0.00     0.028 H 
ATOM    101  H28 non d ame     -37.039   6.819  24.597  0.00  0.00     0.028 H 
ATOM    102  H29 non d ame     -38.520   7.522  25.291  0.00  0.00     0.028 H 
ENDBRANCH  93  99
ENDBRANCH  90  93
ENDBRANCH   1  90
TORSDOF 26
ENDMDL
MODEL 4
REMARK VINA RESULT:      -7.2      3.134      9.112
REMARK  26 active torsions:
REMARK  status: ('A' for Active; 'I' for Inactive)
REMARK    1  A    between atoms: C2_2  and  C3_3 
REMARK    2  A    between atoms: C4_6  and  C5_7 
REMARK       I    between atoms: C5_7  and  N2_9 
REMARK    3  A    between atoms: N2_9  and  C6_10 
REMARK    4  A    between atoms: C6_10  and  C7_11 
REMARK    5  A    between atoms: C6_10  and  C8_13 
REMARK       I    between atoms: C7_11  and  N3_14 
REMARK    6  A    between atoms: N3_14  and  C9_15 
REMARK    7  A    between atoms: C9_15  and  C10_16 
REMARK    8  A    between atoms: C9_15  and  C11_18 
REMARK       I    between atoms: C10_16  and  N4_21 
REMARK    9  A    between atoms: C11_18  and  C12_19 
REMARK   10  A    between atoms: C11_18  and  C13_20 
REMARK   11  A    between atoms: N4_21  and  C14_22 
REMARK   12  A    between atoms: C14_22  and  C15_23 
REMARK   13  A    between atoms: C14_22  and  C16_25 
REMARK       I    between atoms: C15_23  and  N6_40 
REMARK   14  A    between atoms: C16_25  and  C17_26 
REMARK   15  A    between atoms: C17_26  and  C18_27 
REMARK   16  A    between atoms: C17_26  and  C19_28 
REMARK   17  A    between atoms: C20_29  and  C21_30 
REMARK   18  A    between atoms: C20_29  and  C24_33 
REMARK   19  A    between atoms: C20_29  and  N6_40 
REMARK   20  A    between atoms: C21_30  and  C22_31 
REMARK   21  A    between atoms: C22_31  and  C23_32 
REMARK   22  A    between atoms: C23_32  and  O8_43 
REMARK   23  A    between atoms: C24_33  and  C25_34 
REMARK   24  A    between atoms: C28_38  and  O6_39 
REMARK   25  A    between atoms: C29_42  and  O8_43 
REMARK   26  A    between atoms: C29_42  and  C35_49 
ROOT
ATOM      1  C14 non d ame     -34.362   5.690  29.001  0.00  0.00     0.089 C 
ATOM      2  H20 non d ame     -34.039   5.293  29.964  0.00  0.00     0.087 H 
ENDROOT
BRANCH   1   3
ATOM      3  N4  non d ame     -34.567   7.122  29.164  0.00  0.00    -0.346 N 
ATOM      4  C10 non d ame     -34.820   7.705  30.530  0.00  0.00     0.241 C 
ATOM      5  O4  non d ame     -34.856   7.002  31.486  0.00  0.00    -0.271 OA
ATOM      6  H19 non d ame     -34.535   7.702  28.338  0.00  0.00     0.163 HD
BRANCH   4   7
ATOM      7  C9  non d ame     -35.026   9.189  30.681  0.00  0.00     0.092 C 
ATOM      8  H11 non d ame     -35.009   9.448  31.739  0.00  0.00     0.088 H 
BRANCH   7   9
ATOM      9  N3  non d ame     -33.916   9.904  30.042  0.00  0.00    -0.346 N 
ATOM     10  C7  non d ame     -33.255  10.979  30.740  0.00  0.00     0.240 C 
ATOM     11  O3  non d ame     -33.602  11.282  31.815  0.00  0.00    -0.271 OA
ATOM     12  H10 non d ame     -33.607   9.654  29.113  0.00  0.00     0.163 HD
BRANCH  10  13
ATOM     13  C6  non d ame     -32.077  11.738  30.053  0.00  0.00     0.086 C 
ATOM     14  H6  non d ame     -31.794  11.300  29.096  0.00  0.00     0.086 H 
BRANCH  13  15
ATOM     15  N2  non d ame     -32.492  13.104  29.780  0.00  0.00    -0.343 N 
ATOM     16  C5  non d ame     -31.804  13.872  28.741  0.00  0.00     0.273 C 
ATOM     17  O2  non d ame     -30.915  13.385  28.133  0.00  0.00    -0.266 OA
ATOM     18  H5  non d ame     -33.250  13.514  30.306  0.00  0.00     0.163 HD
BRANCH  16  19
ATOM     19  C4  non d ame     -32.233  15.317  28.441  0.00  0.00     0.154 A 
ATOM     20  C1  non d ame     -32.437  15.909  27.154  0.00  0.00    -0.017 A 
ATOM     21  C2  non d ame     -32.819  17.242  27.424  0.00  0.00     0.077 A 
ATOM     22  H1  non d ame     -32.326  15.443  26.175  0.00  0.00     0.091 H 
ATOM     23  O1  non d ame     -32.831  17.388  28.716  0.00  0.00    -0.218 OA
ATOM     24  N1  non d ame     -32.492  16.278  29.331  0.00  0.00    -0.123 NA
BRANCH  21  25
ATOM     25  C3  non d ame     -33.157  18.310  26.392  0.00  0.00    -0.029 C 
ATOM     26  H2  non d ame     -32.258  18.577  25.838  0.00  0.00     0.036 H 
ATOM     27  H3  non d ame     -33.906  17.924  25.701  0.00  0.00     0.036 H 
ATOM     28  H4  non d ame     -33.549  19.193  26.896  0.00  0.00     0.036 H 
ENDBRANCH  21  25
ENDBRANCH  16  19
ENDBRANCH  13  15
BRANCH  13  29
ATOM     29  C8  non d ame     -30.876  11.735  30.964  0.00  0.00    -0.049 C 
ATOM     30  H7  non d ame     -29.985  11.480  30.391  0.00  0.00     0.030 H 
ATOM     31  H8  non d ame     -30.751  12.724  31.405  0.00  0.00     0.030 H 
ATOM     32  H9  non d ame     -31.022  10.999  31.756  0.00  0.00     0.030 H 
ENDBRANCH  13  29
ENDBRANCH  10  13
ENDBRANCH   7   9
BRANCH   7  33
ATOM     33  C11 non d ame     -36.364   9.598  29.998  0.00  0.00    -0.033 C 
ATOM     34  H12 non d ame     -36.905   8.683  29.761  0.00  0.00     0.042 H 
BRANCH  33  35
ATOM     35  C12 non d ame     -37.260  10.436  30.963  0.00  0.00    -0.071 C 
ATOM     36  H13 non d ame     -38.248  10.565  30.520  0.00  0.00     0.028 H 
ATOM     37  H14 non d ame     -37.354   9.917  31.916  0.00  0.00     0.028 H 
ATOM     38  H15 non d ame     -36.806  11.414  31.124  0.00  0.00     0.028 H 
ENDBRANCH  33  35
BRANCH  33  39
ATOM     39  C13 non d ame     -36.100  10.364  28.662  0.00  0.00    -0.071 C 
ATOM     40  H16 non d ame     -36.407   9.743  27.821  0.00  0.00     0.028 H 
ATOM     41  H17 non d ame     -36.669  11.294  28.657  0.00  0.00     0.028 H 
ATOM     42  H18 non d ame     -35.037  10.590  28.577  0.00  0.00     0.028 H 
ENDBRANCH  33  39
ENDBRANCH   7  33
ENDBRANCH   4   7
ENDBRANCH   1   3
BRANCH   1  43
ATOM     43  C15 non d ame     -33.298   5.465  27.888  0.00  0.00     0.240 C 
ATOM     44  O5  non d ame     -32.344   4.792  28.109  0.00  0.00    -0.271 OA
ATOM     45  N6  non d ame     -33.474   6.081  26.542  0.00  0.00    -0.355 N 
ATOM     46  H46 non d ame     -34.283   6.651  26.340  0.00  0.00     0.162 HD
BRANCH  45  47
ATOM     47  C20 non d ame     -32.454   5.857  25.495  0.00  0.00     0.013 C 
ATOM     48  H30 non d ame     -31.587   5.393  25.965  0.00  0.00     0.072 H 
BRANCH  47  49
ATOM     49  C21 non d ame     -32.063   7.185  24.885  0.00  0.00    -0.038 C 
ATOM     50  H31 non d ame     -31.046   7.378  25.228  0.00  0.00     0.036 H 
ATOM     51  H32 non d ame     -32.271   7.091  23.819  0.00  0.00     0.036 H 
BRANCH  49  52
ATOM     52  C22 non d ame     -32.927   8.357  25.397  0.00  0.00     0.018 C 
ATOM     53  H33 non d ame     -32.979   9.067  24.573  0.00  0.00     0.048 H 
ATOM     54  H34 non d ame     -33.839   7.903  25.785  0.00  0.00     0.048 H 
BRANCH  52  55
ATOM     55  C23 non d ame     -32.293   9.129  26.588  0.00  0.00     0.259 C 
ATOM     56  O7  non d ame     -32.486   8.776  27.707  0.00  0.00    -0.265 OA
BRANCH  55  57
ATOM     57  O8  non d ame     -31.488  10.273  26.328  0.00  0.00    -0.317 OA
BRANCH  57  58
ATOM     58  C29 non d ame     -32.182  11.335  25.666  0.00  0.00     0.052 C 
ATOM     59  H47 non d ame     -33.102  10.893  25.284  0.00  0.00     0.082 H 
ATOM     60  H48 non d ame     -32.226  12.152  26.385  0.00  0.00     0.082 H 
BRANCH  58  61
ATOM     61  C35 non d ame     -31.319  11.791  24.459  0.00  0.00    -0.034 A 
ATOM     62  C30 non d ame     -31.108  13.147  24.227  0.00  0.00    -0.075 A 
ATOM     63  C31 non d ame     -30.333  13.556  23.143  0.00  0.00    -0.082 A 
ATOM     64  H49 non d ame     -31.549  13.888  24.893  0.00  0.00     0.084 H 
ATOM     65  C32 non d ame     -29.769  12.605  22.288  0.00  0.00    -0.083 A 
ATOM     66  H50 non d ame     -30.167  14.620  22.964  0.00  0.00     0.083 H 
ATOM     67  C33 non d ame     -29.986  11.254  22.522  0.00  0.00    -0.082 A 
ATOM     68  H51 non d ame     -29.161  12.917  21.438  0.00  0.00     0.083 H 
ATOM     69  C34 non d ame     -30.758  10.840  23.605  0.00  0.00    -0.075 A 
ATOM     70  H52 non d ame     -29.547  10.514  21.852  0.00  0.00     0.083 H 
ATOM     71  H53 non d ame     -30.922   9.777  23.783  0.00  0.00     0.084 H 
ENDBRANCH  58  61
ENDBRANCH  57  58
ENDBRANCH  55  57
ENDBRANCH  52  55
ENDBRANCH  49  52
ENDBRANCH  47  49
BRANCH  47  72
ATOM     72  C24 non d ame     -33.020   4.944  24.410  0.00  0.00    -0.039 C 
ATOM     73  H35 non d ame     -32.164   4.395  24.017  0.00  0.00     0.036 H 
ATOM     74  H36 non d ame     -33.842   4.406  24.883  0.00  0.00     0.036 H 
BRANCH  72  75
ATOM     75  C25 non d ame     -33.642   5.782  23.194  0.00  0.00    -0.001 C 
ATOM     76  C26 non d ame     -35.262   5.957  23.406  0.00  0.00    -0.035 C 
ATOM     77  C27 non d ame     -35.896   5.570  22.272  0.00  0.00     0.085 C 
ATOM     78  H38 non d ame     -35.621   5.250  24.153  0.00  0.00     0.036 H 
ATOM     79  H39 non d ame     -35.517   7.015  23.490  0.00  0.00     0.036 H 
ATOM     80  N5  non d ame     -34.879   4.839  21.428  0.00  0.00    -0.049 N 
ATOM     81  H40 non d ame     -36.663   4.866  22.594  0.00  0.00     0.075 H 
ATOM     82  H41 non d ame     -36.180   6.492  21.768  0.00  0.00     0.075 H 
ATOM     83  C28 non d ame     -33.438   5.189  22.066  0.00  0.00     0.193 C 
ATOM     84  H42 non d ame     -35.057   3.853  21.556  0.00  0.00     0.280 HD
ATOM     85  H43 non d ame     -34.931   5.246  20.505  0.00  0.00     0.280 HD
ATOM     86  H44 non d ame     -32.778   5.908  21.580  0.00  0.00     0.129 H 
ATOM     87  H37 non d ame     -33.069   6.684  22.980  0.00  0.00     0.046 H 
BRANCH  83  88
ATOM     88  O6  non d ame     -32.663   3.998  22.214  0.00  0.00    -0.369 OA
ATOM     89  H45 non d ame     -31.728   4.222  22.210  0.00  0.00     0.212 HD
ENDBRANCH  83  88
ENDBRANCH  72  75
ENDBRANCH  47  72
ENDBRANCH  45  47
ENDBRANCH   1  43
BRANCH   1  90
ATOM     90  C16 non d ame     -35.674   5.043  28.591  0.00  0.00    -0.035 C 
ATOM     91  H21 non d ame     -35.442   4.459  27.702  0.00  0.00     0.037 H 
ATOM     92  H22 non d ame     -36.044   4.546  29.489  0.00  0.00     0.037 H 
BRANCH  90  93
ATOM     93  C17 non d ame     -36.774   6.069  28.170  0.00  0.00    -0.059 C 
ATOM     94  H23 non d ame     -36.365   7.069  28.316  0.00  0.00     0.038 H 
BRANCH  93  95
ATOM     95  C18 non d ame     -37.165   5.930  26.664  0.00  0.00    -0.073 C 
ATOM     96  H24 non d ame     -37.945   6.652  26.422  0.00  0.00     0.028 H 
ATOM     97  H25 non d ame     -36.290   6.121  26.043  0.00  0.00     0.028 H 
ATOM     98  H26 non d ame     -37.531   4.921  26.476  0.00  0.00     0.028 H 
ENDBRANCH  93  95
BRANCH  93  99
ATOM     99  C19 non d ame     -38.009   5.947  29.066  0.00  0.00    -0.073 C 
ATOM    100  H27 non d ame     -37.695   5.754  30.093  0.00  0.00     0.028 H 
ATOM    101  H28 non d ame     -38.579   6.875  29.030  0.00  0.00     0.028 H 
ATOM    102  H29 non d ame     -38.632   5.124  28.716  0.00  0.00     0.028 H 
ENDBRANCH  93  99
ENDBRANCH  90  93
ENDBRANCH   1  90
TORSDOF 26
ENDMDL
MODEL 5
REMARK VINA RESULT:      -7.2      3.404      7.592
REMARK  26 active torsions:
REMARK  status: ('A' for Active; 'I' for Inactive)
REMARK    1  A    between atoms: C2_2  and  C3_3 
REMARK    2  A    between atoms: C4_6  and  C5_7 
REMARK       I    between atoms: C5_7  and  N2_9 
REMARK    3  A    between atoms: N2_9  and  C6_10 
REMARK    4  A    between atoms: C6_10  and  C7_11 
REMARK    5  A    between atoms: C6_10  and  C8_13 
REMARK       I    between atoms: C7_11  and  N3_14 
REMARK    6  A    between atoms: N3_14  and  C9_15 
REMARK    7  A    between atoms: C9_15  and  C10_16 
REMARK    8  A    between atoms: C9_15  and  C11_18 
REMARK       I    between atoms: C10_16  and  N4_21 
REMARK    9  A    between atoms: C11_18  and  C12_19 
REMARK   10  A    between atoms: C11_18  and  C13_20 
REMARK   11  A    between atoms: N4_21  and  C14_22 
REMARK   12  A    between atoms: C14_22  and  C15_23 
REMARK   13  A    between atoms: C14_22  and  C16_25 
REMARK       I    between atoms: C15_23  and  N6_40 
REMARK   14  A    between atoms: C16_25  and  C17_26 
REMARK   15  A    between atoms: C17_26  and  C18_27 
REMARK   16  A    between atoms: C17_26  and  C19_28 
REMARK   17  A    between atoms: C20_29  and  C21_30 
REMARK   18  A    between atoms: C20_29  and  C24_33 
REMARK   19  A    between atoms: C20_29  and  N6_40 
REMARK   20  A    between atoms: C21_30  and  C22_31 
REMARK   21  A    between atoms: C22_31  and  C23_32 
REMARK   22  A    between atoms: C23_32  and  O8_43 
REMARK   23  A    between atoms: C24_33  and  C25_34 
REMARK   24  A    between atoms: C28_38  and  O6_39 
REMARK   25  A    between atoms: C29_42  and  O8_43 
REMARK   26  A    between atoms: C29_42  and  C35_49 
ROOT
ATOM      1  C14 non d ame     -37.347  14.645  25.158  0.00  0.00     0.089 C 
ATOM      2  H20 non d ame     -38.430  14.733  25.248  0.00  0.00     0.087 H 
ENDROOT
BRANCH   1   3
ATOM      3  N4  non d ame     -36.766  15.898  25.618  0.00  0.00    -0.346 N 
ATOM      4  C10 non d ame     -37.653  17.030  26.068  0.00  0.00     0.241 C 
ATOM      5  O4  non d ame     -38.834  16.911  26.051  0.00  0.00    -0.271 OA
ATOM      6  H19 non d ame     -35.759  15.980  25.623  0.00  0.00     0.163 HD
BRANCH   4   7
ATOM      7  C9  non d ame     -37.034  18.317  26.546  0.00  0.00     0.092 C 
ATOM      8  H11 non d ame     -37.336  18.500  27.577  0.00  0.00     0.088 H 
BRANCH   7   9
ATOM      9  N3  non d ame     -35.573  18.190  26.538  0.00  0.00    -0.346 N 
ATOM     10  C7  non d ame     -34.852  18.091  27.782  0.00  0.00     0.240 C 
ATOM     11  O3  non d ame     -35.431  18.112  28.800  0.00  0.00    -0.271 OA
ATOM     12  H10 non d ame     -35.061  18.172  25.668  0.00  0.00     0.163 HD
BRANCH  10  13
ATOM     13  C6  non d ame     -33.298  17.959  27.768  0.00  0.00     0.086 C 
ATOM     14  H6  non d ame     -32.823  18.479  28.599  0.00  0.00     0.086 H 
BRANCH  13  15
ATOM     15  N2  non d ame     -32.942  16.556  27.898  0.00  0.00    -0.343 N 
ATOM     16  C5  non d ame     -32.185  16.109  29.069  0.00  0.00     0.273 C 
ATOM     17  O2  non d ame     -31.865  16.886  29.900  0.00  0.00    -0.266 OA
ATOM     18  H5  non d ame     -33.217  15.899  27.181  0.00  0.00     0.163 HD
BRANCH  16  19
ATOM     19  C4  non d ame     -31.803  14.628  29.220  0.00  0.00     0.154 A 
ATOM     20  C1  non d ame     -32.643  13.559  29.666  0.00  0.00    -0.017 A 
ATOM     21  C2  non d ame     -31.822  12.411  29.624  0.00  0.00     0.077 A 
ATOM     22  H1  non d ame     -33.688  13.609  29.972  0.00  0.00     0.091 H 
ATOM     23  O1  non d ame     -30.651  12.786  29.200  0.00  0.00    -0.218 OA
ATOM     24  N1  non d ame     -30.615  14.076  28.958  0.00  0.00    -0.123 NA
BRANCH  21  25
ATOM     25  C3  non d ame     -32.233  10.994  30.002  0.00  0.00    -0.029 C 
ATOM     26  H2  non d ame     -32.570  10.463  29.113  0.00  0.00     0.036 H 
ATOM     27  H3  non d ame     -31.380  10.471  30.434  0.00  0.00     0.036 H 
ATOM     28  H4  non d ame     -33.043  11.032  30.731  0.00  0.00     0.036 H 
ENDBRANCH  21  25
ENDBRANCH  16  19
ENDBRANCH  13  15
BRANCH  13  29
ATOM     29  C8  non d ame     -32.756  18.512  26.475  0.00  0.00    -0.049 C 
ATOM     30  H7  non d ame     -33.018  19.566  26.391  0.00  0.00     0.030 H 
ATOM     31  H8  non d ame     -31.671  18.406  26.459  0.00  0.00     0.030 H 
ATOM     32  H9  non d ame     -33.187  17.964  25.636  0.00  0.00     0.030 H 
ENDBRANCH  13  29
ENDBRANCH  10  13
ENDBRANCH   7   9
BRANCH   7  33
ATOM     33  C11 non d ame     -37.456  19.478  25.597  0.00  0.00    -0.033 C 
ATOM     34  H12 non d ame     -38.545  19.484  25.549  0.00  0.00     0.042 H 
BRANCH  33  35
ATOM     35  C12 non d ame     -37.004  20.862  26.158  0.00  0.00    -0.071 C 
ATOM     36  H13 non d ame     -36.102  21.188  25.638  0.00  0.00     0.028 H 
ATOM     37  H14 non d ame     -37.796  21.594  26.005  0.00  0.00     0.028 H 
ATOM     38  H15 non d ame     -36.793  20.771  27.224  0.00  0.00     0.028 H 
ENDBRANCH  33  35
BRANCH  33  39
ATOM     39  C13 non d ame     -36.910  19.246  24.152  0.00  0.00    -0.071 C 
ATOM     40  H16 non d ame     -35.825  19.144  24.186  0.00  0.00     0.028 H 
ATOM     41  H17 non d ame     -37.349  18.337  23.739  0.00  0.00     0.028 H 
ATOM     42  H18 non d ame     -37.176  20.094  23.522  0.00  0.00     0.028 H 
ENDBRANCH  33  39
ENDBRANCH   7  33
ENDBRANCH   4   7
ENDBRANCH   1   3
BRANCH   1  43
ATOM     43  C15 non d ame     -36.778  13.486  26.027  0.00  0.00     0.240 C 
ATOM     44  O5  non d ame     -37.302  13.209  27.057  0.00  0.00    -0.271 OA
ATOM     45  N6  non d ame     -35.587  12.716  25.569  0.00  0.00    -0.355 N 
ATOM     46  H46 non d ame     -35.137  12.940  24.693  0.00  0.00     0.162 HD
BRANCH  45  47
ATOM     47  C20 non d ame     -35.059  11.617  26.406  0.00  0.00     0.013 C 
ATOM     48  H30 non d ame     -35.517  11.698  27.392  0.00  0.00     0.072 H 
BRANCH  47  49
ATOM     49  C21 non d ame     -33.558  11.752  26.520  0.00  0.00    -0.038 C 
ATOM     50  H31 non d ame     -33.348  11.808  27.589  0.00  0.00     0.036 H 
ATOM     51  H32 non d ame     -33.144  10.937  25.925  0.00  0.00     0.036 H 
BRANCH  49  52
ATOM     52  C22 non d ame     -33.025  13.061  25.899  0.00  0.00     0.018 C 
ATOM     53  H33 non d ame     -33.598  13.209  24.985  0.00  0.00     0.048 H 
ATOM     54  H34 non d ame     -33.067  13.804  26.696  0.00  0.00     0.048 H 
BRANCH  52  55
ATOM     55  C23 non d ame     -31.535  12.986  25.463  0.00  0.00     0.259 C 
ATOM     56  O7  non d ame     -31.087  11.978  25.019  0.00  0.00    -0.265 OA
BRANCH  55  57
ATOM     57  O8  non d ame     -30.706  14.132  25.614  0.00  0.00    -0.317 OA
BRANCH  57  58
ATOM     58  C29 non d ame     -31.259  15.329  25.058  0.00  0.00     0.052 C 
ATOM     59  H47 non d ame     -32.330  15.148  24.976  0.00  0.00     0.082 H 
ATOM     60  H48 non d ame     -30.888  16.142  25.679  0.00  0.00     0.082 H 
BRANCH  58  61
ATOM     61  C35 non d ame     -30.680  15.503  23.627  0.00  0.00    -0.034 A 
ATOM     62  C30 non d ame     -29.378  15.100  23.350  0.00  0.00    -0.075 A 
ATOM     63  C31 non d ame     -28.858  15.257  22.066  0.00  0.00    -0.082 A 
ATOM     64  H49 non d ame     -28.764  14.663  24.137  0.00  0.00     0.084 H 
ATOM     65  C32 non d ame     -29.645  15.820  21.058  0.00  0.00    -0.083 A 
ATOM     66  H50 non d ame     -27.837  14.939  21.850  0.00  0.00     0.083 H 
ATOM     67  C33 non d ame     -30.943  16.224  21.341  0.00  0.00    -0.082 A 
ATOM     68  H51 non d ame     -29.246  15.946  20.051  0.00  0.00     0.083 H 
ATOM     69  C34 non d ame     -31.467  16.068  22.622  0.00  0.00    -0.075 A 
ATOM     70  H52 non d ame     -31.554  16.666  20.553  0.00  0.00     0.083 H 
ATOM     71  H53 non d ame     -32.488  16.385  22.837  0.00  0.00     0.084 H 
ENDBRANCH  58  61
ENDBRANCH  57  58
ENDBRANCH  55  57
ENDBRANCH  52  55
ENDBRANCH  49  52
ENDBRANCH  47  49
BRANCH  47  72
ATOM     72  C24 non d ame     -35.405  10.272  25.770  0.00  0.00    -0.039 C 
ATOM     73  H35 non d ame     -36.196  10.487  25.051  0.00  0.00     0.036 H 
ATOM     74  H36 non d ame     -34.455   9.861  25.427  0.00  0.00     0.036 H 
BRANCH  72  75
ATOM     75  C25 non d ame     -36.006   9.246  26.842  0.00  0.00    -0.001 C 
ATOM     76  C26 non d ame     -36.161   9.987  28.301  0.00  0.00    -0.035 C 
ATOM     77  C27 non d ame     -35.568   9.220  29.247  0.00  0.00     0.085 C 
ATOM     78  H38 non d ame     -35.577  10.908  28.317  0.00  0.00     0.036 H 
ATOM     79  H39 non d ame     -37.208  10.001  28.605  0.00  0.00     0.036 H 
ATOM     80  N5  non d ame     -34.739   8.187  28.520  0.00  0.00    -0.049 N 
ATOM     81  H40 non d ame     -34.903   9.891  29.791  0.00  0.00     0.075 H 
ATOM     82  H41 non d ame     -36.382   8.719  29.768  0.00  0.00     0.075 H 
ATOM     83  C28 non d ame     -35.238   8.217  26.985  0.00  0.00     0.193 C 
ATOM     84  H42 non d ame     -33.784   8.512  28.554  0.00  0.00     0.280 HD
ATOM     85  H43 non d ame     -34.984   7.293  28.921  0.00  0.00     0.280 HD
ATOM     86  H44 non d ame     -35.887   7.431  26.599  0.00  0.00     0.129 H 
ATOM     87  H37 non d ame     -36.877   8.714  26.461  0.00  0.00     0.046 H 
BRANCH  83  88
ATOM     88  O6  non d ame     -34.116   8.255  26.102  0.00  0.00    -0.369 OA
ATOM     89  H45 non d ame     -33.381   7.779  26.498  0.00  0.00     0.212 HD
ENDBRANCH  83  88
ENDBRANCH  72  75
ENDBRANCH  47  72
ENDBRANCH  45  47
ENDBRANCH   1  43
BRANCH   1  90
ATOM     90  C16 non d ame     -36.968  14.426  23.702  0.00  0.00    -0.035 C 
ATOM     91  H21 non d ame     -36.532  15.368  23.373  0.00  0.00     0.037 H 
ATOM     92  H22 non d ame     -36.370  13.515  23.694  0.00  0.00     0.037 H 
BRANCH  90  93
ATOM     93  C17 non d ame     -38.193  14.159  22.770  0.00  0.00    -0.059 C 
ATOM     94  H23 non d ame     -38.969  14.879  23.030  0.00  0.00     0.038 H 
BRANCH  93  95
ATOM     95  C18 non d ame     -37.842  14.363  21.262  0.00  0.00    -0.073 C 
ATOM     96  H24 non d ame     -38.695  14.076  20.647  0.00  0.00     0.028 H 
ATOM     97  H25 non d ame     -37.604  15.412  21.083  0.00  0.00     0.028 H 
ATOM     98  H26 non d ame     -36.982  13.745  21.002  0.00  0.00     0.028 H 
ENDBRANCH  93  95
BRANCH  93  99
ATOM     99  C19 non d ame     -38.769  12.761  23.010  0.00  0.00    -0.073 C 
ATOM    100  H27 non d ame     -37.972  12.092  23.338  0.00  0.00     0.028 H 
ATOM    101  H28 non d ame     -39.539  12.811  23.780  0.00  0.00     0.028 H 
ATOM    102  H29 non d ame     -39.204  12.383  22.085  0.00  0.00     0.028 H 
ENDBRANCH  93  99
ENDBRANCH  90  93
ENDBRANCH   1  90
TORSDOF 26
ENDMDL
MODEL 6
REMARK VINA RESULT:      -7.1      2.858      5.384
REMARK  26 active torsions:
REMARK  status: ('A' for Active; 'I' for Inactive)
REMARK    1  A    between atoms: C2_2  and  C3_3 
REMARK    2  A    between atoms: C4_6  and  C5_7 
REMARK       I    between atoms: C5_7  and  N2_9 
REMARK    3  A    between atoms: N2_9  and  C6_10 
REMARK    4  A    between atoms: C6_10  and  C7_11 
REMARK    5  A    between atoms: C6_10  and  C8_13 
REMARK       I    between atoms: C7_11  and  N3_14 
REMARK    6  A    between atoms: N3_14  and  C9_15 
REMARK    7  A    between atoms: C9_15  and  C10_16 
REMARK    8  A    between atoms: C9_15  and  C11_18 
REMARK       I    between atoms: C10_16  and  N4_21 
REMARK    9  A    between atoms: C11_18  and  C12_19 
REMARK   10  A    between atoms: C11_18  and  C13_20 
REMARK   11  A    between atoms: N4_21  and  C14_22 
REMARK   12  A    between atoms: C14_22  and  C15_23 
REMARK   13  A    between atoms: C14_22  and  C16_25 
REMARK       I    between atoms: C15_23  and  N6_40 
REMARK   14  A    between atoms: C16_25  and  C17_26 
REMARK   15  A    between atoms: C17_26  and  C18_27 
REMARK   16  A    between atoms: C17_26  and  C19_28 
REMARK   17  A    between atoms: C20_29  and  C21_30 
REMARK   18  A    between atoms: C20_29  and  C24_33 
REMARK   19  A    between atoms: C20_29  and  N6_40 
REMARK   20  A    between atoms: C21_30  and  C22_31 
REMARK   21  A    between atoms: C22_31  and  C23_32 
REMARK   22  A    between atoms: C23_32  and  O8_43 
REMARK   23  A    between atoms: C24_33  and  C25_34 
REMARK   24  A    between atoms: C28_38  and  O6_39 
REMARK   25  A    between atoms: C29_42  and  O8_43 
REMARK   26  A    between atoms: C29_42  and  C35_49 
ROOT
ATOM      1  C14 non d ame     -36.113  12.989  26.149  0.00  0.00     0.089 C 
ATOM      2  H20 non d ame     -36.875  12.809  26.907  0.00  0.00     0.087 H 
ENDROOT
BRANCH   1   3
ATOM      3  N4  non d ame     -35.844  14.419  26.129  0.00  0.00    -0.346 N 
ATOM      4  C10 non d ame     -36.914  15.401  26.534  0.00  0.00     0.241 C 
ATOM      5  O4  non d ame     -37.985  15.017  26.872  0.00  0.00    -0.271 OA
ATOM      6  H19 non d ame     -34.927  14.725  25.836  0.00  0.00     0.163 HD
BRANCH   4   7
ATOM      7  C9  non d ame     -36.617  16.878  26.512  0.00  0.00     0.092 C 
ATOM      8  H11 non d ame     -36.961  17.327  27.443  0.00  0.00     0.088 H 
BRANCH   7   9
ATOM      9  N3  non d ame     -35.167  17.084  26.441  0.00  0.00    -0.346 N 
ATOM     10  C7  non d ame     -34.425  17.403  27.635  0.00  0.00     0.240 C 
ATOM     11  O3  non d ame     -34.979  17.498  28.662  0.00  0.00    -0.271 OA
ATOM     12  H10 non d ame     -34.677  17.007  25.561  0.00  0.00     0.163 HD
BRANCH  10  13
ATOM     13  C6  non d ame     -32.883  17.625  27.553  0.00  0.00     0.086 C 
ATOM     14  H6  non d ame     -32.327  16.971  28.224  0.00  0.00     0.086 H 
BRANCH  13  15
ATOM     15  N2  non d ame     -32.434  17.318  26.205  0.00  0.00    -0.343 N 
ATOM     16  C5  non d ame     -31.759  16.045  25.942  0.00  0.00     0.273 C 
ATOM     17  O2  non d ame     -31.580  15.276  26.822  0.00  0.00    -0.266 OA
ATOM     18  H5  non d ame     -32.588  17.982  25.460  0.00  0.00     0.163 HD
BRANCH  16  19
ATOM     19  C4  non d ame     -31.279  15.708  24.522  0.00  0.00     0.154 A 
ATOM     20  C1  non d ame     -30.577  14.534  24.102  0.00  0.00    -0.017 A 
ATOM     21  C2  non d ame     -30.372  14.709  22.716  0.00  0.00     0.077 A 
ATOM     22  H1  non d ame     -30.265  13.685  24.711  0.00  0.00     0.091 H 
ATOM     23  O1  non d ame     -30.899  15.851  22.387  0.00  0.00    -0.218 OA
ATOM     24  N1  non d ame     -31.435  16.453  23.425  0.00  0.00    -0.123 NA
BRANCH  21  25
ATOM     25  C3  non d ame     -29.666  13.738  21.779  0.00  0.00    -0.029 C 
ATOM     26  H2  non d ame     -29.540  14.203  20.802  0.00  0.00     0.036 H 
ATOM     27  H3  non d ame     -28.687  13.486  22.188  0.00  0.00     0.036 H 
ATOM     28  H4  non d ame     -30.261  12.832  21.677  0.00  0.00     0.036 H 
ENDBRANCH  21  25
ENDBRANCH  16  19
ENDBRANCH  13  15
BRANCH  13  29
ATOM     29  C8  non d ame     -32.560  19.058  27.892  0.00  0.00    -0.049 C 
ATOM     30  H7  non d ame     -32.089  19.537  27.034  0.00  0.00     0.030 H 
ATOM     31  H8  non d ame     -33.478  19.588  28.144  0.00  0.00     0.030 H 
ATOM     32  H9  non d ame     -31.878  19.085  28.743  0.00  0.00     0.030 H 
ENDBRANCH  13  29
ENDBRANCH  10  13
ENDBRANCH   7   9
BRANCH   7  33
ATOM     33  C11 non d ame     -37.292  17.523  25.265  0.00  0.00    -0.033 C 
ATOM     34  H12 non d ame     -38.339  17.697  25.512  0.00  0.00     0.042 H 
BRANCH  33  35
ATOM     35  C12 non d ame     -36.653  18.906  24.927  0.00  0.00    -0.071 C 
ATOM     36  H13 non d ame     -37.408  19.556  24.484  0.00  0.00     0.028 H 
ATOM     37  H14 non d ame     -36.269  19.362  25.838  0.00  0.00     0.028 H 
ATOM     38  H15 non d ame     -35.837  18.765  24.218  0.00  0.00     0.028 H 
ENDBRANCH  33  35
BRANCH  33  39
ATOM     39  C13 non d ame     -37.238  16.557  24.038  0.00  0.00    -0.071 C 
ATOM     40  H16 non d ame     -38.160  15.978  23.991  0.00  0.00     0.028 H 
ATOM     41  H17 non d ame     -37.125  17.139  23.123  0.00  0.00     0.028 H 
ATOM     42  H18 non d ame     -36.390  15.881  24.144  0.00  0.00     0.028 H 
ENDBRANCH  33  39
ENDBRANCH   7  33
ENDBRANCH   4   7
ENDBRANCH   1   3
BRANCH   1  43
ATOM     43  C15 non d ame     -34.785  12.240  26.463  0.00  0.00     0.240 C 
ATOM     44  O5  non d ame     -33.756  12.662  26.045  0.00  0.00    -0.271 OA
ATOM     45  N6  non d ame     -34.796  11.002  27.293  0.00  0.00    -0.355 N 
ATOM     46  H46 non d ame     -35.665  10.637  27.658  0.00  0.00     0.162 HD
BRANCH  45  47
ATOM     47  C20 non d ame     -33.526  10.303  27.583  0.00  0.00     0.013 C 
ATOM     48  H30 non d ame     -32.734  10.803  27.025  0.00  0.00     0.072 H 
BRANCH  47  49
ATOM     49  C21 non d ame     -33.637   8.861  27.144  0.00  0.00    -0.038 C 
ATOM     50  H31 non d ame     -32.998   8.770  26.266  0.00  0.00     0.036 H 
ATOM     51  H32 non d ame     -33.430   8.266  28.034  0.00  0.00     0.036 H 
BRANCH  49  52
ATOM     52  C22 non d ame     -35.063   8.481  26.688  0.00  0.00     0.018 C 
ATOM     53  H33 non d ame     -35.341   7.612  27.282  0.00  0.00     0.048 H 
ATOM     54  H34 non d ame     -35.648   9.399  26.757  0.00  0.00     0.048 H 
BRANCH  52  55
ATOM     55  C23 non d ame     -35.146   8.031  25.203  0.00  0.00     0.259 C 
ATOM     56  O7  non d ame     -36.200   7.923  24.664  0.00  0.00    -0.265 OA
BRANCH  55  57
ATOM     57  O8  non d ame     -33.948   7.736  24.496  0.00  0.00    -0.317 OA
BRANCH  57  58
ATOM     58  C29 non d ame     -33.840   8.395  23.231  0.00  0.00     0.052 C 
ATOM     59  H47 non d ame     -33.856   7.602  22.483  0.00  0.00     0.082 H 
ATOM     60  H48 non d ame     -34.613   9.161  23.230  0.00  0.00     0.082 H 
BRANCH  58  61
ATOM     61  C35 non d ame     -32.456   9.096  23.174  0.00  0.00    -0.034 A 
ATOM     62  C30 non d ame     -32.193  10.185  23.999  0.00  0.00    -0.075 A 
ATOM     63  C31 non d ame     -30.950  10.816  23.947  0.00  0.00    -0.082 A 
ATOM     64  H49 non d ame     -32.959  10.545  24.685  0.00  0.00     0.084 H 
ATOM     65  C32 non d ame     -29.970  10.354  23.065  0.00  0.00    -0.083 A 
ATOM     66  H50 non d ame     -30.746  11.668  24.597  0.00  0.00     0.083 H 
ATOM     67  C33 non d ame     -30.238   9.270  22.241  0.00  0.00    -0.082 A 
ATOM     68  H51 non d ame     -28.995  10.841  23.019  0.00  0.00     0.083 H 
ATOM     69  C34 non d ame     -31.478   8.636  22.291  0.00  0.00    -0.075 A 
ATOM     70  H52 non d ame     -29.472   8.914  21.552  0.00  0.00     0.083 H 
ATOM     71  H53 non d ame     -31.681   7.783  21.642  0.00  0.00     0.084 H 
ENDBRANCH  58  61
ENDBRANCH  57  58
ENDBRANCH  55  57
ENDBRANCH  52  55
ENDBRANCH  49  52
ENDBRANCH  47  49
BRANCH  47  72
ATOM     72  C24 non d ame     -33.236  10.360  29.082  0.00  0.00    -0.039 C 
ATOM     73  H35 non d ame     -34.192  10.166  29.569  0.00  0.00     0.036 H 
ATOM     74  H36 non d ame     -32.397   9.683  29.241  0.00  0.00     0.036 H 
BRANCH  72  75
ATOM     75  C25 non d ame     -32.759  11.819  29.538  0.00  0.00    -0.001 C 
ATOM     76  C26 non d ame     -31.409  12.253  28.707  0.00  0.00    -0.035 C 
ATOM     77  C27 non d ame     -30.464  12.659  29.589  0.00  0.00     0.085 C 
ATOM     78  H38 non d ame     -30.960  11.377  28.239  0.00  0.00     0.036 H 
ATOM     79  H39 non d ame     -31.605  13.147  28.115  0.00  0.00     0.036 H 
ATOM     80  N5  non d ame     -30.930  12.232  30.961  0.00  0.00    -0.049 N 
ATOM     81  H40 non d ame     -29.564  12.100  29.329  0.00  0.00     0.075 H 
ATOM     82  H41 non d ame     -30.464  13.746  29.536  0.00  0.00     0.075 H 
ATOM     83  C28 non d ame     -32.490  11.848  30.801  0.00  0.00     0.193 C 
ATOM     84  H42 non d ame     -30.415  11.395  31.191  0.00  0.00     0.280 HD
ATOM     85  H43 non d ame     -30.858  13.048  31.552  0.00  0.00     0.280 HD
ATOM     86  H44 non d ame     -33.266  12.529  31.153  0.00  0.00     0.129 H 
ATOM     87  H37 non d ame     -33.581  12.535  29.557  0.00  0.00     0.046 H 
BRANCH  83  88
ATOM     88  O6  non d ame     -32.758  10.599  31.439  0.00  0.00    -0.369 OA
ATOM     89  H45 non d ame     -33.580  10.236  31.100  0.00  0.00     0.212 HD
ENDBRANCH  83  88
ENDBRANCH  72  75
ENDBRANCH  47  72
ENDBRANCH  45  47
ENDBRANCH   1  43
BRANCH   1  90
ATOM     90  C16 non d ame     -36.631  12.561  24.785  0.00  0.00    -0.035 C 
ATOM     91  H21 non d ame     -37.131  13.438  24.379  0.00  0.00     0.037 H 
ATOM     92  H22 non d ame     -35.769  12.136  24.270  0.00  0.00     0.037 H 
BRANCH  90  93
ATOM     93  C17 non d ame     -37.708  11.431  24.851  0.00  0.00    -0.059 C 
ATOM     94  H23 non d ame     -37.331  10.654  25.516  0.00  0.00     0.038 H 
BRANCH  93  95
ATOM     95  C18 non d ame     -39.063  11.942  25.437  0.00  0.00    -0.073 C 
ATOM     96  H24 non d ame     -39.595  11.111  25.900  0.00  0.00     0.028 H 
ATOM     97  H25 non d ame     -38.869  12.710  26.186  0.00  0.00     0.028 H 
ATOM     98  H26 non d ame     -39.670  12.361  24.635  0.00  0.00     0.028 H 
ENDBRANCH  93  95
BRANCH  93  99
ATOM     99  C19 non d ame     -37.916  10.792  23.476  0.00  0.00    -0.073 C 
ATOM    100  H27 non d ame     -38.237   9.758  23.601  0.00  0.00     0.028 H 
ATOM    101  H28 non d ame     -38.679  11.346  22.929  0.00  0.00     0.028 H 
ATOM    102  H29 non d ame     -36.979  10.817  22.918  0.00  0.00     0.028 H 
ENDBRANCH  93  99
ENDBRANCH  90  93
ENDBRANCH   1  90
TORSDOF 26
ENDMDL
MODEL 7
REMARK VINA RESULT:      -7.1      3.550      7.282
REMARK  26 active torsions:
REMARK  status: ('A' for Active; 'I' for Inactive)
REMARK    1  A    between atoms: C2_2  and  C3_3 
REMARK    2  A    between atoms: C4_6  and  C5_7 
REMARK       I    between atoms: C5_7  and  N2_9 
REMARK    3  A    between atoms: N2_9  and  C6_10 
REMARK    4  A    between atoms: C6_10  and  C7_11 
REMARK    5  A    between atoms: C6_10  and  C8_13 
REMARK       I    between atoms: C7_11  and  N3_14 
REMARK    6  A    between atoms: N3_14  and  C9_15 
REMARK    7  A    between atoms: C9_15  and  C10_16 
REMARK    8  A    between atoms: C9_15  and  C11_18 
REMARK       I    between atoms: C10_16  and  N4_21 
REMARK    9  A    between atoms: C11_18  and  C12_19 
REMARK   10  A    between atoms: C11_18  and  C13_20 
REMARK   11  A    between atoms: N4_21  and  C14_22 
REMARK   12  A    between atoms: C14_22  and  C15_23 
REMARK   13  A    between atoms: C14_22  and  C16_25 
REMARK       I    between atoms: C15_23  and  N6_40 
REMARK   14  A    between atoms: C16_25  and  C17_26 
REMARK   15  A    between atoms: C17_26  and  C18_27 
REMARK   16  A    between atoms: C17_26  and  C19_28 
REMARK   17  A    between atoms: C20_29  and  C21_30 
REMARK   18  A    between atoms: C20_29  and  C24_33 
REMARK   19  A    between atoms: C20_29  and  N6_40 
REMARK   20  A    between atoms: C21_30  and  C22_31 
REMARK   21  A    between atoms: C22_31  and  C23_32 
REMARK   22  A    between atoms: C23_32  and  O8_43 
REMARK   23  A    between atoms: C24_33  and  C25_34 
REMARK   24  A    between atoms: C28_38  and  O6_39 
REMARK   25  A    between atoms: C29_42  and  O8_43 
REMARK   26  A    between atoms: C29_42  and  C35_49 
ROOT
ATOM      1  C14 non d ame     -32.216  14.615  27.366  0.00  0.00     0.089 C 
ATOM      2  H20 non d ame     -31.220  15.019  27.548  0.00  0.00     0.087 H 
ENDROOT
BRANCH   1   3
ATOM      3  N4  non d ame     -33.119  15.741  27.184  0.00  0.00    -0.346 N 
ATOM      4  C10 non d ame     -32.747  16.875  26.263  0.00  0.00     0.241 C 
ATOM      5  O4  non d ame     -31.714  16.860  25.679  0.00  0.00    -0.271 OA
ATOM      6  H19 non d ame     -33.992  15.736  27.692  0.00  0.00     0.163 HD
BRANCH   4   7
ATOM      7  C9  non d ame     -33.696  18.031  26.083  0.00  0.00     0.092 C 
ATOM      8  H11 non d ame     -33.531  18.482  25.105  0.00  0.00     0.088 H 
BRANCH   7   9
ATOM      9  N3  non d ame     -35.077  17.538  26.106  0.00  0.00    -0.346 N 
ATOM     10  C7  non d ame     -36.109  18.253  25.396  0.00  0.00     0.240 C 
ATOM     11  O3  non d ame     -35.846  19.227  24.802  0.00  0.00    -0.271 OA
ATOM     12  H10 non d ame     -35.319  16.701  26.615  0.00  0.00     0.163 HD
BRANCH  10  13
ATOM     13  C6  non d ame     -37.577  17.726  25.426  0.00  0.00     0.086 C 
ATOM     14  H6  non d ame     -38.253  18.329  24.820  0.00  0.00     0.086 H 
BRANCH  13  15
ATOM     15  N2  non d ame     -37.607  16.383  24.872  0.00  0.00    -0.343 N 
ATOM     16  C5  non d ame     -37.925  16.194  23.455  0.00  0.00     0.273 C 
ATOM     17  O2  non d ame     -38.158  17.128  22.769  0.00  0.00    -0.266 OA
ATOM     18  H5  non d ame     -37.410  15.590  25.466  0.00  0.00     0.163 HD
BRANCH  16  19
ATOM     19  C4  non d ame     -37.960  14.778  22.856  0.00  0.00     0.154 A 
ATOM     20  C1  non d ame     -38.890  14.269  21.896  0.00  0.00    -0.017 A 
ATOM     21  C2  non d ame     -38.492  12.931  21.681  0.00  0.00     0.077 A 
ATOM     22  H1  non d ame     -39.725  14.790  21.428  0.00  0.00     0.091 H 
ATOM     23  O1  non d ame     -37.454  12.709  22.432  0.00  0.00    -0.218 OA
ATOM     24  N1  non d ame     -37.124  13.772  23.128  0.00  0.00    -0.123 NA
BRANCH  21  25
ATOM     25  C3  non d ame     -39.155  11.933  20.740  0.00  0.00    -0.029 C 
ATOM     26  H2  non d ame     -38.389  11.362  20.217  0.00  0.00     0.036 H 
ATOM     27  H3  non d ame     -39.783  11.253  21.316  0.00  0.00     0.036 H 
ATOM     28  H4  non d ame     -39.768  12.468  20.015  0.00  0.00     0.036 H 
ENDBRANCH  21  25
ENDBRANCH  16  19
ENDBRANCH  13  15
BRANCH  13  29
ATOM     29  C8  non d ame     -38.079  17.711  26.847  0.00  0.00    -0.049 C 
ATOM     30  H7  non d ame     -37.279  17.391  27.513  0.00  0.00     0.030 H 
ATOM     31  H8  non d ame     -38.406  18.712  27.128  0.00  0.00     0.030 H 
ATOM     32  H9  non d ame     -38.918  17.018  26.928  0.00  0.00     0.030 H 
ENDBRANCH  13  29
ENDBRANCH  10  13
ENDBRANCH   7   9
BRANCH   7  33
ATOM     33  C11 non d ame     -33.494  19.052  27.242  0.00  0.00    -0.033 C 
ATOM     34  H12 non d ame     -32.638  18.719  27.828  0.00  0.00     0.042 H 
BRANCH  33  35
ATOM     35  C12 non d ame     -33.161  20.474  26.693  0.00  0.00    -0.071 C 
ATOM     36  H13 non d ame     -32.930  21.140  27.525  0.00  0.00     0.028 H 
ATOM     37  H14 non d ame     -32.303  20.415  26.025  0.00  0.00     0.028 H 
ATOM     38  H15 non d ame     -34.021  20.863  26.147  0.00  0.00     0.028 H 
ENDBRANCH  33  35
BRANCH  33  39
ATOM     39  C13 non d ame     -34.741  19.085  28.182  0.00  0.00    -0.071 C 
ATOM     40  H16 non d ame     -34.505  18.575  29.116  0.00  0.00     0.028 H 
ATOM     41  H17 non d ame     -35.013  20.120  28.391  0.00  0.00     0.028 H 
ATOM     42  H18 non d ame     -35.577  18.582  27.695  0.00  0.00     0.028 H 
ENDBRANCH  33  39
ENDBRANCH   7  33
ENDBRANCH   4   7
ENDBRANCH   1   3
BRANCH   1  43
ATOM     43  C15 non d ame     -32.266  13.729  26.087  0.00  0.00     0.240 C 
ATOM     44  O5  non d ame     -33.247  13.109  25.836  0.00  0.00    -0.271 OA
ATOM     45  N6  non d ame     -31.092  13.663  25.171  0.00  0.00    -0.355 N 
ATOM     46  H46 non d ame     -30.254  14.190  25.371  0.00  0.00     0.162 HD
BRANCH  45  47
ATOM     47  C20 non d ame     -31.156  12.817  23.959  0.00  0.00     0.013 C 
ATOM     48  H30 non d ame     -32.171  12.871  23.566  0.00  0.00     0.072 H 
BRANCH  47  49
ATOM     49  C21 non d ame     -30.818  11.390  24.327  0.00  0.00    -0.038 C 
ATOM     50  H31 non d ame     -29.821  11.427  24.767  0.00  0.00     0.036 H 
ATOM     51  H32 non d ame     -31.662  11.031  24.917  0.00  0.00     0.036 H 
BRANCH  49  52
ATOM     52  C22 non d ame     -30.720  10.461  23.097  0.00  0.00     0.018 C 
ATOM     53  H33 non d ame     -30.999  11.074  22.241  0.00  0.00     0.048 H 
ATOM     54  H34 non d ame     -29.728  10.012  23.146  0.00  0.00     0.048 H 
BRANCH  52  55
ATOM     55  C23 non d ame     -31.727   9.279  23.124  0.00  0.00     0.259 C 
ATOM     56  O7  non d ame     -32.263   8.920  22.125  0.00  0.00    -0.265 OA
BRANCH  55  57
ATOM     57  O8  non d ame     -32.015   8.635  24.360  0.00  0.00    -0.317 OA
BRANCH  57  58
ATOM     58  C29 non d ame     -33.411   8.539  24.655  0.00  0.00     0.052 C 
ATOM     59  H47 non d ame     -33.919   9.093  23.866  0.00  0.00     0.082 H 
ATOM     60  H48 non d ame     -33.611   7.476  24.791  0.00  0.00     0.082 H 
BRANCH  58  61
ATOM     61  C35 non d ame     -33.665   9.261  26.005  0.00  0.00    -0.034 A 
ATOM     62  C30 non d ame     -34.902   9.847  26.259  0.00  0.00    -0.075 A 
ATOM     63  C31 non d ame     -35.130  10.497  27.471  0.00  0.00    -0.082 A 
ATOM     64  H49 non d ame     -35.691   9.799  25.509  0.00  0.00     0.084 H 
ATOM     65  C32 non d ame     -34.116  10.561  28.431  0.00  0.00    -0.083 A 
ATOM     66  H50 non d ame     -36.101  10.954  27.668  0.00  0.00     0.083 H 
ATOM     67  C33 non d ame     -32.883   9.978  28.171  0.00  0.00    -0.082 A 
ATOM     68  H51 non d ame     -34.287  11.067  29.382  0.00  0.00     0.083 H 
ATOM     69  C34 non d ame     -32.651   9.327  26.962  0.00  0.00    -0.075 A 
ATOM     70  H52 non d ame     -32.093  10.032  28.922  0.00  0.00     0.083 H 
ATOM     71  H53 non d ame     -31.681   8.870  26.766  0.00  0.00     0.084 H 
ENDBRANCH  58  61
ENDBRANCH  57  58
ENDBRANCH  55  57
ENDBRANCH  52  55
ENDBRANCH  49  52
ENDBRANCH  47  49
BRANCH  47  72
ATOM     72  C24 non d ame     -30.158  13.327  22.921  0.00  0.00    -0.039 C 
ATOM     73  H35 non d ame     -29.178  13.238  23.393  0.00  0.00     0.036 H 
ATOM     74  H36 non d ame     -30.376  12.768  22.011  0.00  0.00     0.036 H 
BRANCH  72  75
ATOM     75  C25 non d ame     -30.385  14.877  22.591  0.00  0.00    -0.001 C 
ATOM     76  C26 non d ame     -31.060  15.039  21.101  0.00  0.00    -0.035 C 
ATOM     77  C27 non d ame     -30.329  15.926  20.384  0.00  0.00     0.085 C 
ATOM     78  H38 non d ame     -30.956  14.111  20.540  0.00  0.00     0.036 H 
ATOM     79  H39 non d ame     -32.036  15.520  21.182  0.00  0.00     0.036 H 
ATOM     80  N5  non d ame     -29.033  16.135  21.131  0.00  0.00    -0.049 N 
ATOM     81  H40 non d ame     -30.118  15.430  19.436  0.00  0.00     0.075 H 
ATOM     82  H41 non d ame     -30.901  16.853  20.398  0.00  0.00     0.075 H 
ATOM     83  C28 non d ame     -29.269  15.527  22.607  0.00  0.00     0.193 C 
ATOM     84  H42 non d ame     -28.338  15.575  20.660  0.00  0.00     0.280 HD
ATOM     85  H43 non d ame     -28.909  17.134  21.210  0.00  0.00     0.280 HD
ATOM     86  H44 non d ame     -29.438  16.189  23.458  0.00  0.00     0.129 H 
ATOM     87  H37 non d ame     -30.864  15.408  23.413  0.00  0.00     0.046 H 
BRANCH  83  88
ATOM     88  O6  non d ame     -28.168  14.697  22.981  0.00  0.00    -0.369 OA
ATOM     89  H45 non d ame     -27.526  14.677  22.266  0.00  0.00     0.212 HD
ENDBRANCH  83  88
ENDBRANCH  72  75
ENDBRANCH  47  72
ENDBRANCH  45  47
ENDBRANCH   1  43
BRANCH   1  90
ATOM     90  C16 non d ame     -32.670  13.802  28.568  0.00  0.00    -0.035 C 
ATOM     91  H21 non d ame     -33.500  14.361  28.997  0.00  0.00     0.037 H 
ATOM     92  H22 non d ame     -32.829  12.792  28.190  0.00  0.00     0.037 H 
BRANCH  90  93
ATOM     93  C17 non d ame     -31.589  13.688  29.690  0.00  0.00    -0.059 C 
ATOM     94  H23 non d ame     -32.108  13.511  30.632  0.00  0.00     0.038 H 
BRANCH  93  95
ATOM     95  C18 non d ame     -30.615  12.491  29.452  0.00  0.00    -0.073 C 
ATOM     96  H24 non d ame     -29.787  12.815  28.821  0.00  0.00     0.028 H 
ATOM     97  H25 non d ame     -30.227  12.142  30.409  0.00  0.00     0.028 H 
ATOM     98  H26 non d ame     -31.150  11.679  28.959  0.00  0.00     0.028 H 
ENDBRANCH  93  95
BRANCH  93  99
ATOM     99  C19 non d ame     -30.813  15.000  29.837  0.00  0.00    -0.073 C 
ATOM    100  H27 non d ame     -29.863  14.806  30.338  0.00  0.00     0.028 H 
ATOM    101  H28 non d ame     -30.623  15.423  28.851  0.00  0.00     0.028 H 
ATOM    102  H29 non d ame     -31.398  15.704  30.428  0.00  0.00     0.028 H 
ENDBRANCH  93  99
ENDBRANCH  90  93
ENDBRANCH   1  90
TORSDOF 26
ENDMDL
MODEL 8
REMARK VINA RESULT:      -7.0      2.498      5.298
REMARK  26 active torsions:
REMARK  status: ('A' for Active; 'I' for Inactive)
REMARK    1  A    between atoms: C2_2  and  C3_3 
REMARK    2  A    between atoms: C4_6  and  C5_7 
REMARK       I    between atoms: C5_7  and  N2_9 
REMARK    3  A    between atoms: N2_9  and  C6_10 
REMARK    4  A    between atoms: C6_10  and  C7_11 
REMARK    5  A    between atoms: C6_10  and  C8_13 
REMARK       I    between atoms: C7_11  and  N3_14 
REMARK    6  A    between atoms: N3_14  and  C9_15 
REMARK    7  A    between atoms: C9_15  and  C10_16 
REMARK    8  A    between atoms: C9_15  and  C11_18 
REMARK       I    between atoms: C10_16  and  N4_21 
REMARK    9  A    between atoms: C11_18  and  C12_19 
REMARK   10  A    between atoms: C11_18  and  C13_20 
REMARK   11  A    between atoms: N4_21  and  C14_22 
REMARK   12  A    between atoms: C14_22  and  C15_23 
REMARK   13  A    between atoms: C14_22  and  C16_25 
REMARK       I    between atoms: C15_23  and  N6_40 
REMARK   14  A    between atoms: C16_25  and  C17_26 
REMARK   15  A    between atoms: C17_26  and  C18_27 
REMARK   16  A    between atoms: C17_26  and  C19_28 
REMARK   17  A    between atoms: C20_29  and  C21_30 
REMARK   18  A    between atoms: C20_29  and  C24_33 
REMARK   19  A    between atoms: C20_29  and  N6_40 
REMARK   20  A    between atoms: C21_30  and  C22_31 
REMARK   21  A    between atoms: C22_31  and  C23_32 
REMARK   22  A    between atoms: C23_32  and  O8_43 
REMARK   23  A    between atoms: C24_33  and  C25_34 
REMARK   24  A    between atoms: C28_38  and  O6_39 
REMARK   25  A    between atoms: C29_42  and  O8_43 
REMARK   26  A    between atoms: C29_42  and  C35_49 
ROOT
ATOM      1  C14 non d ame     -36.003  11.045  25.285  0.00  0.00     0.089 C 
ATOM      2  H20 non d ame     -36.591  11.761  25.860  0.00  0.00     0.087 H 
ENDROOT
BRANCH   1   3
ATOM      3  N4  non d ame     -34.663  11.594  25.139  0.00  0.00    -0.346 N 
ATOM      4  C10 non d ame     -34.093  12.504  26.197  0.00  0.00     0.241 C 
ATOM      5  O4  non d ame     -34.732  12.782  27.158  0.00  0.00    -0.271 OA
ATOM      6  H19 non d ame     -34.137  11.348  24.313  0.00  0.00     0.163 HD
BRANCH   4   7
ATOM      7  C9  non d ame     -32.703  13.060  26.032  0.00  0.00     0.092 C 
ATOM      8  H11 non d ame     -32.093  12.760  26.884  0.00  0.00     0.088 H 
BRANCH   7   9
ATOM      9  N3  non d ame     -32.085  12.485  24.833  0.00  0.00    -0.346 N 
ATOM     10  C7  non d ame     -31.085  11.454  24.962  0.00  0.00     0.240 C 
ATOM     11  O3  non d ame     -30.764  11.076  26.022  0.00  0.00    -0.271 OA
ATOM     12  H10 non d ame     -32.351  12.802  23.912  0.00  0.00     0.163 HD
BRANCH  10  13
ATOM     13  C6  non d ame     -30.429  10.848  23.683  0.00  0.00     0.086 C 
ATOM     14  H6  non d ame     -29.442  10.427  23.874  0.00  0.00     0.086 H 
BRANCH  13  15
ATOM     15  N2  non d ame     -31.259   9.759  23.198  0.00  0.00    -0.343 N 
ATOM     16  C5  non d ame     -30.628   8.594  22.573  0.00  0.00     0.273 C 
ATOM     17  O2  non d ame     -29.453   8.544  22.463  0.00  0.00    -0.266 OA
ATOM     18  H5  non d ame     -32.263   9.811  23.293  0.00  0.00     0.163 HD
BRANCH  16  19
ATOM     19  C4  non d ame     -31.495   7.434  22.057  0.00  0.00     0.154 A 
ATOM     20  C1  non d ame     -31.730   6.178  22.700  0.00  0.00    -0.017 A 
ATOM     21  C2  non d ame     -32.585   5.475  21.822  0.00  0.00     0.077 A 
ATOM     22  H1  non d ame     -31.341   5.830  23.656  0.00  0.00     0.091 H 
ATOM     23  O1  non d ame     -32.810   6.246  20.799  0.00  0.00    -0.218 OA
ATOM     24  N1  non d ame     -32.184   7.395  20.913  0.00  0.00    -0.123 NA
BRANCH  21  25
ATOM     25  C3  non d ame     -33.142   4.074  22.035  0.00  0.00    -0.029 C 
ATOM     26  H2  non d ame     -34.222   4.087  21.890  0.00  0.00     0.036 H 
ATOM     27  H3  non d ame     -32.690   3.389  21.317  0.00  0.00     0.036 H 
ATOM     28  H4  non d ame     -32.915   3.742  23.047  0.00  0.00     0.036 H 
ENDBRANCH  21  25
ENDBRANCH  16  19
ENDBRANCH  13  15
BRANCH  13  29
ATOM     29  C8  non d ame     -30.305  11.915  22.624  0.00  0.00    -0.049 C 
ATOM     30  H7  non d ame     -30.218  11.447  21.645  0.00  0.00     0.030 H 
ATOM     31  H8  non d ame     -31.190  12.551  22.644  0.00  0.00     0.030 H 
ATOM     32  H9  non d ame     -29.418  12.519  22.819  0.00  0.00     0.030 H 
ENDBRANCH  13  29
ENDBRANCH  10  13
ENDBRANCH   7   9
BRANCH   7  33
ATOM     33  C11 non d ame     -32.779  14.608  25.881  0.00  0.00    -0.033 C 
ATOM     34  H12 non d ame     -33.018  15.022  26.860  0.00  0.00     0.042 H 
BRANCH  33  35
ATOM     35  C12 non d ame     -31.404  15.203  25.443  0.00  0.00    -0.071 C 
ATOM     36  H13 non d ame     -31.483  15.589  24.426  0.00  0.00     0.028 H 
ATOM     37  H14 non d ame     -31.126  16.012  26.117  0.00  0.00     0.028 H 
ATOM     38  H15 non d ame     -30.643  14.423  25.476  0.00  0.00     0.028 H 
ENDBRANCH  33  35
BRANCH  33  39
ATOM     39  C13 non d ame     -33.916  15.018  24.892  0.00  0.00    -0.071 C 
ATOM     40  H16 non d ame     -34.782  14.375  25.047  0.00  0.00     0.028 H 
ATOM     41  H17 non d ame     -34.197  16.057  25.071  0.00  0.00     0.028 H 
ATOM     42  H18 non d ame     -33.562  14.910  23.867  0.00  0.00     0.028 H 
ENDBRANCH  33  39
ENDBRANCH   7  33
ENDBRANCH   4   7
ENDBRANCH   1   3
BRANCH   1  43
ATOM     43  C15 non d ame     -35.897   9.666  25.999  0.00  0.00     0.240 C 
ATOM     44  O5  non d ame     -36.396   8.706  25.507  0.00  0.00    -0.271 OA
ATOM     45  N6  non d ame     -35.166   9.541  27.292  0.00  0.00    -0.355 N 
ATOM     46  H46 non d ame     -34.735  10.349  27.718  0.00  0.00     0.162 HD
BRANCH  45  47
ATOM     47  C20 non d ame     -35.075   8.223  27.958  0.00  0.00     0.013 C 
ATOM     48  H30 non d ame     -35.736   7.536  27.431  0.00  0.00     0.072 H 
BRANCH  47  49
ATOM     49  C21 non d ame     -35.511   8.359  29.399  0.00  0.00    -0.038 C 
ATOM     50  H31 non d ame     -36.581   8.152  29.403  0.00  0.00     0.036 H 
ATOM     51  H32 non d ame     -34.831   7.728  29.972  0.00  0.00     0.036 H 
BRANCH  49  52
ATOM     52  C22 non d ame     -35.340   9.794  29.944  0.00  0.00     0.018 C 
ATOM     53  H33 non d ame     -34.810  10.343  29.168  0.00  0.00     0.048 H 
ATOM     54  H34 non d ame     -36.335  10.111  30.255  0.00  0.00     0.048 H 
BRANCH  52  55
ATOM     55  C23 non d ame     -34.448   9.878  31.214  0.00  0.00     0.259 C 
ATOM     56  O7  non d ame     -34.740   9.277  32.197  0.00  0.00    -0.265 OA
BRANCH  55  57
ATOM     57  O8  non d ame     -33.283  10.695  31.194  0.00  0.00    -0.317 OA
BRANCH  57  58
ATOM     58  C29 non d ame     -32.565  10.656  29.958  0.00  0.00     0.052 C 
ATOM     59  H47 non d ame     -31.696  10.025  30.142  0.00  0.00     0.082 H 
ATOM     60  H48 non d ame     -33.295  10.374  29.201  0.00  0.00     0.082 H 
BRANCH  58  61
ATOM     61  C35 non d ame     -32.070  12.095  29.647  0.00  0.00    -0.034 A 
ATOM     62  C30 non d ame     -32.931  13.176  29.804  0.00  0.00    -0.075 A 
ATOM     63  C31 non d ame     -32.487  14.468  29.524  0.00  0.00    -0.082 A 
ATOM     64  H49 non d ame     -33.954  13.013  30.144  0.00  0.00     0.084 H 
ATOM     65  C32 non d ame     -31.177  14.676  29.085  0.00  0.00    -0.083 A 
ATOM     66  H50 non d ame     -33.164  15.314  29.650  0.00  0.00     0.083 H 
ATOM     67  C33 non d ame     -30.323  13.593  28.927  0.00  0.00    -0.082 A 
ATOM     68  H51 non d ame     -30.821  15.683  28.866  0.00  0.00     0.083 H 
ATOM     69  C34 non d ame     -30.762  12.301  29.207  0.00  0.00    -0.075 A 
ATOM     70  H52 non d ame     -29.301  13.758  28.582  0.00  0.00     0.083 H 
ATOM     71  H53 non d ame     -30.084  11.456  29.082  0.00  0.00     0.084 H 
ENDBRANCH  58  61
ENDBRANCH  57  58
ENDBRANCH  55  57
ENDBRANCH  52  55
ENDBRANCH  49  52
ENDBRANCH  47  49
BRANCH  47  72
ATOM     72  C24 non d ame     -33.635   7.718  27.905  0.00  0.00    -0.039 C 
ATOM     73  H35 non d ame     -33.171   8.250  27.074  0.00  0.00     0.036 H 
ATOM     74  H36 non d ame     -33.246   7.843  28.916  0.00  0.00     0.036 H 
BRANCH  72  75
ATOM     75  C25 non d ame     -33.567   6.155  27.562  0.00  0.00    -0.001 C 
ATOM     76  C26 non d ame     -34.113   5.277  28.840  0.00  0.00    -0.035 C 
ATOM     77  C27 non d ame     -33.196   4.326  29.141  0.00  0.00     0.085 C 
ATOM     78  H38 non d ame     -34.140   5.897  29.736  0.00  0.00     0.036 H 
ATOM     79  H39 non d ame     -34.992   4.700  28.551  0.00  0.00     0.036 H 
ATOM     80  N5  non d ame     -31.931   4.683  28.398  0.00  0.00    -0.049 N 
ATOM     81  H40 non d ame     -33.018   4.421  30.212  0.00  0.00     0.075 H 
ATOM     82  H41 non d ame     -33.596   3.397  28.736  0.00  0.00     0.075 H 
ATOM     83  C28 non d ame     -32.357   5.786  27.299  0.00  0.00     0.193 C 
ATOM     84  H42 non d ame     -31.318   5.119  29.070  0.00  0.00     0.280 HD
ATOM     85  H43 non d ame     -31.638   3.845  27.916  0.00  0.00     0.280 HD
ATOM     86  H44 non d ame     -32.458   5.511  26.249  0.00  0.00     0.129 H 
ATOM     87  H37 non d ame     -33.994   5.927  26.586  0.00  0.00     0.046 H 
BRANCH  83  88
ATOM     88  O6  non d ame     -31.442   6.883  27.321  0.00  0.00    -0.369 OA
ATOM     89  H45 non d ame     -31.030   6.939  28.187  0.00  0.00     0.212 HD
ENDBRANCH  83  88
ENDBRANCH  72  75
ENDBRANCH  47  72
ENDBRANCH  45  47
ENDBRANCH   1  43
BRANCH   1  90
ATOM     90  C16 non d ame     -36.618  10.861  23.908  0.00  0.00    -0.035 C 
ATOM     91  H21 non d ame     -35.851  11.181  23.204  0.00  0.00     0.037 H 
ATOM     92  H22 non d ame     -36.981   9.833  23.889  0.00  0.00     0.037 H 
BRANCH  90  93
ATOM     93  C17 non d ame     -37.860  11.773  23.650  0.00  0.00    -0.059 C 
ATOM     94  H23 non d ame     -38.392  11.881  24.596  0.00  0.00     0.038 H 
BRANCH  93  95
ATOM     95  C18 non d ame     -37.453  13.201  23.167  0.00  0.00    -0.073 C 
ATOM     96  H24 non d ame     -36.381  13.228  22.973  0.00  0.00     0.028 H 
ATOM     97  H25 non d ame     -37.992  13.443  22.251  0.00  0.00     0.028 H 
ATOM     98  H26 non d ame     -37.701  13.930  23.938  0.00  0.00     0.028 H 
ENDBRANCH  93  95
BRANCH  93  99
ATOM     99  C19 non d ame     -38.824  11.117  22.658  0.00  0.00    -0.073 C 
ATOM    100  H27 non d ame     -38.436  11.232  21.645  0.00  0.00     0.028 H 
ATOM    101  H28 non d ame     -38.921  10.056  22.891  0.00  0.00     0.028 H 
ATOM    102  H29 non d ame     -39.801  11.595  22.730  0.00  0.00     0.028 H 
ENDBRANCH  93  99
ENDBRANCH  90  93
ENDBRANCH   1  90
TORSDOF 26
ENDMDL
MODEL 9
REMARK VINA RESULT:      -6.9      2.499      6.634
REMARK  26 active torsions:
REMARK  status: ('A' for Active; 'I' for Inactive)
REMARK    1  A    between atoms: C2_2  and  C3_3 
REMARK    2  A    between atoms: C4_6  and  C5_7 
REMARK       I    between atoms: C5_7  and  N2_9 
REMARK    3  A    between atoms: N2_9  and  C6_10 
REMARK    4  A    between atoms: C6_10  and  C7_11 
REMARK    5  A    between atoms: C6_10  and  C8_13 
REMARK       I    between atoms: C7_11  and  N3_14 
REMARK    6  A    between atoms: N3_14  and  C9_15 
REMARK    7  A    between atoms: C9_15  and  C10_16 
REMARK    8  A    between atoms: C9_15  and  C11_18 
REMARK       I    between atoms: C10_16  and  N4_21 
REMARK    9  A    between atoms: C11_18  and  C12_19 
REMARK   10  A    between atoms: C11_18  and  C13_20 
REMARK   11  A    between atoms: N4_21  and  C14_22 
REMARK   12  A    between atoms: C14_22  and  C15_23 
REMARK   13  A    between atoms: C14_22  and  C16_25 
REMARK       I    between atoms: C15_23  and  N6_40 
REMARK   14  A    between atoms: C16_25  and  C17_26 
REMARK   15  A    between atoms: C17_26  and  C18_27 
REMARK   16  A    between atoms: C17_26  and  C19_28 
REMARK   17  A    between atoms: C20_29  and  C21_30 
REMARK   18  A    between atoms: C20_29  and  C24_33 
REMARK   19  A    between atoms: C20_29  and  N6_40 
REMARK   20  A    between atoms: C21_30  and  C22_31 
REMARK   21  A    between atoms: C22_31  and  C23_32 
REMARK   22  A    between atoms: C23_32  and  O8_43 
REMARK   23  A    between atoms: C24_33  and  C25_34 
REMARK   24  A    between atoms: C28_38  and  O6_39 
REMARK   25  A    between atoms: C29_42  and  O8_43 
REMARK   26  A    between atoms: C29_42  and  C35_49 
ROOT
ATOM      1  C14 non d ame     -36.156  11.256  26.068  0.00  0.00     0.089 C 
ATOM      2  H20 non d ame     -37.208  11.100  26.309  0.00  0.00     0.087 H 
ENDROOT
BRANCH   1   3
ATOM      3  N4  non d ame     -35.382  10.957  27.263  0.00  0.00    -0.346 N 
ATOM      4  C10 non d ame     -36.002  10.182  28.398  0.00  0.00     0.241 C 
ATOM      5  O4  non d ame     -37.128   9.811  28.328  0.00  0.00    -0.271 OA
ATOM      6  H19 non d ame     -34.428  11.284  27.305  0.00  0.00     0.163 HD
BRANCH   4   7
ATOM      7  C9  non d ame     -35.185   9.877  29.626  0.00  0.00     0.092 C 
ATOM      8  H11 non d ame     -34.660   8.933  29.482  0.00  0.00     0.088 H 
BRANCH   7   9
ATOM      9  N3  non d ame     -34.167  10.916  29.807  0.00  0.00    -0.346 N 
ATOM     10  C7  non d ame     -32.861  10.755  29.220  0.00  0.00     0.240 C 
ATOM     11  O3  non d ame     -32.611   9.794  28.599  0.00  0.00    -0.271 OA
ATOM     12  H10 non d ame     -34.368  11.749  30.342  0.00  0.00     0.163 HD
BRANCH  10  13
ATOM     13  C6  non d ame     -31.780  11.863  29.418  0.00  0.00     0.086 C 
ATOM     14  H6  non d ame     -30.926  11.743  28.752  0.00  0.00     0.086 H 
BRANCH  13  15
ATOM     15  N2  non d ame     -32.368  13.156  29.112  0.00  0.00    -0.343 N 
ATOM     16  C5  non d ame     -31.526  14.219  28.559  0.00  0.00     0.273 C 
ATOM     17  O2  non d ame     -30.376  14.025  28.368  0.00  0.00    -0.266 OA
ATOM     18  H5  non d ame     -33.351  13.314  29.281  0.00  0.00     0.163 HD
BRANCH  16  19
ATOM     19  C4  non d ame     -32.136  15.591  28.229  0.00  0.00     0.154 A 
ATOM     20  C1  non d ame     -32.356  16.149  26.931  0.00  0.00    -0.017 A 
ATOM     21  C2  non d ame     -32.932  17.416  27.174  0.00  0.00     0.077 A 
ATOM     22  H1  non d ame     -32.133  15.704  25.961  0.00  0.00     0.091 H 
ATOM     23  O1  non d ame     -33.028  17.558  28.463  0.00  0.00    -0.218 OA
ATOM     24  N1  non d ame     -32.569  16.505  29.101  0.00  0.00    -0.123 NA
BRANCH  21  25
ATOM     25  C3  non d ame     -33.362  18.428  26.120  0.00  0.00    -0.029 C 
ATOM     26  H2  non d ame     -32.485  18.793  25.587  0.00  0.00     0.036 H 
ATOM     27  H3  non d ame     -34.043  17.951  25.415  0.00  0.00     0.036 H 
ATOM     28  H4  non d ame     -33.867  19.264  26.603  0.00  0.00     0.036 H 
ENDBRANCH  21  25
ENDBRANCH  16  19
ENDBRANCH  13  15
BRANCH  13  29
ATOM     29  C8  non d ame     -31.291  11.842  30.844  0.00  0.00    -0.049 C 
ATOM     30  H7  non d ame     -31.780  11.033  31.385  0.00  0.00     0.030 H 
ATOM     31  H8  non d ame     -30.213  11.686  30.857  0.00  0.00     0.030 H 
ATOM     32  H9  non d ame     -31.527  12.794  31.323  0.00  0.00     0.030 H 
ENDBRANCH  13  29
ENDBRANCH  10  13
ENDBRANCH   7   9
BRANCH   7  33
ATOM     33  C11 non d ame     -36.117   9.845  30.873  0.00  0.00    -0.033 C 
ATOM     34  H12 non d ame     -37.049  10.341  30.601  0.00  0.00     0.042 H 
BRANCH  33  35
ATOM     35  C12 non d ame     -36.468   8.381  31.283  0.00  0.00    -0.071 C 
ATOM     36  H13 non d ame     -37.281   8.013  30.656  0.00  0.00     0.028 H 
ATOM     37  H14 non d ame     -35.592   7.746  31.151  0.00  0.00     0.028 H 
ATOM     38  H15 non d ame     -36.779   8.360  32.327  0.00  0.00     0.028 H 
ENDBRANCH  33  35
BRANCH  33  39
ATOM     39  C13 non d ame     -35.483  10.631  32.065  0.00  0.00    -0.071 C 
ATOM     40  H16 non d ame     -36.206  10.705  32.878  0.00  0.00     0.028 H 
ATOM     41  H17 non d ame     -34.594  10.105  32.416  0.00  0.00     0.028 H 
ATOM     42  H18 non d ame     -35.205  11.631  31.735  0.00  0.00     0.028 H 
ENDBRANCH  33  39
ENDBRANCH   7  33
ENDBRANCH   4   7
ENDBRANCH   1   3
BRANCH   1  43
ATOM     43  C15 non d ame     -35.673  10.324  24.919  0.00  0.00     0.240 C 
ATOM     44  O5  non d ame     -36.084  10.485  23.815  0.00  0.00    -0.271 OA
ATOM     45  N6  non d ame     -34.691   9.237  25.193  0.00  0.00    -0.355 N 
ATOM     46  H46 non d ame     -34.331   9.094  26.126  0.00  0.00     0.162 HD
BRANCH  45  47
ATOM     47  C20 non d ame     -34.241   8.361  24.089  0.00  0.00     0.013 C 
ATOM     48  H30 non d ame     -34.521   8.837  23.149  0.00  0.00     0.072 H 
BRANCH  47  49
ATOM     49  C21 non d ame     -34.920   7.016  24.211  0.00  0.00    -0.038 C 
ATOM     50  H31 non d ame     -35.984   7.209  24.072  0.00  0.00     0.036 H 
ATOM     51  H32 non d ame     -34.392   6.356  23.522  0.00  0.00     0.036 H 
BRANCH  49  52
ATOM     52  C22 non d ame     -34.768   6.392  25.616  0.00  0.00     0.018 C 
ATOM     53  H33 non d ame     -33.978   6.959  26.106  0.00  0.00     0.048 H 
ATOM     54  H34 non d ame     -35.772   6.375  26.041  0.00  0.00     0.048 H 
BRANCH  52  55
ATOM     55  C23 non d ame     -34.287   4.915  25.596  0.00  0.00     0.259 C 
ATOM     56  O7  non d ame     -34.033   4.377  24.566  0.00  0.00    -0.265 OA
BRANCH  55  57
ATOM     57  O8  non d ame     -34.165   4.205  26.823  0.00  0.00    -0.317 OA
BRANCH  57  58
ATOM     58  C29 non d ame     -32.986   4.525  27.567  0.00  0.00     0.052 C 
ATOM     59  H47 non d ame     -32.305   3.688  27.415  0.00  0.00     0.082 H 
ATOM     60  H48 non d ame     -32.699   5.527  27.249  0.00  0.00     0.082 H 
BRANCH  58  61
ATOM     61  C35 non d ame     -33.370   4.580  29.070  0.00  0.00    -0.034 A 
ATOM     62  C30 non d ame     -34.449   5.355  29.485  0.00  0.00    -0.075 A 
ATOM     63  C31 non d ame     -34.794   5.405  30.835  0.00  0.00    -0.082 A 
ATOM     64  H49 non d ame     -35.024   5.923  28.754  0.00  0.00     0.084 H 
ATOM     65  C32 non d ame     -34.054   4.678  31.772  0.00  0.00    -0.083 A 
ATOM     66  H50 non d ame     -35.641   6.012  31.158  0.00  0.00     0.083 H 
ATOM     67  C33 non d ame     -32.976   3.910  31.353  0.00  0.00    -0.082 A 
ATOM     68  H51 non d ame     -34.318   4.711  32.830  0.00  0.00     0.083 H 
ATOM     69  C34 non d ame     -32.629   3.855  30.005  0.00  0.00    -0.075 A 
ATOM     70  H52 non d ame     -32.399   3.345  32.087  0.00  0.00     0.083 H 
ATOM     71  H53 non d ame     -31.783   3.248  29.683  0.00  0.00     0.084 H 
ENDBRANCH  58  61
ENDBRANCH  57  58
ENDBRANCH  55  57
ENDBRANCH  52  55
ENDBRANCH  49  52
ENDBRANCH  47  49
BRANCH  47  72
ATOM     72  C24 non d ame     -32.727   8.177  24.161  0.00  0.00    -0.039 C 
ATOM     73  H35 non d ame     -32.473   8.274  25.217  0.00  0.00     0.036 H 
ATOM     74  H36 non d ame     -32.523   7.244  23.635  0.00  0.00     0.036 H 
BRANCH  72  75
ATOM     75  C25 non d ame     -31.951   9.340  23.379  0.00  0.00    -0.001 C 
ATOM     76  C26 non d ame     -30.851   8.684  22.349  0.00  0.00    -0.035 C 
ATOM     77  C27 non d ame     -29.647   9.269  22.563  0.00  0.00     0.085 C 
ATOM     78  H38 non d ame     -30.675   7.639  22.604  0.00  0.00     0.036 H 
ATOM     79  H39 non d ame     -31.088   8.961  21.321  0.00  0.00     0.036 H 
ATOM     80  N5  non d ame     -29.752  10.027  23.865  0.00  0.00    -0.049 N 
ATOM     81  H40 non d ame     -28.942   8.447  22.686  0.00  0.00     0.075 H 
ATOM     82  H41 non d ame     -29.519   9.979  21.748  0.00  0.00     0.075 H 
ATOM     83  C28 non d ame     -31.329  10.120  24.199  0.00  0.00     0.193 C 
ATOM     84  H42 non d ame     -29.308   9.453  24.567  0.00  0.00     0.280 HD
ATOM     85  H43 non d ame     -29.407  10.958  23.681  0.00  0.00     0.280 HD
ATOM     86  H44 non d ame     -31.874  11.050  24.040  0.00  0.00     0.129 H 
ATOM     87  H37 non d ame     -32.630  10.087  22.969  0.00  0.00     0.046 H 
BRANCH  83  88
ATOM     88  O6  non d ame     -31.565   9.767  25.563  0.00  0.00    -0.369 OA
ATOM     89  H45 non d ame     -30.809   9.284  25.905  0.00  0.00     0.212 HD
ENDBRANCH  83  88
ENDBRANCH  72  75
ENDBRANCH  47  72
ENDBRANCH  45  47
ENDBRANCH   1  43
BRANCH   1  90
ATOM     90  C16 non d ame     -35.928  12.708  25.678  0.00  0.00    -0.035 C 
ATOM     91  H21 non d ame     -34.865  12.884  25.834  0.00  0.00     0.037 H 
ATOM     92  H22 non d ame     -36.359  12.810  24.682  0.00  0.00     0.037 H 
BRANCH  90  93
ATOM     93  C17 non d ame     -36.682  13.727  26.591  0.00  0.00    -0.059 C 
ATOM     94  H23 non d ame     -36.838  13.250  27.559  0.00  0.00     0.038 H 
BRANCH  93  95
ATOM     95  C18 non d ame     -35.853  15.029  26.831  0.00  0.00    -0.073 C 
ATOM     96  H24 non d ame     -36.252  15.560  27.695  0.00  0.00     0.028 H 
ATOM     97  H25 non d ame     -34.811  14.767  27.017  0.00  0.00     0.028 H 
ATOM     98  H26 non d ame     -35.917  15.668  25.950  0.00  0.00     0.028 H 
ENDBRANCH  93  95
BRANCH  93  99
ATOM     99  C19 non d ame     -38.062  14.058  26.018  0.00  0.00    -0.073 C 
ATOM    100  H27 non d ame     -38.830  13.549  26.603  0.00  0.00     0.028 H 
ATOM    101  H28 non d ame     -38.227  15.135  26.063  0.00  0.00     0.028 H 
ATOM    102  H29 non d ame     -38.115  13.726  24.982  0.00  0.00     0.028 H 
ENDBRANCH  93  99
ENDBRANCH  90  93
ENDBRANCH   1  90
TORSDOF 26
ENDMDL
MODEL 10
REMARK VINA RESULT:      -6.9      2.678      9.085
REMARK  26 active torsions:
REMARK  status: ('A' for Active; 'I' for Inactive)
REMARK    1  A    between atoms: C2_2  and  C3_3 
REMARK    2  A    between atoms: C4_6  and  C5_7 
REMARK       I    between atoms: C5_7  and  N2_9 
REMARK    3  A    between atoms: N2_9  and  C6_10 
REMARK    4  A    between atoms: C6_10  and  C7_11 
REMARK    5  A    between atoms: C6_10  and  C8_13 
REMARK       I    between atoms: C7_11  and  N3_14 
REMARK    6  A    between atoms: N3_14  and  C9_15 
REMARK    7  A    between atoms: C9_15  and  C10_16 
REMARK    8  A    between atoms: C9_15  and  C11_18 
REMARK       I    between atoms: C10_16  and  N4_21 
REMARK    9  A    between atoms: C11_18  and  C12_19 
REMARK   10  A    between atoms: C11_18  and  C13_20 
REMARK   11  A    between atoms: N4_21  and  C14_22 
REMARK   12  A    between atoms: C14_22  and  C15_23 
REMARK   13  A    between atoms: C14_22  and  C16_25 
REMARK       I    between atoms: C15_23  and  N6_40 
REMARK   14  A    between atoms: C16_25  and  C17_26 
REMARK   15  A    between atoms: C17_26  and  C18_27 
REMARK   16  A    between atoms: C17_26  and  C19_28 
REMARK   17  A    between atoms: C20_29  and  C21_30 
REMARK   18  A    between atoms: C20_29  and  C24_33 
REMARK   19  A    between atoms: C20_29  and  N6_40 
REMARK   20  A    between atoms: C21_30  and  C22_31 
REMARK   21  A    between atoms: C22_31  and  C23_32 
REMARK   22  A    between atoms: C23_32  and  O8_43 
REMARK   23  A    between atoms: C24_33  and  C25_34 
REMARK   24  A    between atoms: C28_38  and  O6_39 
REMARK   25  A    between atoms: C29_42  and  O8_43 
REMARK   26  A    between atoms: C29_42  and  C35_49 
ROOT
ATOM      1  C14 non d ame     -34.239   9.913  29.346  0.00  0.00     0.089 C 
ATOM      2  H20 non d ame     -35.140  10.525  29.303  0.00  0.00     0.087 H 
ENDROOT
BRANCH   1   3
ATOM      3  N4  non d ame     -34.584   8.590  28.849  0.00  0.00    -0.346 N 
ATOM      4  C10 non d ame     -36.016   8.245  28.531  0.00  0.00     0.241 C 
ATOM      5  O4  non d ame     -36.876   9.049  28.685  0.00  0.00    -0.271 OA
ATOM      6  H19 non d ame     -33.838   7.919  28.728  0.00  0.00     0.163 HD
BRANCH   4   7
ATOM      7  C9  non d ame     -36.355   6.872  28.013  0.00  0.00     0.092 C 
ATOM      8  H11 non d ame     -36.913   6.967  27.082  0.00  0.00     0.088 H 
BRANCH   7   9
ATOM      9  N3  non d ame     -35.119   6.146  27.705  0.00  0.00    -0.346 N 
ATOM     10  C7  non d ame     -34.747   5.908  26.332  0.00  0.00     0.240 C 
ATOM     11  O3  non d ame     -35.430   6.292  25.463  0.00  0.00    -0.271 OA
ATOM     12  H10 non d ame     -34.520   5.808  28.444  0.00  0.00     0.163 HD
BRANCH  10  13
ATOM     13  C6  non d ame     -33.432   5.133  26.011  0.00  0.00     0.086 C 
ATOM     14  H6  non d ame     -33.569   4.369  25.245  0.00  0.00     0.086 H 
BRANCH  13  15
ATOM     15  N2  non d ame     -32.447   6.068  25.493  0.00  0.00    -0.343 N 
ATOM     16  C5  non d ame     -32.272   6.205  24.046  0.00  0.00     0.273 C 
ATOM     17  O2  non d ame     -32.926   5.555  23.306  0.00  0.00    -0.266 OA
ATOM     18  H5  non d ame     -31.890   6.617  26.133  0.00  0.00     0.163 HD
BRANCH  16  19
ATOM     19  C4  non d ame     -31.235   7.191  23.485  0.00  0.00     0.154 A 
ATOM     20  C1  non d ame     -31.390   8.602  23.310  0.00  0.00    -0.017 A 
ATOM     21  C2  non d ame     -30.161   9.038  22.768  0.00  0.00     0.077 A 
ATOM     22  H1  non d ame     -32.261   9.216  23.542  0.00  0.00     0.091 H 
ATOM     23  O1  non d ame     -29.396   7.993  22.650  0.00  0.00    -0.218 OA
ATOM     24  N1  non d ame     -30.001   6.902  23.063  0.00  0.00    -0.123 NA
BRANCH  21  25
ATOM     25  C3  non d ame     -29.798  10.468  22.392  0.00  0.00    -0.029 C 
ATOM     26  H2  non d ame     -28.742  10.518  22.127  0.00  0.00     0.036 H 
ATOM     27  H3  non d ame     -30.400  10.784  21.539  0.00  0.00     0.036 H 
ATOM     28  H4  non d ame     -29.992  11.128  23.237  0.00  0.00     0.036 H 
ENDBRANCH  21  25
ENDBRANCH  16  19
ENDBRANCH  13  15
BRANCH  13  29
ATOM     29  C8  non d ame     -32.912   4.476  27.264  0.00  0.00    -0.049 C 
ATOM     30  H7  non d ame     -33.677   4.516  28.039  0.00  0.00     0.030 H 
ATOM     31  H8  non d ame     -32.663   3.436  27.054  0.00  0.00     0.030 H 
ATOM     32  H9  non d ame     -32.020   5.002  27.607  0.00  0.00     0.030 H 
ENDBRANCH  13  29
ENDBRANCH  10  13
ENDBRANCH   7   9
BRANCH   7  33
ATOM     33  C11 non d ame     -37.154   6.091  29.098  0.00  0.00    -0.033 C 
ATOM     34  H12 non d ame     -37.866   6.785  29.545  0.00  0.00     0.042 H 
BRANCH  33  35
ATOM     35  C12 non d ame     -37.971   4.920  28.469  0.00  0.00    -0.071 C 
ATOM     36  H13 non d ame     -38.676   5.320  27.739  0.00  0.00     0.028 H 
ATOM     37  H14 non d ame     -37.292   4.226  27.975  0.00  0.00     0.028 H 
ATOM     38  H15 non d ame     -38.520   4.398  29.253  0.00  0.00     0.028 H 
ENDBRANCH  33  35
BRANCH  33  39
ATOM     39  C13 non d ame     -36.207   5.578  30.229  0.00  0.00    -0.071 C 
ATOM     40  H16 non d ame     -35.357   5.060  29.784  0.00  0.00     0.028 H 
ATOM     41  H17 non d ame     -35.850   6.424  30.818  0.00  0.00     0.028 H 
ATOM     42  H18 non d ame     -36.752   4.891  30.876  0.00  0.00     0.028 H 
ENDBRANCH  33  39
ENDBRANCH   7  33
ENDBRANCH   4   7
ENDBRANCH   1   3
BRANCH   1  43
ATOM     43  C15 non d ame     -33.094  10.491  28.464  0.00  0.00     0.240 C 
ATOM     44  O5  non d ame     -32.487   9.771  27.739  0.00  0.00    -0.271 OA
ATOM     45  N6  non d ame     -32.763  11.943  28.515  0.00  0.00    -0.355 N 
ATOM     46  H46 non d ame     -33.275  12.565  29.124  0.00  0.00     0.162 HD
BRANCH  45  47
ATOM     47  C20 non d ame     -31.673  12.476  27.669  0.00  0.00     0.013 C 
ATOM     48  H30 non d ame     -31.061  11.635  27.343  0.00  0.00     0.072 H 
BRANCH  47  49
ATOM     49  C21 non d ame     -30.838  13.442  28.479  0.00  0.00    -0.038 C 
ATOM     50  H31 non d ame     -30.072  12.834  28.962  0.00  0.00     0.036 H 
ATOM     51  H32 non d ame     -30.550  14.234  27.787  0.00  0.00     0.036 H 
BRANCH  49  52
ATOM     52  C22 non d ame     -31.637  14.121  29.613  0.00  0.00     0.018 C 
ATOM     53  H33 non d ame     -32.674  14.125  29.280  0.00  0.00     0.048 H 
ATOM     54  H34 non d ame     -31.359  13.595  30.526  0.00  0.00     0.048 H 
BRANCH  52  55
ATOM     55  C23 non d ame     -31.255  15.609  29.843  0.00  0.00     0.259 C 
ATOM     56  O7  non d ame     -30.186  15.897  30.275  0.00  0.00    -0.265 OA
BRANCH  55  57
ATOM     57  O8  non d ame     -32.203  16.627  29.544  0.00  0.00    -0.317 OA
BRANCH  57  58
ATOM     58  C29 non d ame     -33.030  16.338  28.413  0.00  0.00     0.052 C 
ATOM     59  H47 non d ame     -32.457  15.646  27.797  0.00  0.00     0.082 H 
ATOM     60  H48 non d ame     -33.994  16.036  28.821  0.00  0.00     0.082 H 
BRANCH  58  61
ATOM     61  C35 non d ame     -33.227  17.656  27.616  0.00  0.00    -0.034 A 
ATOM     62  C30 non d ame     -34.051  17.674  26.494  0.00  0.00    -0.075 A 
ATOM     63  C31 non d ame     -34.228  18.858  25.778  0.00  0.00    -0.082 A 
ATOM     64  H49 non d ame     -34.557  16.763  26.176  0.00  0.00     0.084 H 
ATOM     65  C32 non d ame     -33.576  20.025  26.186  0.00  0.00    -0.083 A 
ATOM     66  H50 non d ame     -34.876  18.870  24.900  0.00  0.00     0.083 H 
ATOM     67  C33 non d ame     -32.753  20.000  27.304  0.00  0.00    -0.082 A 
ATOM     68  H51 non d ame     -33.710  20.955  25.632  0.00  0.00     0.083 H 
ATOM     69  C34 non d ame     -32.575  18.820  28.023  0.00  0.00    -0.075 A 
ATOM     70  H52 non d ame     -32.244  20.912  27.618  0.00  0.00     0.083 H 
ATOM     71  H53 non d ame     -31.928  18.809  28.901  0.00  0.00     0.084 H 
ENDBRANCH  58  61
ENDBRANCH  57  58
ENDBRANCH  55  57
ENDBRANCH  52  55
ENDBRANCH  49  52
ENDBRANCH  47  49
BRANCH  47  72
ATOM     72  C24 non d ame     -32.265  13.201  26.462  0.00  0.00    -0.039 C 
ATOM     73  H35 non d ame     -32.756  12.426  25.871  0.00  0.00     0.036 H 
ATOM     74  H36 non d ame     -32.849  14.023  26.875  0.00  0.00     0.036 H 
BRANCH  72  75
ATOM     75  C25 non d ame     -31.125  13.846  25.541  0.00  0.00    -0.001 C 
ATOM     76  C26 non d ame     -31.444  15.439  25.289  0.00  0.00    -0.035 C 
ATOM     77  C27 non d ame     -31.393  15.691  23.959  0.00  0.00     0.085 C 
ATOM     78  H38 non d ame     -32.478  15.660  25.551  0.00  0.00     0.036 H 
ATOM     79  H39 non d ame     -30.637  16.052  25.695  0.00  0.00     0.036 H 
ATOM     80  N5  non d ame     -31.392  14.353  23.258  0.00  0.00    -0.049 N 
ATOM     81  H40 non d ame     -32.320  16.214  23.726  0.00  0.00     0.075 H 
ATOM     82  H41 non d ame     -30.434  16.180  23.791  0.00  0.00     0.075 H 
ATOM     83  C28 non d ame     -31.061  13.256  24.394  0.00  0.00     0.193 C 
ATOM     84  H42 non d ame     -32.335  14.202  22.930  0.00  0.00     0.280 HD
ATOM     85  H43 non d ame     -30.627  14.377  22.599  0.00  0.00     0.280 HD
ATOM     86  H44 non d ame     -30.068  12.808  24.458  0.00  0.00     0.129 H 
ATOM     87  H37 non d ame     -30.123  13.589  25.883  0.00  0.00     0.046 H 
BRANCH  83  88
ATOM     88  O6  non d ame     -31.971  12.159  24.301  0.00  0.00    -0.369 OA
ATOM     89  H45 non d ame     -31.507  11.341  24.499  0.00  0.00     0.212 HD
ENDBRANCH  83  88
ENDBRANCH  72  75
ENDBRANCH  47  72
ENDBRANCH  45  47
ENDBRANCH   1  43
BRANCH   1  90
ATOM     90  C16 non d ame     -33.764   9.796  30.786  0.00  0.00    -0.035 C 
ATOM     91  H21 non d ame     -33.302   8.812  30.857  0.00  0.00     0.037 H 
ATOM     92  H22 non d ame     -33.171  10.692  30.968  0.00  0.00     0.037 H 
BRANCH  90  93
ATOM     93  C17 non d ame     -34.924   9.814  31.831  0.00  0.00    -0.059 C 
ATOM     94  H23 non d ame     -34.543  10.280  32.739  0.00  0.00     0.038 H 
BRANCH  93  95
ATOM     95  C18 non d ame     -36.146  10.655  31.341  0.00  0.00    -0.073 C 
ATOM     96  H24 non d ame     -36.484  11.309  32.145  0.00  0.00     0.028 H 
ATOM     97  H25 non d ame     -35.850  11.260  30.484  0.00  0.00     0.028 H 
ATOM     98  H26 non d ame     -36.956   9.986  31.052  0.00  0.00     0.028 H 
ENDBRANCH  93  95
BRANCH  93  99
ATOM     99  C19 non d ame     -35.355   8.391  32.196  0.00  0.00    -0.073 C 
ATOM    100  H27 non d ame     -36.170   8.432  32.920  0.00  0.00     0.028 H 
ATOM    101  H28 non d ame     -35.693   7.871  31.299  0.00  0.00     0.028 H 
ATOM    102  H29 non d ame     -34.511   7.855  32.629  0.00  0.00     0.028 H 
ENDBRANCH  93  99
ENDBRANCH  90  93
ENDBRANCH   1  90
TORSDOF 26
ENDMDL
MODEL 11
REMARK VINA RESULT:      -6.9      2.865      9.537
REMARK  26 active torsions:
REMARK  status: ('A' for Active; 'I' for Inactive)
REMARK    1  A    between atoms: C2_2  and  C3_3 
REMARK    2  A    between atoms: C4_6  and  C5_7 
REMARK       I    between atoms: C5_7  and  N2_9 
REMARK    3  A    between atoms: N2_9  and  C6_10 
REMARK    4  A    between atoms: C6_10  and  C7_11 
REMARK    5  A    between atoms: C6_10  and  C8_13 
REMARK       I    between atoms: C7_11  and  N3_14 
REMARK    6  A    between atoms: N3_14  and  C9_15 
REMARK    7  A    between atoms: C9_15  and  C10_16 
REMARK    8  A    between atoms: C9_15  and  C11_18 
REMARK       I    between atoms: C10_16  and  N4_21 
REMARK    9  A    between atoms: C11_18  and  C12_19 
REMARK   10  A    between atoms: C11_18  and  C13_20 
REMARK   11  A    between atoms: N4_21  and  C14_22 
REMARK   12  A    between atoms: C14_22  and  C15_23 
REMARK   13  A    between atoms: C14_22  and  C16_25 
REMARK       I    between atoms: C15_23  and  N6_40 
REMARK   14  A    between atoms: C16_25  and  C17_26 
REMARK   15  A    between atoms: C17_26  and  C18_27 
REMARK   16  A    between atoms: C17_26  and  C19_28 
REMARK   17  A    between atoms: C20_29  and  C21_30 
REMARK   18  A    between atoms: C20_29  and  C24_33 
REMARK   19  A    between atoms: C20_29  and  N6_40 
REMARK   20  A    between atoms: C21_30  and  C22_31 
REMARK   21  A    between atoms: C22_31  and  C23_32 
REMARK   22  A    between atoms: C23_32  and  O8_43 
REMARK   23  A    between atoms: C24_33  and  C25_34 
REMARK   24  A    between atoms: C28_38  and  O6_39 
REMARK   25  A    between atoms: C29_42  and  O8_43 
REMARK   26  A    between atoms: C29_42  and  C35_49 
ROOT
ATOM      1  C14 non d ame     -35.120  10.272  24.841  0.00  0.00     0.089 C 
ATOM      2  H20 non d ame     -34.804  10.626  23.859  0.00  0.00     0.087 H 
ENDROOT
BRANCH   1   3
ATOM      3  N4  non d ame     -34.539   8.952  25.038  0.00  0.00    -0.346 N 
ATOM      4  C10 non d ame     -33.135   8.661  24.573  0.00  0.00     0.241 C 
ATOM      5  O4  non d ame     -32.491   9.504  24.040  0.00  0.00    -0.271 OA
ATOM      6  H19 non d ame     -35.103   8.248  25.490  0.00  0.00     0.163 HD
BRANCH   4   7
ATOM      7  C9  non d ame     -32.547   7.290  24.789  0.00  0.00     0.092 C 
ATOM      8  H11 non d ame     -31.576   7.389  25.272  0.00  0.00     0.088 H 
BRANCH   7   9
ATOM      9  N3  non d ame     -33.408   6.527  25.697  0.00  0.00    -0.346 N 
ATOM     10  C7  non d ame     -32.919   6.140  26.997  0.00  0.00     0.240 C 
ATOM     11  O3  non d ame     -31.836   6.434  27.329  0.00  0.00    -0.271 OA
ATOM     12  H10 non d ame     -34.345   6.265  25.424  0.00  0.00     0.163 HD
BRANCH  10  13
ATOM     13  C6  non d ame     -33.838   5.325  27.959  0.00  0.00     0.086 C 
ATOM     14  H6  non d ame     -33.406   4.366  28.243  0.00  0.00     0.086 H 
BRANCH  13  15
ATOM     15  N2  non d ame     -34.022   6.079  29.188  0.00  0.00    -0.343 N 
ATOM     16  C5  non d ame     -34.562   7.438  29.127  0.00  0.00     0.273 C 
ATOM     17  O2  non d ame     -34.843   7.919  28.085  0.00  0.00    -0.266 OA
ATOM     18  H5  non d ame     -33.776   5.662  30.075  0.00  0.00     0.163 HD
BRANCH  16  19
ATOM     19  C4  non d ame     -34.761   8.246  30.420  0.00  0.00     0.154 A 
ATOM     20  C1  non d ame     -35.156   9.617  30.530  0.00  0.00    -0.017 A 
ATOM     21  C2  non d ame     -35.193   9.873  31.919  0.00  0.00     0.077 A 
ATOM     22  H1  non d ame     -35.381  10.318  29.726  0.00  0.00     0.091 H 
ATOM     23  O1  non d ame     -34.859   8.772  32.526  0.00  0.00    -0.218 OA
ATOM     24  N1  non d ame     -34.602   7.808  31.671  0.00  0.00    -0.123 NA
BRANCH  21  25
ATOM     25  C3  non d ame     -35.558  11.194  32.583  0.00  0.00    -0.029 C 
ATOM     26  H2  non d ame     -35.565  11.067  33.665  0.00  0.00     0.036 H 
ATOM     27  H3  non d ame     -34.823  11.952  32.312  0.00  0.00     0.036 H 
ATOM     28  H4  non d ame     -36.545  11.509  32.247  0.00  0.00     0.036 H 
ENDBRANCH  21  25
ENDBRANCH  16  19
ENDBRANCH  13  15
BRANCH  13  29
ATOM     29  C8  non d ame     -35.171   5.081  27.299  0.00  0.00    -0.049 C 
ATOM     30  H7  non d ame     -35.147   5.463  26.279  0.00  0.00     0.030 H 
ATOM     31  H8  non d ame     -35.378   4.012  27.280  0.00  0.00     0.030 H 
ATOM     32  H9  non d ame     -35.954   5.594  27.860  0.00  0.00     0.030 H 
ENDBRANCH  13  29
ENDBRANCH  10  13
ENDBRANCH   7   9
BRANCH   7  33
ATOM     33  C11 non d ame     -32.451   6.547  23.423  0.00  0.00    -0.033 C 
ATOM     34  H12 non d ame     -33.057   7.099  22.705  0.00  0.00     0.042 H 
BRANCH  33  35
ATOM     35  C12 non d ame     -30.986   6.532  22.888  0.00  0.00    -0.071 C 
ATOM     36  H13 non d ame     -30.334   7.040  23.598  0.00  0.00     0.028 H 
ATOM     37  H14 non d ame     -30.654   5.502  22.763  0.00  0.00     0.028 H 
ATOM     38  H15 non d ame     -30.944   7.047  21.927  0.00  0.00     0.028 H 
ENDBRANCH  33  35
BRANCH  33  39
ATOM     39  C13 non d ame     -33.029   5.100  23.533  0.00  0.00    -0.071 C 
ATOM     40  H16 non d ame     -34.103   5.122  23.344  0.00  0.00     0.028 H 
ATOM     41  H17 non d ame     -32.544   4.457  22.798  0.00  0.00     0.028 H 
ATOM     42  H18 non d ame     -32.844   4.709  24.533  0.00  0.00     0.028 H 
ENDBRANCH  33  39
ENDBRANCH   7  33
ENDBRANCH   4   7
ENDBRANCH   1   3
BRANCH   1  43
ATOM     43  C15 non d ame     -34.630  11.204  25.986  0.00  0.00     0.240 C 
ATOM     44  O5  non d ame     -35.181  11.186  27.039  0.00  0.00    -0.271 OA
ATOM     45  N6  non d ame     -33.468  12.113  25.773  0.00  0.00    -0.355 N 
ATOM     46  H46 non d ame     -32.989  12.134  24.884  0.00  0.00     0.162 HD
BRANCH  45  47
ATOM     47  C20 non d ame     -33.014  12.992  26.873  0.00  0.00     0.013 C 
ATOM     48  H30 non d ame     -33.569  12.719  27.770  0.00  0.00     0.072 H 
BRANCH  47  49
ATOM     49  C21 non d ame     -33.295  14.433  26.509  0.00  0.00    -0.038 C 
ATOM     50  H31 non d ame     -32.318  14.907  26.408  0.00  0.00     0.036 H 
ATOM     51  H32 non d ame     -33.973  14.394  25.656  0.00  0.00     0.036 H 
BRANCH  49  52
ATOM     52  C22 non d ame     -34.040  15.198  27.625  0.00  0.00     0.018 C 
ATOM     53  H33 non d ame     -34.796  15.796  27.118  0.00  0.00     0.048 H 
ATOM     54  H34 non d ame     -34.338  14.443  28.352  0.00  0.00     0.048 H 
BRANCH  52  55
ATOM     55  C23 non d ame     -33.145  16.206  28.397  0.00  0.00     0.259 C 
ATOM     56  O7  non d ame     -32.192  15.828  28.999  0.00  0.00    -0.265 OA
BRANCH  55  57
ATOM     57  O8  non d ame     -33.483  17.588  28.389  0.00  0.00    -0.317 OA
BRANCH  57  58
ATOM     58  C29 non d ame     -33.152  18.262  27.172  0.00  0.00     0.052 C 
ATOM     59  H47 non d ame     -32.446  19.044  27.451  0.00  0.00     0.082 H 
ATOM     60  H48 non d ame     -32.853  17.481  26.474  0.00  0.00     0.082 H 
BRANCH  58  61
ATOM     61  C35 non d ame     -34.442  18.935  26.631  0.00  0.00    -0.034 A 
ATOM     62  C30 non d ame     -34.841  20.174  27.126  0.00  0.00    -0.075 A 
ATOM     63  C31 non d ame     -36.000  20.778  26.641  0.00  0.00    -0.082 A 
ATOM     64  H49 non d ame     -34.247  20.670  27.893  0.00  0.00     0.084 H 
ATOM     65  C32 non d ame     -36.762  20.139  25.659  0.00  0.00    -0.083 A 
ATOM     66  H50 non d ame     -36.309  21.749  27.029  0.00  0.00     0.083 H 
ATOM     67  C33 non d ame     -36.362  18.902  25.172  0.00  0.00    -0.082 A 
ATOM     68  H51 non d ame     -37.670  20.605  25.274  0.00  0.00     0.083 H 
ATOM     69  C34 non d ame     -35.204  18.295  25.653  0.00  0.00    -0.075 A 
ATOM     70  H52 non d ame     -36.961  18.404  24.408  0.00  0.00     0.083 H 
ATOM     71  H53 non d ame     -34.895  17.324  25.264  0.00  0.00     0.084 H 
ENDBRANCH  58  61
ENDBRANCH  57  58
ENDBRANCH  55  57
ENDBRANCH  52  55
ENDBRANCH  49  52
ENDBRANCH  47  49
BRANCH  47  72
ATOM     72  C24 non d ame     -31.516  12.805  27.098  0.00  0.00    -0.039 C 
ATOM     73  H35 non d ame     -31.196  12.088  26.341  0.00  0.00     0.036 H 
ATOM     74  H36 non d ame     -31.096  13.811  27.107  0.00  0.00     0.036 H 
BRANCH  72  75
ATOM     75  C25 non d ame     -31.208  12.152  28.528  0.00  0.00    -0.001 C 
ATOM     76  C26 non d ame     -32.612  11.924  29.353  0.00  0.00    -0.035 C 
ATOM     77  C27 non d ame     -32.488  12.470  30.586  0.00  0.00     0.085 C 
ATOM     78  H38 non d ame     -33.413  12.504  28.896  0.00  0.00     0.036 H 
ATOM     79  H39 non d ame     -32.757  10.862  29.557  0.00  0.00     0.036 H 
ATOM     80  N5  non d ame     -31.251  13.335  30.563  0.00  0.00    -0.049 N 
ATOM     81  H40 non d ame     -33.365  13.105  30.712  0.00  0.00     0.075 H 
ATOM     82  H41 non d ame     -32.323  11.631  31.261  0.00  0.00     0.075 H 
ATOM     83  C28 non d ame     -30.439  12.913  29.233  0.00  0.00     0.193 C 
ATOM     84  H42 non d ame     -31.570  14.287  30.457  0.00  0.00     0.280 HD
ATOM     85  H43 non d ame     -30.705  13.072  31.371  0.00  0.00     0.280 HD
ATOM     86  H44 non d ame     -29.550  12.285  29.304  0.00  0.00     0.129 H 
ATOM     87  H37 non d ame     -30.531  11.302  28.457  0.00  0.00     0.046 H 
BRANCH  83  88
ATOM     88  O6  non d ame     -30.028  14.079  28.516  0.00  0.00    -0.369 OA
ATOM     89  H45 non d ame     -30.190  14.858  29.053  0.00  0.00     0.212 HD
ENDBRANCH  83  88
ENDBRANCH  72  75
ENDBRANCH  47  72
ENDBRANCH  45  47
ENDBRANCH   1  43
BRANCH   1  90
ATOM     90  C16 non d ame     -36.635  10.160  24.886  0.00  0.00    -0.035 C 
ATOM     91  H21 non d ame     -36.955  10.884  25.633  0.00  0.00     0.037 H 
ATOM     92  H22 non d ame     -36.962  10.262  23.851  0.00  0.00     0.037 H 
BRANCH  90  93
ATOM     93  C17 non d ame     -37.145   8.767  25.375  0.00  0.00    -0.059 C 
ATOM     94  H23 non d ame     -36.273   8.133  25.534  0.00  0.00     0.038 H 
BRANCH  93  95
ATOM     95  C18 non d ame     -37.915   8.864  26.731  0.00  0.00    -0.073 C 
ATOM     96  H24 non d ame     -37.202   8.968  27.548  0.00  0.00     0.028 H 
ATOM     97  H25 non d ame     -38.574   9.733  26.713  0.00  0.00     0.028 H 
ATOM     98  H26 non d ame     -38.508   7.962  26.878  0.00  0.00     0.028 H 
ENDBRANCH  93  95
BRANCH  93  99
ATOM     99  C19 non d ame     -38.010   8.094  24.305  0.00  0.00    -0.073 C 
ATOM    100  H27 non d ame     -38.041   8.724  23.415  0.00  0.00     0.028 H 
ATOM    101  H28 non d ame     -37.583   7.125  24.048  0.00  0.00     0.028 H 
ATOM    102  H29 non d ame     -39.020   7.956  24.689  0.00  0.00     0.028 H 
ENDBRANCH  93  99
ENDBRANCH  90  93
ENDBRANCH   1  90
TORSDOF 26
ENDMDL
MODEL 12
REMARK VINA RESULT:      -6.9      2.646      9.695
REMARK  26 active torsions:
REMARK  status: ('A' for Active; 'I' for Inactive)
REMARK    1  A    between atoms: C2_2  and  C3_3 
REMARK    2  A    between atoms: C4_6  and  C5_7 
REMARK       I    between atoms: C5_7  and  N2_9 
REMARK    3  A    between atoms: N2_9  and  C6_10 
REMARK    4  A    between atoms: C6_10  and  C7_11 
REMARK    5  A    between atoms: C6_10  and  C8_13 
REMARK       I    between atoms: C7_11  and  N3_14 
REMARK    6  A    between atoms: N3_14  and  C9_15 
REMARK    7  A    between atoms: C9_15  and  C10_16 
REMARK    8  A    between atoms: C9_15  and  C11_18 
REMARK       I    between atoms: C10_16  and  N4_21 
REMARK    9  A    between atoms: C11_18  and  C12_19 
REMARK   10  A    between atoms: C11_18  and  C13_20 
REMARK   11  A    between atoms: N4_21  and  C14_22 
REMARK   12  A    between atoms: C14_22  and  C15_23 
REMARK   13  A    between atoms: C14_22  and  C16_25 
REMARK       I    between atoms: C15_23  and  N6_40 
REMARK   14  A    between atoms: C16_25  and  C17_26 
REMARK   15  A    between atoms: C17_26  and  C18_27 
REMARK   16  A    between atoms: C17_26  and  C19_28 
REMARK   17  A    between atoms: C20_29  and  C21_30 
REMARK   18  A    between atoms: C20_29  and  C24_33 
REMARK   19  A    between atoms: C20_29  and  N6_40 
REMARK   20  A    between atoms: C21_30  and  C22_31 
REMARK   21  A    between atoms: C22_31  and  C23_32 
REMARK   22  A    between atoms: C23_32  and  O8_43 
REMARK   23  A    between atoms: C24_33  and  C25_34 
REMARK   24  A    between atoms: C28_38  and  O6_39 
REMARK   25  A    between atoms: C29_42  and  O8_43 
REMARK   26  A    between atoms: C29_42  and  C35_49 
ROOT
ATOM      1  C14 non d ame     -33.677   7.039  27.278  0.00  0.00     0.089 C 
ATOM      2  H20 non d ame     -33.218   6.561  28.144  0.00  0.00     0.087 H 
ENDROOT
BRANCH   1   3
ATOM      3  N4  non d ame     -33.895   8.438  27.614  0.00  0.00    -0.346 N 
ATOM      4  C10 non d ame     -34.481   8.818  28.949  0.00  0.00     0.241 C 
ATOM      5  O4  non d ame     -34.772   7.980  29.738  0.00  0.00    -0.271 OA
ATOM      6  H19 non d ame     -33.644   9.136  26.928  0.00  0.00     0.163 HD
BRANCH   4   7
ATOM      7  C9  non d ame     -34.696  10.272  29.283  0.00  0.00     0.092 C 
ATOM      8  H11 non d ame     -34.915  10.367  30.346  0.00  0.00     0.088 H 
BRANCH   7   9
ATOM      9  N3  non d ame     -33.462  11.020  29.024  0.00  0.00    -0.346 N 
ATOM     10  C7  non d ame     -32.627  11.433  30.124  0.00  0.00     0.240 C 
ATOM     11  O3  non d ame     -32.932  11.172  31.224  0.00  0.00    -0.271 OA
ATOM     12  H10 non d ame     -33.188  11.254  28.081  0.00  0.00     0.163 HD
BRANCH  10  13
ATOM     13  C6  non d ame     -31.316  12.232  29.844  0.00  0.00     0.086 C 
ATOM     14  H6  non d ame     -30.835  11.938  28.912  0.00  0.00     0.086 H 
BRANCH  13  15
ATOM     15  N2  non d ame     -31.642  13.643  29.716  0.00  0.00    -0.343 N 
ATOM     16  C5  non d ame     -32.002  14.184  28.404  0.00  0.00     0.273 C 
ATOM     17  O2  non d ame     -32.023  13.478  27.456  0.00  0.00    -0.266 OA
ATOM     18  H5  non d ame     -31.619  14.240  30.530  0.00  0.00     0.163 HD
BRANCH  16  19
ATOM     19  C4  non d ame     -32.350  15.674  28.254  0.00  0.00     0.154 A 
ATOM     20  C1  non d ame     -32.654  16.373  27.044  0.00  0.00    -0.017 A 
ATOM     21  C2  non d ame     -32.899  17.705  27.447  0.00  0.00     0.077 A 
ATOM     22  H1  non d ame     -32.693  15.976  26.030  0.00  0.00     0.091 H 
ATOM     23  O1  non d ame     -32.751  17.754  28.737  0.00  0.00    -0.218 OA
ATOM     24  N1  non d ame     -32.430  16.580  29.232  0.00  0.00    -0.123 NA
BRANCH  21  25
ATOM     25  C3  non d ame     -33.269  18.869  26.536  0.00  0.00    -0.029 C 
ATOM     26  H2  non d ame     -32.962  18.643  25.515  0.00  0.00     0.036 H 
ATOM     27  H3  non d ame     -34.348  19.023  26.564  0.00  0.00     0.036 H 
ATOM     28  H4  non d ame     -32.764  19.772  26.876  0.00  0.00     0.036 H 
ENDBRANCH  21  25
ENDBRANCH  16  19
ENDBRANCH  13  15
BRANCH  13  29
ATOM     29  C8  non d ame     -30.346  12.027  30.979  0.00  0.00    -0.049 C 
ATOM     30  H7  non d ame     -29.495  11.444  30.629  0.00  0.00     0.030 H 
ATOM     31  H8  non d ame     -29.999  12.995  31.340  0.00  0.00     0.030 H 
ATOM     32  H9  non d ame     -30.844  11.493  31.790  0.00  0.00     0.030 H 
ENDBRANCH  13  29
ENDBRANCH  10  13
ENDBRANCH   7   9
BRANCH   7  33
ATOM     33  C11 non d ame     -35.841  10.843  28.395  0.00  0.00    -0.033 C 
ATOM     34  H12 non d ame     -36.358  11.606  28.976  0.00  0.00     0.042 H 
BRANCH  33  35
ATOM     35  C12 non d ame     -35.277  11.531  27.114  0.00  0.00    -0.071 C 
ATOM     36  H13 non d ame     -34.236  11.238  26.972  0.00  0.00     0.028 H 
ATOM     37  H14 non d ame     -35.862  11.224  26.248  0.00  0.00     0.028 H 
ATOM     38  H15 non d ame     -35.335  12.614  27.227  0.00  0.00     0.028 H 
ENDBRANCH  33  35
BRANCH  33  39
ATOM     39  C13 non d ame     -36.875   9.729  28.031  0.00  0.00    -0.071 C 
ATOM     40  H16 non d ame     -37.143   9.174  28.931  0.00  0.00     0.028 H 
ATOM     41  H17 non d ame     -37.769  10.187  27.606  0.00  0.00     0.028 H 
ATOM     42  H18 non d ame     -36.435   9.049  27.302  0.00  0.00     0.028 H 
ENDBRANCH  33  39
ENDBRANCH   7  33
ENDBRANCH   4   7
ENDBRANCH   1   3
BRANCH   1  43
ATOM     43  C15 non d ame     -32.766   6.969  26.018  0.00  0.00     0.240 C 
ATOM     44  O5  non d ame     -31.824   6.243  26.009  0.00  0.00    -0.271 OA
ATOM     45  N6  non d ame     -33.072   7.799  24.819  0.00  0.00    -0.355 N 
ATOM     46  H46 non d ame     -33.872   8.416  24.812  0.00  0.00     0.162 HD
BRANCH  45  47
ATOM     47  C20 non d ame     -32.197   7.720  23.629  0.00  0.00     0.013 C 
ATOM     48  H30 non d ame     -31.207   7.409  23.963  0.00  0.00     0.072 H 
BRANCH  47  49
ATOM     49  C21 non d ame     -32.119   9.080  22.974  0.00  0.00    -0.038 C 
ATOM     50  H31 non d ame     -31.944   8.887  21.915  0.00  0.00     0.036 H 
ATOM     51  H32 non d ame     -33.017   9.611  23.290  0.00  0.00     0.036 H 
BRANCH  49  52
ATOM     52  C22 non d ame     -30.920   9.917  23.470  0.00  0.00     0.018 C 
ATOM     53  H33 non d ame     -30.233   9.206  23.927  0.00  0.00     0.048 H 
ATOM     54  H34 non d ame     -30.601  10.511  22.614  0.00  0.00     0.048 H 
BRANCH  52  55
ATOM     55  C23 non d ame     -31.286  10.935  24.586  0.00  0.00     0.259 C 
ATOM     56  O7  non d ame     -31.929  10.594  25.526  0.00  0.00    -0.265 OA
BRANCH  55  57
ATOM     57  O8  non d ame     -30.855  12.285  24.465  0.00  0.00    -0.317 OA
BRANCH  57  58
ATOM     58  C29 non d ame     -29.962  12.517  23.372  0.00  0.00     0.052 C 
ATOM     59  H47 non d ame     -28.972  12.614  23.816  0.00  0.00     0.082 H 
ATOM     60  H48 non d ame     -30.162  11.723  22.654  0.00  0.00     0.082 H 
BRANCH  58  61
ATOM     61  C35 non d ame     -30.344  13.874  22.722  0.00  0.00    -0.034 A 
ATOM     62  C30 non d ame     -29.931  14.165  21.425  0.00  0.00    -0.075 A 
ATOM     63  C31 non d ame     -30.274  15.384  20.841  0.00  0.00    -0.082 A 
ATOM     64  H49 non d ame     -29.339  13.440  20.867  0.00  0.00     0.084 H 
ATOM     65  C32 non d ame     -31.031  16.313  21.558  0.00  0.00    -0.083 A 
ATOM     66  H50 non d ame     -29.950  15.608  19.824  0.00  0.00     0.083 H 
ATOM     67  C33 non d ame     -31.437  16.020  22.853  0.00  0.00    -0.082 A 
ATOM     68  H51 non d ame     -31.304  17.269  21.108  0.00  0.00     0.083 H 
ATOM     69  C34 non d ame     -31.098  14.803  23.440  0.00  0.00    -0.075 A 
ATOM     70  H52 non d ame     -32.026  16.749  23.412  0.00  0.00     0.083 H 
ATOM     71  H53 non d ame     -31.423  14.578  24.457  0.00  0.00     0.084 H 
ENDBRANCH  58  61
ENDBRANCH  57  58
ENDBRANCH  55  57
ENDBRANCH  52  55
ENDBRANCH  49  52
ENDBRANCH  47  49
BRANCH  47  72
ATOM     72  C24 non d ame     -32.764   6.707  22.637  0.00  0.00    -0.039 C 
ATOM     73  H35 non d ame     -31.942   6.024  22.419  0.00  0.00     0.036 H 
ATOM     74  H36 non d ame     -33.678   6.329  23.098  0.00  0.00     0.036 H 
BRANCH  72  75
ATOM     75  C25 non d ame     -33.183   7.400  21.256  0.00  0.00    -0.001 C 
ATOM     76  C26 non d ame     -34.818   7.373  21.089  0.00  0.00    -0.035 C 
ATOM     77  C27 non d ame     -35.126   6.855  19.876  0.00  0.00     0.085 C 
ATOM     78  H38 non d ame     -35.254   6.660  21.788  0.00  0.00     0.036 H 
ATOM     79  H39 non d ame     -35.207   8.391  21.037  0.00  0.00     0.036 H 
ATOM     80  N5  non d ame     -33.865   6.224  19.334  0.00  0.00    -0.049 N 
ATOM     81  H40 non d ame     -35.860   6.073  20.071  0.00  0.00     0.075 H 
ATOM     82  H41 non d ame     -35.391   7.708  19.253  0.00  0.00     0.075 H 
ATOM     83  C28 non d ame     -32.659   6.787  20.248  0.00  0.00     0.193 C 
ATOM     84  H42 non d ame     -33.952   5.231  19.492  0.00  0.00     0.280 HD
ATOM     85  H43 non d ame     -33.750   6.578  18.395  0.00  0.00     0.280 HD
ATOM     86  H44 non d ame     -31.994   7.563  19.868  0.00  0.00     0.129 H 
ATOM     87  H37 non d ame     -32.685   8.358  21.107  0.00  0.00     0.046 H 
BRANCH  83  88
ATOM     88  O6  non d ame     -31.806   5.715  20.653  0.00  0.00    -0.369 OA
ATOM     89  H45 non d ame     -32.308   5.086  21.177  0.00  0.00     0.212 HD
ENDBRANCH  83  88
ENDBRANCH  72  75
ENDBRANCH  47  72
ENDBRANCH  45  47
ENDBRANCH   1  43
BRANCH   1  90
ATOM     90  C16 non d ame     -35.016   6.385  26.977  0.00  0.00    -0.035 C 
ATOM     91  H21 non d ame     -35.765   7.062  27.384  0.00  0.00     0.037 H 
ATOM     92  H22 non d ame     -34.997   6.169  25.908  0.00  0.00     0.037 H 
BRANCH  90  93
ATOM     93  C17 non d ame     -35.220   5.016  27.700  0.00  0.00    -0.059 C 
ATOM     94  H23 non d ame     -35.132   4.230  26.951  0.00  0.00     0.038 H 
BRANCH  93  95
ATOM     95  C18 non d ame     -34.132   4.757  28.790  0.00  0.00    -0.073 C 
ATOM     96  H24 non d ame     -34.279   3.768  29.224  0.00  0.00     0.028 H 
ATOM     97  H25 non d ame     -33.143   4.809  28.336  0.00  0.00     0.028 H 
ATOM     98  H26 non d ame     -34.213   5.512  29.572  0.00  0.00     0.028 H 
ENDBRANCH  93  95
BRANCH  93  99
ATOM     99  C19 non d ame     -36.625   4.919  28.300  0.00  0.00    -0.073 C 
ATOM    100  H27 non d ame     -37.075   3.965  28.020  0.00  0.00     0.028 H 
ATOM    101  H28 non d ame     -36.563   4.984  29.387  0.00  0.00     0.028 H 
ATOM    102  H29 non d ame     -37.239   5.736  27.922  0.00  0.00     0.028 H 
ENDBRANCH  93  99
ENDBRANCH  90  93
ENDBRANCH   1  90
TORSDOF 26
ENDMDL
MODEL 13
REMARK VINA RESULT:      -6.9      2.970      8.689
REMARK  26 active torsions:
REMARK  status: ('A' for Active; 'I' for Inactive)
REMARK    1  A    between atoms: C2_2  and  C3_3 
REMARK    2  A    between atoms: C4_6  and  C5_7 
REMARK       I    between atoms: C5_7  and  N2_9 
REMARK    3  A    between atoms: N2_9  and  C6_10 
REMARK    4  A    between atoms: C6_10  and  C7_11 
REMARK    5  A    between atoms: C6_10  and  C8_13 
REMARK       I    between atoms: C7_11  and  N3_14 
REMARK    6  A    between atoms: N3_14  and  C9_15 
REMARK    7  A    between atoms: C9_15  and  C10_16 
REMARK    8  A    between atoms: C9_15  and  C11_18 
REMARK       I    between atoms: C10_16  and  N4_21 
REMARK    9  A    between atoms: C11_18  and  C12_19 
REMARK   10  A    between atoms: C11_18  and  C13_20 
REMARK   11  A    between atoms: N4_21  and  C14_22 
REMARK   12  A    between atoms: C14_22  and  C15_23 
REMARK   13  A    between atoms: C14_22  and  C16_25 
REMARK       I    between atoms: C15_23  and  N6_40 
REMARK   14  A    between atoms: C16_25  and  C17_26 
REMARK   15  A    between atoms: C17_26  and  C18_27 
REMARK   16  A    between atoms: C17_26  and  C19_28 
REMARK   17  A    between atoms: C20_29  and  C21_30 
REMARK   18  A    between atoms: C20_29  and  C24_33 
REMARK   19  A    between atoms: C20_29  and  N6_40 
REMARK   20  A    between atoms: C21_30  and  C22_31 
REMARK   21  A    between atoms: C22_31  and  C23_32 
REMARK   22  A    between atoms: C23_32  and  O8_43 
REMARK   23  A    between atoms: C24_33  and  C25_34 
REMARK   24  A    between atoms: C28_38  and  O6_39 
REMARK   25  A    between atoms: C29_42  and  O8_43 
REMARK   26  A    between atoms: C29_42  and  C35_49 
ROOT
ATOM      1  C14 non d ame     -32.928  10.619  26.257  0.00  0.00     0.089 C 
ATOM      2  H20 non d ame     -33.948  10.587  25.874  0.00  0.00     0.087 H 
ENDROOT
BRANCH   1   3
ATOM      3  N4  non d ame     -32.162   9.605  25.548  0.00  0.00    -0.346 N 
ATOM      4  C10 non d ame     -32.659   9.054  24.235  0.00  0.00     0.241 C 
ATOM      5  O4  non d ame     -33.679   9.442  23.769  0.00  0.00    -0.271 OA
ATOM      6  H19 non d ame     -31.298   9.286  25.963  0.00  0.00     0.163 HD
BRANCH   4   7
ATOM      7  C9  non d ame     -31.851   8.008  23.513  0.00  0.00     0.092 C 
ATOM      8  H11 non d ame     -30.908   7.858  24.036  0.00  0.00     0.088 H 
BRANCH   7   9
ATOM      9  N3  non d ame     -32.570   6.730  23.540  0.00  0.00    -0.346 N 
ATOM     10  C7  non d ame     -32.447   5.859  24.682  0.00  0.00     0.240 C 
ATOM     11  O3  non d ame     -31.774   6.170  25.588  0.00  0.00    -0.271 OA
ATOM     12  H10 non d ame     -33.153   6.449  22.765  0.00  0.00     0.163 HD
BRANCH  10  13
ATOM     13  C6  non d ame     -33.212   4.500  24.705  0.00  0.00     0.086 C 
ATOM     14  H6  non d ame     -32.652   3.709  25.203  0.00  0.00     0.086 H 
BRANCH  13  15
ATOM     15  N2  non d ame     -34.449   4.666  25.450  0.00  0.00    -0.343 N 
ATOM     16  C5  non d ame     -34.500   4.273  26.859  0.00  0.00     0.273 C 
ATOM     17  O2  non d ame     -33.543   3.821  27.385  0.00  0.00    -0.266 OA
ATOM     18  H5  non d ame     -35.263   5.050  24.992  0.00  0.00     0.163 HD
BRANCH  16  19
ATOM     19  C4  non d ame     -35.802   4.444  27.659  0.00  0.00     0.154 A 
ATOM     20  C1  non d ame     -36.087   5.443  28.643  0.00  0.00    -0.017 A 
ATOM     21  C2  non d ame     -37.404   5.164  29.072  0.00  0.00     0.077 A 
ATOM     22  H1  non d ame     -35.438   6.246  28.992  0.00  0.00     0.091 H 
ATOM     23  O1  non d ame     -37.817   4.127  28.406  0.00  0.00    -0.218 OA
ATOM     24  N1  non d ame     -36.900   3.689  27.575  0.00  0.00    -0.123 NA
BRANCH  21  25
ATOM     25  C3  non d ame     -38.193   5.937  30.120  0.00  0.00    -0.029 C 
ATOM     26  H2  non d ame     -37.920   5.585  31.114  0.00  0.00     0.036 H 
ATOM     27  H3  non d ame     -37.964   7.000  30.037  0.00  0.00     0.036 H 
ATOM     28  H4  non d ame     -39.260   5.782  29.960  0.00  0.00     0.036 H 
ENDBRANCH  21  25
ENDBRANCH  16  19
ENDBRANCH  13  15
BRANCH  13  29
ATOM     29  C8  non d ame     -33.513   4.066  23.293  0.00  0.00    -0.049 C 
ATOM     30  H7  non d ame     -33.506   2.978  23.236  0.00  0.00     0.030 H 
ATOM     31  H8  non d ame     -34.495   4.438  23.000  0.00  0.00     0.030 H 
ATOM     32  H9  non d ame     -32.756   4.470  22.619  0.00  0.00     0.030 H 
ENDBRANCH  13  29
ENDBRANCH  10  13
ENDBRANCH   7   9
BRANCH   7  33
ATOM     33  C11 non d ame     -31.638   8.448  22.034  0.00  0.00    -0.033 C 
ATOM     34  H12 non d ame     -32.214   9.360  21.876  0.00  0.00     0.042 H 
BRANCH  33  35
ATOM     35  C12 non d ame     -30.140   8.785  21.753  0.00  0.00    -0.071 C 
ATOM     36  H13 non d ame     -29.704   9.262  22.631  0.00  0.00     0.028 H 
ATOM     37  H14 non d ame     -29.596   7.868  21.530  0.00  0.00     0.028 H 
ATOM     38  H15 non d ame     -30.074   9.464  20.903  0.00  0.00     0.028 H 
ENDBRANCH  33  35
BRANCH  33  39
ATOM     39  C13 non d ame     -32.170   7.362  21.045  0.00  0.00    -0.071 C 
ATOM     40  H16 non d ame     -31.329   6.808  20.627  0.00  0.00     0.028 H 
ATOM     41  H17 non d ame     -32.829   6.676  21.578  0.00  0.00     0.028 H 
ATOM     42  H18 non d ame     -32.724   7.844  20.240  0.00  0.00     0.028 H 
ENDBRANCH  33  39
ENDBRANCH   7  33
ENDBRANCH   4   7
ENDBRANCH   1   3
BRANCH   1  43
ATOM     43  C15 non d ame     -32.256  12.002  26.020  0.00  0.00     0.240 C 
ATOM     44  O5  non d ame     -31.106  12.153  26.281  0.00  0.00    -0.271 OA
ATOM     45  N6  non d ame     -33.043  13.137  25.458  0.00  0.00    -0.355 N 
ATOM     46  H46 non d ame     -34.020  13.019  25.228  0.00  0.00     0.162 HD
BRANCH  45  47
ATOM     47  C20 non d ame     -32.389  14.445  25.238  0.00  0.00     0.013 C 
ATOM     48  H30 non d ame     -31.454  14.449  25.798  0.00  0.00     0.072 H 
BRANCH  47  49
ATOM     49  C21 non d ame     -33.295  15.547  25.736  0.00  0.00    -0.038 C 
ATOM     50  H31 non d ame     -33.626  16.081  24.844  0.00  0.00     0.036 H 
ATOM     51  H32 non d ame     -34.026  15.059  26.381  0.00  0.00     0.036 H 
BRANCH  49  52
ATOM     52  C22 non d ame     -32.557  16.579  26.616  0.00  0.00     0.018 C 
ATOM     53  H33 non d ame     -31.518  16.255  26.641  0.00  0.00     0.048 H 
ATOM     54  H34 non d ame     -32.814  17.555  26.203  0.00  0.00     0.048 H 
BRANCH  52  55
ATOM     55  C23 non d ame     -33.037  16.599  28.093  0.00  0.00     0.259 C 
ATOM     56  O7  non d ame     -34.045  17.153  28.393  0.00  0.00    -0.265 OA
BRANCH  55  57
ATOM     57  O8  non d ame     -32.249  15.958  29.090  0.00  0.00    -0.317 OA
BRANCH  57  58
ATOM     58  C29 non d ame     -31.363  14.958  28.579  0.00  0.00     0.052 C 
ATOM     59  H47 non d ame     -31.718  14.735  27.573  0.00  0.00     0.082 H 
ATOM     60  H48 non d ame     -30.358  15.351  28.728  0.00  0.00     0.082 H 
BRANCH  58  61
ATOM     61  C35 non d ame     -31.525  13.684  29.451  0.00  0.00    -0.034 A 
ATOM     62  C30 non d ame     -32.788  13.299  29.891  0.00  0.00    -0.075 A 
ATOM     63  C31 non d ame     -32.934  12.155  30.675  0.00  0.00    -0.082 A 
ATOM     64  H49 non d ame     -33.662  13.892  29.624  0.00  0.00     0.084 H 
ATOM     65  C32 non d ame     -31.812  11.396  31.020  0.00  0.00    -0.083 A 
ATOM     66  H50 non d ame     -33.925  11.854  31.017  0.00  0.00     0.083 H 
ATOM     67  C33 non d ame     -30.554  11.788  30.581  0.00  0.00    -0.082 A 
ATOM     68  H51 non d ame     -31.918  10.500  31.631  0.00  0.00     0.083 H 
ATOM     69  C34 non d ame     -30.404  12.929  29.796  0.00  0.00    -0.075 A 
ATOM     70  H52 non d ame     -29.680  11.195  30.854  0.00  0.00     0.083 H 
ATOM     71  H53 non d ame     -29.413  13.229  29.454  0.00  0.00     0.084 H 
ENDBRANCH  58  61
ENDBRANCH  57  58
ENDBRANCH  55  57
ENDBRANCH  52  55
ENDBRANCH  49  52
ENDBRANCH  47  49
BRANCH  47  72
ATOM     72  C24 non d ame     -32.116  14.641  23.748  0.00  0.00    -0.039 C 
ATOM     73  H35 non d ame     -32.407  13.703  23.274  0.00  0.00     0.036 H 
ATOM     74  H36 non d ame     -32.624  15.567  23.480  0.00  0.00     0.036 H 
BRANCH  72  75
ATOM     75  C25 non d ame     -30.556  14.855  23.454  0.00  0.00    -0.001 C 
ATOM     76  C26 non d ame     -30.360  15.907  22.206  0.00  0.00    -0.035 C 
ATOM     77  C27 non d ame     -29.530  15.351  21.292  0.00  0.00     0.085 C 
ATOM     78  H38 non d ame     -31.298  16.021  21.662  0.00  0.00     0.036 H 
ATOM     79  H39 non d ame     -29.815  16.789  22.542  0.00  0.00     0.036 H 
ATOM     80  N5  non d ame     -29.402  13.888  21.645  0.00  0.00    -0.049 N 
ATOM     81  H40 non d ame     -30.046  15.442  20.336  0.00  0.00     0.075 H 
ATOM     82  H41 non d ame     -28.567  15.837  21.440  0.00  0.00     0.075 H 
ATOM     83  C28 non d ame     -29.982  13.740  23.144  0.00  0.00     0.193 C 
ATOM     84  H42 non d ame     -30.011  13.387  21.014  0.00  0.00     0.280 HD
ATOM     85  H43 non d ame     -28.413  13.684  21.660  0.00  0.00     0.280 HD
ATOM     86  H44 non d ame     -29.304  13.624  23.990  0.00  0.00     0.129 H 
ATOM     87  H37 non d ame     -29.988  15.052  24.363  0.00  0.00     0.046 H 
BRANCH  83  88
ATOM     88  O6  non d ame     -30.881  12.632  23.218  0.00  0.00    -0.369 OA
ATOM     89  H45 non d ame     -31.411  12.703  24.016  0.00  0.00     0.212 HD
ENDBRANCH  83  88
ENDBRANCH  72  75
ENDBRANCH  47  72
ENDBRANCH  45  47
ENDBRANCH   1  43
BRANCH   1  90
ATOM     90  C16 non d ame     -32.925  10.297  27.742  0.00  0.00    -0.035 C 
ATOM     91  H21 non d ame     -32.287   9.421  27.846  0.00  0.00     0.037 H 
ATOM     92  H22 non d ame     -32.656  11.230  28.239  0.00  0.00     0.037 H 
BRANCH  90  93
ATOM     93  C17 non d ame     -34.327   9.889  28.298  0.00  0.00    -0.059 C 
ATOM     94  H23 non d ame     -34.769  10.773  28.758  0.00  0.00     0.038 H 
BRANCH  93  95
ATOM     95  C18 non d ame     -35.291   9.408  27.167  0.00  0.00    -0.073 C 
ATOM     96  H24 non d ame     -35.022   9.892  26.228  0.00  0.00     0.028 H 
ATOM     97  H25 non d ame     -35.207   8.327  27.054  0.00  0.00     0.028 H 
ATOM     98  H26 non d ame     -36.317   9.667  27.429  0.00  0.00     0.028 H 
ENDBRANCH  93  95
BRANCH  93  99
ATOM     99  C19 non d ame     -34.194   8.825  29.390  0.00  0.00    -0.073 C 
ATOM    100  H27 non d ame     -33.142   8.563  29.516  0.00  0.00     0.028 H 
ATOM    101  H28 non d ame     -34.585   9.216  30.329  0.00  0.00     0.028 H 
ATOM    102  H29 non d ame     -34.758   7.937  29.103  0.00  0.00     0.028 H 
ENDBRANCH  93  99
ENDBRANCH  90  93
ENDBRANCH   1  90
TORSDOF 26
ENDMDL
MODEL 14
REMARK VINA RESULT:      -6.9      2.875      8.204
REMARK  26 active torsions:
REMARK  status: ('A' for Active; 'I' for Inactive)
REMARK    1  A    between atoms: C2_2  and  C3_3 
REMARK    2  A    between atoms: C4_6  and  C5_7 
REMARK       I    between atoms: C5_7  and  N2_9 
REMARK    3  A    between atoms: N2_9  and  C6_10 
REMARK    4  A    between atoms: C6_10  and  C7_11 
REMARK    5  A    between atoms: C6_10  and  C8_13 
REMARK       I    between atoms: C7_11  and  N3_14 
REMARK    6  A    between atoms: N3_14  and  C9_15 
REMARK    7  A    between atoms: C9_15  and  C10_16 
REMARK    8  A    between atoms: C9_15  and  C11_18 
REMARK       I    between atoms: C10_16  and  N4_21 
REMARK    9  A    between atoms: C11_18  and  C12_19 
REMARK   10  A    between atoms: C11_18  and  C13_20 
REMARK   11  A    between atoms: N4_21  and  C14_22 
REMARK   12  A    between atoms: C14_22  and  C15_23 
REMARK   13  A    between atoms: C14_22  and  C16_25 
REMARK       I    between atoms: C15_23  and  N6_40 
REMARK   14  A    between atoms: C16_25  and  C17_26 
REMARK   15  A    between atoms: C17_26  and  C18_27 
REMARK   16  A    between atoms: C17_26  and  C19_28 
REMARK   17  A    between atoms: C20_29  and  C21_30 
REMARK   18  A    between atoms: C20_29  and  C24_33 
REMARK   19  A    between atoms: C20_29  and  N6_40 
REMARK   20  A    between atoms: C21_30  and  C22_31 
REMARK   21  A    between atoms: C22_31  and  C23_32 
REMARK   22  A    between atoms: C23_32  and  O8_43 
REMARK   23  A    between atoms: C24_33  and  C25_34 
REMARK   24  A    between atoms: C28_38  and  O6_39 
REMARK   25  A    between atoms: C29_42  and  O8_43 
REMARK   26  A    between atoms: C29_42  and  C35_49 
ROOT
ATOM      1  C14 non d ame     -35.236   8.585  30.148  0.00  0.00     0.089 C 
ATOM      2  H20 non d ame     -35.345   8.961  31.165  0.00  0.00     0.087 H 
ENDROOT
BRANCH   1   3
ATOM      3  N4  non d ame     -34.154   9.329  29.520  0.00  0.00    -0.346 N 
ATOM      4  C10 non d ame     -33.403  10.381  30.294  0.00  0.00     0.241 C 
ATOM      5  O4  non d ame     -33.687  10.613  31.423  0.00  0.00    -0.271 OA
ATOM      6  H19 non d ame     -33.930   9.118  28.558  0.00  0.00     0.163 HD
BRANCH   4   7
ATOM      7  C9  non d ame     -32.283  11.138  29.629  0.00  0.00     0.092 C 
ATOM      8  H11 non d ame     -31.548  10.430  29.248  0.00  0.00     0.088 H 
BRANCH   7   9
ATOM      9  N3  non d ame     -32.810  11.879  28.479  0.00  0.00    -0.346 N 
ATOM     10  C7  non d ame     -32.032  11.979  27.269  0.00  0.00     0.240 C 
ATOM     11  O3  non d ame     -30.980  11.470  27.204  0.00  0.00    -0.271 OA
ATOM     12  H10 non d ame     -33.715  12.325  28.522  0.00  0.00     0.163 HD
BRANCH  10  13
ATOM     13  C6  non d ame     -32.595  12.772  26.049  0.00  0.00     0.086 C 
ATOM     14  H6  non d ame     -33.661  12.603  25.893  0.00  0.00     0.086 H 
BRANCH  13  15
ATOM     15  N2  non d ame     -32.432  14.195  26.295  0.00  0.00    -0.343 N 
ATOM     16  C5  non d ame     -33.465  14.923  27.033  0.00  0.00     0.273 C 
ATOM     17  O2  non d ame     -34.427  14.357  27.422  0.00  0.00    -0.266 OA
ATOM     18  H5  non d ame     -31.609  14.672  25.955  0.00  0.00     0.163 HD
BRANCH  16  19
ATOM     19  C4  non d ame     -33.304  16.428  27.300  0.00  0.00     0.154 A 
ATOM     20  C1  non d ame     -33.258  17.478  26.329  0.00  0.00    -0.017 A 
ATOM     21  C2  non d ame     -33.100  18.663  27.083  0.00  0.00     0.077 A 
ATOM     22  H1  non d ame     -33.328  17.394  25.245  0.00  0.00     0.091 H 
ATOM     23  O1  non d ame     -33.063  18.322  28.338  0.00  0.00    -0.218 OA
ATOM     24  N1  non d ame     -33.180  17.023  28.489  0.00  0.00    -0.123 NA
BRANCH  21  25
ATOM     25  C3  non d ame     -32.994  20.077  26.529  0.00  0.00    -0.029 C 
ATOM     26  H2  non d ame     -33.728  20.212  25.735  0.00  0.00     0.036 H 
ATOM     27  H3  non d ame     -33.188  20.795  27.326  0.00  0.00     0.036 H 
ATOM     28  H4  non d ame     -31.993  20.238  26.130  0.00  0.00     0.036 H 
ENDBRANCH  21  25
ENDBRANCH  16  19
ENDBRANCH  13  15
BRANCH  13  29
ATOM     29  C8  non d ame     -31.851  12.373  24.800  0.00  0.00    -0.049 C 
ATOM     30  H7  non d ame     -31.263  13.217  24.443  0.00  0.00     0.030 H 
ATOM     31  H8  non d ame     -31.188  11.537  25.023  0.00  0.00     0.030 H 
ATOM     32  H9  non d ame     -32.566  12.076  24.031  0.00  0.00     0.030 H 
ENDBRANCH  13  29
ENDBRANCH  10  13
ENDBRANCH   7   9
BRANCH   7  33
ATOM     33  C11 non d ame     -31.660  12.139  30.646  0.00  0.00    -0.033 C 
ATOM     34  H12 non d ame     -32.226  12.061  31.574  0.00  0.00     0.042 H 
BRANCH  33  35
ATOM     35  C12 non d ame     -30.178  11.771  30.969  0.00  0.00    -0.071 C 
ATOM     36  H13 non d ame     -29.528  12.161  30.185  0.00  0.00     0.028 H 
ATOM     37  H14 non d ame     -29.895  12.208  31.926  0.00  0.00     0.028 H 
ATOM     38  H15 non d ame     -30.075  10.687  31.018  0.00  0.00     0.028 H 
ENDBRANCH  33  35
BRANCH  33  39
ATOM     39  C13 non d ame     -31.779  13.608  30.129  0.00  0.00    -0.071 C 
ATOM     40  H16 non d ame     -31.106  14.250  30.698  0.00  0.00     0.028 H 
ATOM     41  H17 non d ame     -31.512  13.646  29.073  0.00  0.00     0.028 H 
ATOM     42  H18 non d ame     -32.805  13.956  30.255  0.00  0.00     0.028 H 
ENDBRANCH  33  39
ENDBRANCH   7  33
ENDBRANCH   4   7
ENDBRANCH   1   3
BRANCH   1  43
ATOM     43  C15 non d ame     -34.877   7.070  30.119  0.00  0.00     0.240 C 
ATOM     44  O5  non d ame     -34.987   6.418  31.106  0.00  0.00    -0.271 OA
ATOM     45  N6  non d ame     -34.407   6.432  28.857  0.00  0.00    -0.355 N 
ATOM     46  H46 non d ame     -34.315   6.975  28.010  0.00  0.00     0.162 HD
BRANCH  45  47
ATOM     47  C20 non d ame     -34.072   4.991  28.845  0.00  0.00     0.013 C 
ATOM     48  H30 non d ame     -34.056   4.644  29.878  0.00  0.00     0.072 H 
BRANCH  47  49
ATOM     49  C21 non d ame     -32.712   4.799  28.213  0.00  0.00    -0.038 C 
ATOM     50  H31 non d ame     -32.007   4.746  29.042  0.00  0.00     0.036 H 
ATOM     51  H32 non d ame     -32.821   3.953  27.533  0.00  0.00     0.036 H 
BRANCH  49  52
ATOM     52  C22 non d ame     -32.279   6.002  27.346  0.00  0.00     0.018 C 
ATOM     53  H33 non d ame     -32.929   6.826  27.640  0.00  0.00     0.048 H 
ATOM     54  H34 non d ame     -31.200   6.085  27.476  0.00  0.00     0.048 H 
BRANCH  52  55
ATOM     55  C23 non d ame     -32.512   5.794  25.824  0.00  0.00     0.259 C 
ATOM     56  O7  non d ame     -32.932   4.759  25.415  0.00  0.00    -0.265 OA
BRANCH  55  57
ATOM     57  O8  non d ame     -32.205   6.849  24.921  0.00  0.00    -0.317 OA
BRANCH  57  58
ATOM     58  C29 non d ame     -31.761   6.405  23.635  0.00  0.00     0.052 C 
ATOM     59  H47 non d ame     -31.214   5.480  23.815  0.00  0.00     0.082 H 
ATOM     60  H48 non d ame     -32.648   6.400  23.003  0.00  0.00     0.082 H 
BRANCH  58  61
ATOM     61  C35 non d ame     -30.770   7.462  23.080  0.00  0.00    -0.034 A 
ATOM     62  C30 non d ame     -29.455   7.103  22.797  0.00  0.00    -0.075 A 
ATOM     63  C31 non d ame     -28.564   8.052  22.299  0.00  0.00    -0.082 A 
ATOM     64  H49 non d ame     -29.123   6.079  22.967  0.00  0.00     0.084 H 
ATOM     65  C32 non d ame     -28.991   9.365  22.084  0.00  0.00    -0.083 A 
ATOM     66  H50 non d ame     -27.535   7.767  22.076  0.00  0.00     0.083 H 
ATOM     67  C33 non d ame     -30.302   9.720  22.372  0.00  0.00    -0.082 A 
ATOM     68  H51 non d ame     -28.301  10.114  21.694  0.00  0.00     0.083 H 
ATOM     69  C34 non d ame     -31.197   8.774  22.868  0.00  0.00    -0.075 A 
ATOM     70  H52 non d ame     -30.632  10.746  22.206  0.00  0.00     0.083 H 
ATOM     71  H53 non d ame     -32.225   9.059  23.090  0.00  0.00     0.084 H 
ENDBRANCH  58  61
ENDBRANCH  57  58
ENDBRANCH  55  57
ENDBRANCH  52  55
ENDBRANCH  49  52
ENDBRANCH  47  49
BRANCH  47  72
ATOM     72  C24 non d ame     -35.121   4.223  28.044  0.00  0.00    -0.039 C 
ATOM     73  H35 non d ame     -34.613   3.902  27.134  0.00  0.00     0.036 H 
ATOM     74  H36 non d ame     -35.526   3.481  28.732  0.00  0.00     0.036 H 
BRANCH  72  75
ATOM     75  C25 non d ame     -36.336   5.168  27.599  0.00  0.00    -0.001 C 
ATOM     76  C26 non d ame     -37.682   4.794  28.465  0.00  0.00    -0.035 C 
ATOM     77  C27 non d ame     -38.712   4.596  27.608  0.00  0.00     0.085 C 
ATOM     78  H38 non d ame     -37.561   3.824  28.946  0.00  0.00     0.036 H 
ATOM     79  H39 non d ame     -38.001   5.657  29.051  0.00  0.00     0.036 H 
ATOM     80  N5  non d ame     -38.118   4.478  26.224  0.00  0.00    -0.049 N 
ATOM     81  H40 non d ame     -39.147   3.638  27.892  0.00  0.00     0.075 H 
ATOM     82  H41 non d ame     -39.313   5.503  27.660  0.00  0.00     0.075 H 
ATOM     83  C28 non d ame     -36.604   5.024  26.344  0.00  0.00     0.193 C 
ATOM     84  H42 non d ame     -38.089   3.492  26.009  0.00  0.00     0.280 HD
ATOM     85  H43 non d ame     -38.642   5.109  25.635  0.00  0.00     0.280 HD
ATOM     86  H44 non d ame     -36.342   6.015  25.971  0.00  0.00     0.129 H 
ATOM     87  H37 non d ame     -36.048   6.218  27.557  0.00  0.00     0.046 H 
BRANCH  83  88
ATOM     88  O6  non d ame     -35.702   4.122  25.700  0.00  0.00    -0.369 OA
ATOM     89  H45 non d ame     -35.903   4.083  24.761  0.00  0.00     0.212 HD
ENDBRANCH  83  88
ENDBRANCH  72  75
ENDBRANCH  47  72
ENDBRANCH  45  47
ENDBRANCH   1  43
BRANCH   1  90
ATOM     90  C16 non d ame     -36.520   8.821  29.370  0.00  0.00    -0.035 C 
ATOM     91  H21 non d ame     -36.710   9.890  29.446  0.00  0.00     0.037 H 
ATOM     92  H22 non d ame     -36.355   8.363  28.395  0.00  0.00     0.037 H 
BRANCH  90  93
ATOM     93  C17 non d ame     -37.765   8.107  29.987  0.00  0.00    -0.059 C 
ATOM     94  H23 non d ame     -37.549   7.040  30.024  0.00  0.00     0.038 H 
BRANCH  93  95
ATOM     95  C18 non d ame     -38.056   8.585  31.445  0.00  0.00    -0.073 C 
ATOM     96  H24 non d ame     -39.054   9.023  31.493  0.00  0.00     0.028 H 
ATOM     97  H25 non d ame     -38.002   7.734  32.124  0.00  0.00     0.028 H 
ATOM     98  H26 non d ame     -37.318   9.332  31.738  0.00  0.00     0.028 H 
ENDBRANCH  93  95
BRANCH  93  99
ATOM     99  C19 non d ame     -38.998   8.292  29.098  0.00  0.00    -0.073 C 
ATOM    100  H27 non d ame     -38.689   8.327  28.052  0.00  0.00     0.028 H 
ATOM    101  H28 non d ame     -39.682   7.457  29.245  0.00  0.00     0.028 H 
ATOM    102  H29 non d ame     -39.499   9.224  29.360  0.00  0.00     0.028 H 
ENDBRANCH  93  99
ENDBRANCH  90  93
ENDBRANCH   1  90
TORSDOF 26
ENDMDL
MODEL 15
REMARK VINA RESULT:      -6.9      2.631      7.154
REMARK  26 active torsions:
REMARK  status: ('A' for Active; 'I' for Inactive)
REMARK    1  A    between atoms: C2_2  and  C3_3 
REMARK    2  A    between atoms: C4_6  and  C5_7 
REMARK       I    between atoms: C5_7  and  N2_9 
REMARK    3  A    between atoms: N2_9  and  C6_10 
REMARK    4  A    between atoms: C6_10  and  C7_11 
REMARK    5  A    between atoms: C6_10  and  C8_13 
REMARK       I    between atoms: C7_11  and  N3_14 
REMARK    6  A    between atoms: N3_14  and  C9_15 
REMARK    7  A    between atoms: C9_15  and  C10_16 
REMARK    8  A    between atoms: C9_15  and  C11_18 
REMARK       I    between atoms: C10_16  and  N4_21 
REMARK    9  A    between atoms: C11_18  and  C12_19 
REMARK   10  A    between atoms: C11_18  and  C13_20 
REMARK   11  A    between atoms: N4_21  and  C14_22 
REMARK   12  A    between atoms: C14_22  and  C15_23 
REMARK   13  A    between atoms: C14_22  and  C16_25 
REMARK       I    between atoms: C15_23  and  N6_40 
REMARK   14  A    between atoms: C16_25  and  C17_26 
REMARK   15  A    between atoms: C17_26  and  C18_27 
REMARK   16  A    between atoms: C17_26  and  C19_28 
REMARK   17  A    between atoms: C20_29  and  C21_30 
REMARK   18  A    between atoms: C20_29  and  C24_33 
REMARK   19  A    between atoms: C20_29  and  N6_40 
REMARK   20  A    between atoms: C21_30  and  C22_31 
REMARK   21  A    between atoms: C22_31  and  C23_32 
REMARK   22  A    between atoms: C23_32  and  O8_43 
REMARK   23  A    between atoms: C24_33  and  C25_34 
REMARK   24  A    between atoms: C28_38  and  O6_39 
REMARK   25  A    between atoms: C29_42  and  O8_43 
REMARK   26  A    between atoms: C29_42  and  C35_49 
ROOT
ATOM      1  C14 non d ame     -35.861  10.049  26.279  0.00  0.00     0.089 C 
ATOM      2  H20 non d ame     -36.882   9.808  26.576  0.00  0.00     0.087 H 
ENDROOT
BRANCH   1   3
ATOM      3  N4  non d ame     -35.030   9.981  27.472  0.00  0.00    -0.346 N 
ATOM      4  C10 non d ame     -35.636  10.194  28.836  0.00  0.00     0.241 C 
ATOM      5  O4  non d ame     -36.795  10.422  28.949  0.00  0.00    -0.271 OA
ATOM      6  H19 non d ame     -34.045   9.788  27.354  0.00  0.00     0.163 HD
BRANCH   4   7
ATOM      7  C9  non d ame     -34.762  10.115  30.060  0.00  0.00     0.092 C 
ATOM      8  H11 non d ame     -34.081   9.270  29.961  0.00  0.00     0.088 H 
BRANCH   7   9
ATOM      9  N3  non d ame     -33.941  11.326  30.154  0.00  0.00    -0.346 N 
ATOM     10  C7  non d ame     -32.659  11.379  29.497  0.00  0.00     0.240 C 
ATOM     11  O3  non d ame     -32.272  10.457  28.889  0.00  0.00    -0.271 OA
ATOM     12  H10 non d ame     -34.261  12.128  30.677  0.00  0.00     0.163 HD
BRANCH  10  13
ATOM     13  C6  non d ame     -31.788  12.669  29.603  0.00  0.00     0.086 C 
ATOM     14  H6  non d ame     -31.054  12.750  28.801  0.00  0.00     0.086 H 
BRANCH  13  15
ATOM     15  N2  non d ame     -32.652  13.832  29.495  0.00  0.00    -0.343 N 
ATOM     16  C5  non d ame     -32.364  14.854  28.486  0.00  0.00     0.273 C 
ATOM     17  O2  non d ame     -31.432  14.733  27.769  0.00  0.00    -0.266 OA
ATOM     18  H5  non d ame     -33.444  13.929  30.114  0.00  0.00     0.163 HD
BRANCH  16  19
ATOM     19  C4  non d ame     -33.270  16.089  28.360  0.00  0.00     0.154 A 
ATOM     20  C1  non d ame     -34.657  16.111  28.009  0.00  0.00    -0.017 A 
ATOM     21  C2  non d ame     -35.015  17.477  28.033  0.00  0.00     0.077 A 
ATOM     22  H1  non d ame     -35.303  15.266  27.772  0.00  0.00     0.091 H 
ATOM     23  O1  non d ame     -33.953  18.151  28.362  0.00  0.00    -0.218 OA
ATOM     24  N1  non d ame     -32.922  17.363  28.558  0.00  0.00    -0.123 NA
BRANCH  21  25
ATOM     25  C3  non d ame     -36.392  18.053  27.731  0.00  0.00    -0.029 C 
ATOM     26  H2  non d ame     -36.305  18.818  26.959  0.00  0.00     0.036 H 
ATOM     27  H3  non d ame     -37.050  17.258  27.380  0.00  0.00     0.036 H 
ATOM     28  H4  non d ame     -36.808  18.496  28.636  0.00  0.00     0.036 H 
ENDBRANCH  21  25
ENDBRANCH  16  19
ENDBRANCH  13  15
BRANCH  13  29
ATOM     29  C8  non d ame     -31.065  12.684  30.926  0.00  0.00    -0.049 C 
ATOM     30  H7  non d ame     -31.699  12.238  31.692  0.00  0.00     0.030 H 
ATOM     31  H8  non d ame     -30.141  12.112  30.843  0.00  0.00     0.030 H 
ATOM     32  H9  non d ame     -30.832  13.713  31.202  0.00  0.00     0.030 H 
ENDBRANCH  13  29
ENDBRANCH  10  13
ENDBRANCH   7   9
BRANCH   7  33
ATOM     33  C11 non d ame     -35.658   9.999  31.329  0.00  0.00    -0.033 C 
ATOM     34  H12 non d ame     -36.675  10.263  31.039  0.00  0.00     0.042 H 
BRANCH  33  35
ATOM     35  C12 non d ame     -35.689   8.536  31.870  0.00  0.00    -0.071 C 
ATOM     36  H13 non d ame     -36.676   8.106  31.698  0.00  0.00     0.028 H 
ATOM     37  H14 non d ame     -34.938   7.940  31.353  0.00  0.00     0.028 H 
ATOM     38  H15 non d ame     -35.478   8.539  32.940  0.00  0.00     0.028 H 
ENDBRANCH  33  35
BRANCH  33  39
ATOM     39  C13 non d ame     -35.195  11.002  32.433  0.00  0.00    -0.071 C 
ATOM     40  H16 non d ame     -36.010  11.168  33.139  0.00  0.00     0.028 H 
ATOM     41  H17 non d ame     -34.334  10.591  32.962  0.00  0.00     0.028 H 
ATOM     42  H18 non d ame     -34.917  11.949  31.971  0.00  0.00     0.028 H 
ENDBRANCH  33  39
ENDBRANCH   7  33
ENDBRANCH   4   7
ENDBRANCH   1   3
BRANCH   1  43
ATOM     43  C15 non d ame     -35.302   9.046  25.229  0.00  0.00     0.240 C 
ATOM     44  O5  non d ame     -36.053   8.421  24.552  0.00  0.00    -0.271 OA
ATOM     45  N6  non d ame     -33.832   8.872  25.060  0.00  0.00    -0.355 N 
ATOM     46  H46 non d ame     -33.184   9.401  25.626  0.00  0.00     0.162 HD
BRANCH  45  47
ATOM     47  C20 non d ame     -33.318   7.915  24.056  0.00  0.00     0.013 C 
ATOM     48  H30 non d ame     -34.164   7.345  23.673  0.00  0.00     0.072 H 
BRANCH  47  49
ATOM     49  C21 non d ame     -32.323   6.986  24.715  0.00  0.00    -0.038 C 
ATOM     50  H31 non d ame     -31.763   6.529  23.899  0.00  0.00     0.036 H 
ATOM     51  H32 non d ame     -31.806   7.589  25.461  0.00  0.00     0.036 H 
BRANCH  49  52
ATOM     52  C22 non d ame     -33.001   5.829  25.482  0.00  0.00     0.018 C 
ATOM     53  H33 non d ame     -34.037   5.821  25.148  0.00  0.00     0.048 H 
ATOM     54  H34 non d ame     -32.367   4.957  25.319  0.00  0.00     0.048 H 
BRANCH  52  55
ATOM     55  C23 non d ame     -33.048   6.042  27.021  0.00  0.00     0.259 C 
ATOM     56  O7  non d ame     -32.289   5.468  27.732  0.00  0.00    -0.265 OA
BRANCH  55  57
ATOM     57  O8  non d ame     -34.020   6.922  27.573  0.00  0.00    -0.317 OA
BRANCH  57  58
ATOM     58  C29 non d ame     -34.436   6.574  28.896  0.00  0.00     0.052 C 
ATOM     59  H47 non d ame     -33.939   5.631  29.123  0.00  0.00     0.082 H 
ATOM     60  H48 non d ame     -34.243   7.454  29.508  0.00  0.00     0.082 H 
BRANCH  58  61
ATOM     61  C35 non d ame     -35.969   6.326  28.866  0.00  0.00    -0.034 A 
ATOM     62  C30 non d ame     -36.588   5.664  29.922  0.00  0.00    -0.075 A 
ATOM     63  C31 non d ame     -37.964   5.441  29.895  0.00  0.00    -0.082 A 
ATOM     64  H49 non d ame     -35.995   5.319  30.770  0.00  0.00     0.084 H 
ATOM     65  C32 non d ame     -38.721   5.881  28.806  0.00  0.00    -0.083 A 
ATOM     66  H50 non d ame     -38.446   4.923  30.725  0.00  0.00     0.083 H 
ATOM     67  C33 non d ame     -38.098   6.538  27.754  0.00  0.00    -0.082 A 
ATOM     68  H51 non d ame     -39.798   5.712  28.778  0.00  0.00     0.083 H 
ATOM     69  C34 non d ame     -36.724   6.765  27.777  0.00  0.00    -0.075 A 
ATOM     70  H52 non d ame     -38.692   6.879  26.904  0.00  0.00     0.083 H 
ATOM     71  H53 non d ame     -36.242   7.283  26.948  0.00  0.00     0.084 H 
ENDBRANCH  58  61
ENDBRANCH  57  58
ENDBRANCH  55  57
ENDBRANCH  52  55
ENDBRANCH  49  52
ENDBRANCH  47  49
BRANCH  47  72
ATOM     72  C24 non d ame     -32.633   8.675  22.922  0.00  0.00    -0.039 C 
ATOM     73  H35 non d ame     -32.609   7.980  22.081  0.00  0.00     0.036 H 
ATOM     74  H36 non d ame     -33.176   9.616  22.835  0.00  0.00     0.036 H 
BRANCH  72  75
ATOM     75  C25 non d ame     -31.115   9.035  23.281  0.00  0.00    -0.001 C 
ATOM     76  C26 non d ame     -30.964  10.655  23.514  0.00  0.00    -0.035 C 
ATOM     77  C27 non d ame     -29.941  11.113  22.754  0.00  0.00     0.085 C 
ATOM     78  H38 non d ame     -31.833  11.174  23.111  0.00  0.00     0.036 H 
ATOM     79  H39 non d ame     -30.633  10.858  24.534  0.00  0.00     0.036 H 
ATOM     80  N5  non d ame     -29.592  10.015  21.777  0.00  0.00    -0.049 N 
ATOM     81  H40 non d ame     -30.344  11.963  22.204  0.00  0.00     0.075 H 
ATOM     82  H41 non d ame     -29.108  11.254  23.441  0.00  0.00     0.075 H 
ATOM     83  C28 non d ame     -30.314   8.682  22.332  0.00  0.00     0.193 C 
ATOM     84  H42 non d ame     -30.018  10.269  20.898  0.00  0.00     0.280 HD
ATOM     85  H43 non d ame     -28.592   9.888  21.836  0.00  0.00     0.280 HD
ATOM     86  H44 non d ame     -29.734   7.910  22.839  0.00  0.00     0.129 H 
ATOM     87  H37 non d ame     -30.707   8.383  24.053  0.00  0.00     0.046 H 
BRANCH  83  88
ATOM     88  O6  non d ame     -30.997   8.013  21.270  0.00  0.00    -0.369 OA
ATOM     89  H45 non d ame     -30.367   7.768  20.588  0.00  0.00     0.212 HD
ENDBRANCH  83  88
ENDBRANCH  72  75
ENDBRANCH  47  72
ENDBRANCH  45  47
ENDBRANCH   1  43
BRANCH   1  90
ATOM     90  C16 non d ame     -35.807  11.460  25.717  0.00  0.00    -0.035 C 
ATOM     91  H21 non d ame     -35.448  12.084  26.534  0.00  0.00     0.037 H 
ATOM     92  H22 non d ame     -35.229  11.382  24.796  0.00  0.00     0.037 H 
BRANCH  90  93
ATOM     93  C17 non d ame     -37.206  12.027  25.313  0.00  0.00    -0.059 C 
ATOM     94  H23 non d ame     -37.816  11.189  24.975  0.00  0.00     0.038 H 
BRANCH  93  95
ATOM     95  C18 non d ame     -37.941  12.695  26.518  0.00  0.00    -0.073 C 
ATOM     96  H24 non d ame     -37.259  13.374  27.030  0.00  0.00     0.028 H 
ATOM     97  H25 non d ame     -38.802  13.255  26.153  0.00  0.00     0.028 H 
ATOM     98  H26 non d ame     -38.277  11.925  27.212  0.00  0.00     0.028 H 
ENDBRANCH  93  95
BRANCH  93  99
ATOM     99  C19 non d ame     -37.083  13.003  24.140  0.00  0.00    -0.073 C 
ATOM    100  H27 non d ame     -36.403  13.812  24.411  0.00  0.00     0.028 H 
ATOM    101  H28 non d ame     -36.693  12.478  23.268  0.00  0.00     0.028 H 
ATOM    102  H29 non d ame     -38.065  13.416  23.907  0.00  0.00     0.028 H 
ENDBRANCH  93  99
ENDBRANCH  90  93
ENDBRANCH   1  90
TORSDOF 26
ENDMDL
MODEL 16
REMARK VINA RESULT:      -6.9      2.497      6.797
REMARK  26 active torsions:
REMARK  status: ('A' for Active; 'I' for Inactive)
REMARK    1  A    between atoms: C2_2  and  C3_3 
REMARK    2  A    between atoms: C4_6  and  C5_7 
REMARK       I    between atoms: C5_7  and  N2_9 
REMARK    3  A    between atoms: N2_9  and  C6_10 
REMARK    4  A    between atoms: C6_10  and  C7_11 
REMARK    5  A    between atoms: C6_10  and  C8_13 
REMARK       I    between atoms: C7_11  and  N3_14 
REMARK    6  A    between atoms: N3_14  and  C9_15 
REMARK    7  A    between atoms: C9_15  and  C10_16 
REMARK    8  A    between atoms: C9_15  and  C11_18 
REMARK       I    between atoms: C10_16  and  N4_21 
REMARK    9  A    between atoms: C11_18  and  C12_19 
REMARK   10  A    between atoms: C11_18  and  C13_20 
REMARK   11  A    between atoms: N4_21  and  C14_22 
REMARK   12  A    between atoms: C14_22  and  C15_23 
REMARK   13  A    between atoms: C14_22  and  C16_25 
REMARK       I    between atoms: C15_23  and  N6_40 
REMARK   14  A    between atoms: C16_25  and  C17_26 
REMARK   15  A    between atoms: C17_26  and  C18_27 
REMARK   16  A    between atoms: C17_26  and  C19_28 
REMARK   17  A    between atoms: C20_29  and  C21_30 
REMARK   18  A    between atoms: C20_29  and  C24_33 
REMARK   19  A    between atoms: C20_29  and  N6_40 
REMARK   20  A    between atoms: C21_30  and  C22_31 
REMARK   21  A    between atoms: C22_31  and  C23_32 
REMARK   22  A    between atoms: C23_32  and  O8_43 
REMARK   23  A    between atoms: C24_33  and  C25_34 
REMARK   24  A    between atoms: C28_38  and  O6_39 
REMARK   25  A    between atoms: C29_42  and  O8_43 
REMARK   26  A    between atoms: C29_42  and  C35_49 
ROOT
ATOM      1  C14 non d ame     -34.261   9.730  27.129  0.00  0.00     0.089 C 
ATOM      2  H20 non d ame     -33.587   9.090  27.698  0.00  0.00     0.087 H 
ENDROOT
BRANCH   1   3
ATOM      3  N4  non d ame     -33.662  11.055  27.070  0.00  0.00    -0.346 N 
ATOM      4  C10 non d ame     -32.168  11.210  26.937  0.00  0.00     0.241 C 
ATOM      5  O4  non d ame     -31.467  10.254  26.881  0.00  0.00    -0.271 OA
ATOM      6  H19 non d ame     -34.275  11.856  27.122  0.00  0.00     0.163 HD
BRANCH   4   7
ATOM      7  C9  non d ame     -31.565  12.589  26.873  0.00  0.00     0.092 C 
ATOM      8  H11 non d ame     -30.546  12.517  26.495  0.00  0.00     0.088 H 
BRANCH   7   9
ATOM      9  N3  non d ame     -32.323  13.411  25.925  0.00  0.00    -0.346 N 
ATOM     10  C7  non d ame     -31.627  14.281  25.009  0.00  0.00     0.240 C 
ATOM     11  O3  non d ame     -30.457  14.332  25.022  0.00  0.00    -0.271 OA
ATOM     12  H10 non d ame     -33.332  13.378  25.904  0.00  0.00     0.163 HD
BRANCH  10  13
ATOM     13  C6  non d ame     -32.438  15.156  24.004  0.00  0.00     0.086 C 
ATOM     14  H6  non d ame     -33.189  14.584  23.459  0.00  0.00     0.086 H 
BRANCH  13  15
ATOM     15  N2  non d ame     -33.153  16.183  24.743  0.00  0.00    -0.343 N 
ATOM     16  C5  non d ame     -34.520  15.924  25.200  0.00  0.00     0.273 C 
ATOM     17  O2  non d ame     -35.038  14.887  24.964  0.00  0.00    -0.266 OA
ATOM     18  H5  non d ame     -32.705  17.067  24.937  0.00  0.00     0.163 HD
BRANCH  16  19
ATOM     19  C4  non d ame     -35.288  17.001  25.983  0.00  0.00     0.154 A 
ATOM     20  C1  non d ame     -34.742  17.964  26.889  0.00  0.00    -0.017 A 
ATOM     21  C2  non d ame     -35.854  18.712  27.336  0.00  0.00     0.077 A 
ATOM     22  H1  non d ame     -33.700  18.100  27.178  0.00  0.00     0.091 H 
ATOM     23  O1  non d ame     -36.908  18.229  26.749  0.00  0.00    -0.218 OA
ATOM     24  N1  non d ame     -36.603  17.229  25.954  0.00  0.00    -0.123 NA
BRANCH  21  25
ATOM     25  C3  non d ame     -35.822  19.872  28.323  0.00  0.00    -0.029 C 
ATOM     26  H2  non d ame     -36.161  20.781  27.826  0.00  0.00     0.036 H 
ATOM     27  H3  non d ame     -36.481  19.652  29.163  0.00  0.00     0.036 H 
ATOM     28  H4  non d ame     -34.805  20.014  28.686  0.00  0.00     0.036 H 
ENDBRANCH  21  25
ENDBRANCH  16  19
ENDBRANCH  13  15
BRANCH  13  29
ATOM     29  C8  non d ame     -31.497  15.792  23.014  0.00  0.00    -0.049 C 
ATOM     30  H7  non d ame     -30.729  16.350  23.548  0.00  0.00     0.030 H 
ATOM     31  H8  non d ame     -31.027  15.017  22.408  0.00  0.00     0.030 H 
ATOM     32  H9  non d ame     -32.055  16.471  22.367  0.00  0.00     0.030 H 
ENDBRANCH  13  29
ENDBRANCH  10  13
ENDBRANCH   7   9
BRANCH   7  33
ATOM     33  C11 non d ame     -31.622  13.245  28.284  0.00  0.00    -0.033 C 
ATOM     34  H12 non d ame     -31.759  12.446  29.013  0.00  0.00     0.042 H 
BRANCH  33  35
ATOM     35  C12 non d ame     -30.282  13.969  28.628  0.00  0.00    -0.071 C 
ATOM     36  H13 non d ame     -29.978  13.707  29.642  0.00  0.00     0.028 H 
ATOM     37  H14 non d ame     -29.510  13.658  27.926  0.00  0.00     0.028 H 
ATOM     38  H15 non d ame     -30.424  15.047  28.560  0.00  0.00     0.028 H 
ENDBRANCH  33  35
BRANCH  33  39
ATOM     39  C13 non d ame     -32.838  14.219  28.400  0.00  0.00    -0.071 C 
ATOM     40  H16 non d ame     -33.763  13.666  28.235  0.00  0.00     0.028 H 
ATOM     41  H17 non d ame     -32.853  14.666  29.394  0.00  0.00     0.028 H 
ATOM     42  H18 non d ame     -32.747  15.005  27.651  0.00  0.00     0.028 H 
ENDBRANCH  33  39
ENDBRANCH   7  33
ENDBRANCH   4   7
ENDBRANCH   1   3
BRANCH   1  43
ATOM     43  C15 non d ame     -34.470   9.216  25.674  0.00  0.00     0.240 C 
ATOM     44  O5  non d ame     -35.473   9.477  25.094  0.00  0.00    -0.271 OA
ATOM     45  N6  non d ame     -33.413   8.407  25.003  0.00  0.00    -0.355 N 
ATOM     46  H46 non d ame     -32.554   8.183  25.484  0.00  0.00     0.162 HD
BRANCH  45  47
ATOM     47  C20 non d ame     -33.627   7.927  23.620  0.00  0.00     0.013 C 
ATOM     48  H30 non d ame     -34.691   8.008  23.398  0.00  0.00     0.072 H 
BRANCH  47  49
ATOM     49  C21 non d ame     -33.185   6.485  23.518  0.00  0.00    -0.038 C 
ATOM     50  H31 non d ame     -34.099   5.905  23.389  0.00  0.00     0.036 H 
ATOM     51  H32 non d ame     -32.415   6.467  22.746  0.00  0.00     0.036 H 
BRANCH  49  52
ATOM     52  C22 non d ame     -32.518   5.969  24.811  0.00  0.00     0.018 C 
ATOM     53  H33 non d ame     -31.736   5.284  24.487  0.00  0.00     0.048 H 
ATOM     54  H34 non d ame     -32.260   6.859  25.385  0.00  0.00     0.048 H 
BRANCH  52  55
ATOM     55  C23 non d ame     -33.468   5.138  25.717  0.00  0.00     0.259 C 
ATOM     56  O7  non d ame     -33.470   3.950  25.659  0.00  0.00    -0.265 OA
BRANCH  55  57
ATOM     57  O8  non d ame     -34.349   5.812  26.608  0.00  0.00    -0.317 OA
BRANCH  57  58
ATOM     58  C29 non d ame     -35.486   5.038  27.001  0.00  0.00     0.052 C 
ATOM     59  H47 non d ame     -36.324   5.434  26.429  0.00  0.00     0.082 H 
ATOM     60  H48 non d ame     -35.189   3.996  26.884  0.00  0.00     0.082 H 
BRANCH  58  61
ATOM     61  C35 non d ame     -35.748   5.305  28.508  0.00  0.00    -0.034 A 
ATOM     62  C30 non d ame     -37.050   5.486  28.966  0.00  0.00    -0.075 A 
ATOM     63  C31 non d ame     -37.286   5.726  30.319  0.00  0.00    -0.082 A 
ATOM     64  H49 non d ame     -37.884   5.441  28.266  0.00  0.00     0.084 H 
ATOM     65  C32 non d ame     -36.215   5.786  31.214  0.00  0.00    -0.083 A 
ATOM     66  H50 non d ame     -38.308   5.866  30.675  0.00  0.00     0.083 H 
ATOM     67  C33 non d ame     -34.919   5.609  30.751  0.00  0.00    -0.082 A 
ATOM     68  H51 non d ame     -36.392   5.973  32.274  0.00  0.00     0.083 H 
ATOM     69  C34 non d ame     -34.678   5.367  29.401  0.00  0.00    -0.075 A 
ATOM     70  H52 non d ame     -34.084   5.659  31.453  0.00  0.00     0.083 H 
ATOM     71  H53 non d ame     -33.657   5.226  29.045  0.00  0.00     0.084 H 
ENDBRANCH  58  61
ENDBRANCH  57  58
ENDBRANCH  55  57
ENDBRANCH  52  55
ENDBRANCH  49  52
ENDBRANCH  47  49
BRANCH  47  72
ATOM     72  C24 non d ame     -32.816   8.780  22.647  0.00  0.00    -0.039 C 
ATOM     73  H35 non d ame     -32.693   8.164  21.755  0.00  0.00     0.036 H 
ATOM     74  H36 non d ame     -33.345   9.731  22.583  0.00  0.00     0.036 H 
BRANCH  72  75
ATOM     75  C25 non d ame     -31.350   9.092  23.211  0.00  0.00    -0.001 C 
ATOM     76  C26 non d ame     -31.168  10.711  23.432  0.00  0.00    -0.035 C 
ATOM     77  C27 non d ame     -30.030  11.111  22.816  0.00  0.00     0.085 C 
ATOM     78  H38 non d ame     -31.949  11.252  22.899  0.00  0.00     0.036 H 
ATOM     79  H39 non d ame     -30.977  10.927  24.484  0.00  0.00     0.036 H 
ATOM     80  N5  non d ame     -29.591   9.977  21.920  0.00  0.00    -0.049 N 
ATOM     81  H40 non d ame     -30.317  11.962  22.198  0.00  0.00     0.075 H 
ATOM     82  H41 non d ame     -29.297  11.239  23.611  0.00  0.00     0.075 H 
ATOM     83  C28 non d ame     -30.438   8.686  22.393  0.00  0.00     0.193 C 
ATOM     84  H42 non d ame     -29.878  10.224  20.984  0.00  0.00     0.280 HD
ATOM     85  H43 non d ame     -28.615   9.814  22.124  0.00  0.00     0.280 HD
ATOM     86  H44 non d ame     -29.967   7.905  22.992  0.00  0.00     0.129 H 
ATOM     87  H37 non d ame     -31.082   8.445  24.046  0.00  0.00     0.046 H 
BRANCH  83  88
ATOM     88  O6  non d ame     -30.991   8.017  21.258  0.00  0.00    -0.369 OA
ATOM     89  H45 non d ame     -30.502   8.266  20.469  0.00  0.00     0.212 HD
ENDBRANCH  83  88
ENDBRANCH  72  75
ENDBRANCH  47  72
ENDBRANCH  45  47
ENDBRANCH   1  43
BRANCH   1  90
ATOM     90  C16 non d ame     -35.604   9.823  27.835  0.00  0.00    -0.035 C 
ATOM     91  H21 non d ame     -35.709  10.869  28.119  0.00  0.00     0.037 H 
ATOM     92  H22 non d ame     -36.321   9.368  27.151  0.00  0.00     0.037 H 
BRANCH  90  93
ATOM     93  C17 non d ame     -35.672   8.998  29.160  0.00  0.00    -0.059 C 
ATOM     94  H23 non d ame     -35.768   7.946  28.890  0.00  0.00     0.038 H 
BRANCH  93  95
ATOM     95  C18 non d ame     -34.376   9.152  30.018  0.00  0.00    -0.073 C 
ATOM     96  H24 non d ame     -34.632   9.104  31.076  0.00  0.00     0.028 H 
ATOM     97  H25 non d ame     -33.682   8.347  29.776  0.00  0.00     0.028 H 
ATOM     98  H26 non d ame     -33.909  10.113  29.801  0.00  0.00     0.028 H 
ENDBRANCH  93  95
BRANCH  93  99
ATOM     99  C19 non d ame     -36.912   9.374  29.975  0.00  0.00    -0.073 C 
ATOM    100  H27 non d ame     -37.208  10.396  29.736  0.00  0.00     0.028 H 
ATOM    101  H28 non d ame     -37.729   8.694  29.731  0.00  0.00     0.028 H 
ATOM    102  H29 non d ame     -36.684   9.301  31.038  0.00  0.00     0.028 H 
ENDBRANCH  93  99
ENDBRANCH  90  93
ENDBRANCH   1  90
TORSDOF 26
ENDMDL
MODEL 17
REMARK VINA RESULT:      -6.8      2.688      8.895
REMARK  26 active torsions:
REMARK  status: ('A' for Active; 'I' for Inactive)
REMARK    1  A    between atoms: C2_2  and  C3_3 
REMARK    2  A    between atoms: C4_6  and  C5_7 
REMARK       I    between atoms: C5_7  and  N2_9 
REMARK    3  A    between atoms: N2_9  and  C6_10 
REMARK    4  A    between atoms: C6_10  and  C7_11 
REMARK    5  A    between atoms: C6_10  and  C8_13 
REMARK       I    between atoms: C7_11  and  N3_14 
REMARK    6  A    between atoms: N3_14  and  C9_15 
REMARK    7  A    between atoms: C9_15  and  C10_16 
REMARK    8  A    between atoms: C9_15  and  C11_18 
REMARK       I    between atoms: C10_16  and  N4_21 
REMARK    9  A    between atoms: C11_18  and  C12_19 
REMARK   10  A    between atoms: C11_18  and  C13_20 
REMARK   11  A    between atoms: N4_21  and  C14_22 
REMARK   12  A    between atoms: C14_22  and  C15_23 
REMARK   13  A    between atoms: C14_22  and  C16_25 
REMARK       I    between atoms: C15_23  and  N6_40 
REMARK   14  A    between atoms: C16_25  and  C17_26 
REMARK   15  A    between atoms: C17_26  and  C18_27 
REMARK   16  A    between atoms: C17_26  and  C19_28 
REMARK   17  A    between atoms: C20_29  and  C21_30 
REMARK   18  A    between atoms: C20_29  and  C24_33 
REMARK   19  A    between atoms: C20_29  and  N6_40 
REMARK   20  A    between atoms: C21_30  and  C22_31 
REMARK   21  A    between atoms: C22_31  and  C23_32 
REMARK   22  A    between atoms: C23_32  and  O8_43 
REMARK   23  A    between atoms: C24_33  and  C25_34 
REMARK   24  A    between atoms: C28_38  and  O6_39 
REMARK   25  A    between atoms: C29_42  and  O8_43 
REMARK   26  A    between atoms: C29_42  and  C35_49 
ROOT
ATOM      1  C14 non d ame     -36.459   9.772  26.746  0.00  0.00     0.089 C 
ATOM      2  H20 non d ame     -37.210   9.467  26.016  0.00  0.00     0.087 H 
ENDROOT
BRANCH   1   3
ATOM      3  N4  non d ame     -35.160   9.356  26.239  0.00  0.00    -0.346 N 
ATOM      4  C10 non d ame     -35.050   8.189  25.291  0.00  0.00     0.241 C 
ATOM      5  O4  non d ame     -36.022   7.597  24.952  0.00  0.00    -0.271 OA
ATOM      6  H19 non d ame     -34.346   9.871  26.542  0.00  0.00     0.163 HD
BRANCH   4   7
ATOM      7  C9  non d ame     -33.698   7.775  24.773  0.00  0.00     0.092 C 
ATOM      8  H11 non d ame     -33.785   7.506  23.720  0.00  0.00     0.088 H 
BRANCH   7   9
ATOM      9  N3  non d ame     -32.774   8.910  24.855  0.00  0.00    -0.346 N 
ATOM     10  C7  non d ame     -32.277   9.523  23.649  0.00  0.00     0.240 C 
ATOM     11  O3  non d ame     -32.609   9.116  22.603  0.00  0.00    -0.271 OA
ATOM     12  H10 non d ame     -32.477   9.271  25.750  0.00  0.00     0.163 HD
BRANCH  10  13
ATOM     13  C6  non d ame     -31.291  10.729  23.742  0.00  0.00     0.086 C 
ATOM     14  H6  non d ame     -31.646  11.607  23.204  0.00  0.00     0.086 H 
BRANCH  13  15
ATOM     15  N2  non d ame     -31.157  11.122  25.135  0.00  0.00    -0.343 N 
ATOM     16  C5  non d ame     -31.252  12.537  25.498  0.00  0.00     0.273 C 
ATOM     17  O2  non d ame     -31.432  13.353  24.662  0.00  0.00    -0.266 OA
ATOM     18  H5  non d ame     -31.000  10.419  25.843  0.00  0.00     0.163 HD
BRANCH  16  19
ATOM     19  C4  non d ame     -31.113  12.967  26.967  0.00  0.00     0.154 A 
ATOM     20  C1  non d ame     -31.246  12.138  28.126  0.00  0.00    -0.017 A 
ATOM     21  C2  non d ame     -31.029  13.006  29.219  0.00  0.00     0.077 A 
ATOM     22  H1  non d ame     -31.465  11.071  28.167  0.00  0.00     0.091 H 
ATOM     23  O1  non d ame     -30.798  14.191  28.735  0.00  0.00    -0.218 OA
ATOM     24  N1  non d ame     -30.842  14.193  27.422  0.00  0.00    -0.123 NA
BRANCH  21  25
ATOM     25  C3  non d ame     -31.058  12.624  30.693  0.00  0.00    -0.029 C 
ATOM     26  H2  non d ame     -32.020  12.172  30.933  0.00  0.00     0.036 H 
ATOM     27  H3  non d ame     -30.261  11.910  30.899  0.00  0.00     0.036 H 
ATOM     28  H4  non d ame     -30.913  13.515  31.303  0.00  0.00     0.036 H 
ENDBRANCH  21  25
ENDBRANCH  16  19
ENDBRANCH  13  15
BRANCH  13  29
ATOM     29  C8  non d ame     -29.948  10.328  23.187  0.00  0.00    -0.049 C 
ATOM     30  H7  non d ame     -29.487   9.592  23.845  0.00  0.00     0.030 H 
ATOM     31  H8  non d ame     -30.079   9.896  22.195  0.00  0.00     0.030 H 
ATOM     32  H9  non d ame     -29.306  11.207  23.119  0.00  0.00     0.030 H 
ENDBRANCH  13  29
ENDBRANCH  10  13
ENDBRANCH   7   9
BRANCH   7  33
ATOM     33  C11 non d ame     -33.150   6.600  25.635  0.00  0.00    -0.033 C 
ATOM     34  H12 non d ame     -34.002   6.119  26.115  0.00  0.00     0.042 H 
BRANCH  33  35
ATOM     35  C12 non d ame     -32.443   5.527  24.750  0.00  0.00    -0.071 C 
ATOM     36  H13 non d ame     -31.618   5.082  25.307  0.00  0.00     0.028 H 
ATOM     37  H14 non d ame     -33.157   4.751  24.477  0.00  0.00     0.028 H 
ATOM     38  H15 non d ame     -32.056   5.999  23.846  0.00  0.00     0.028 H 
ENDBRANCH  33  35
BRANCH  33  39
ATOM     39  C13 non d ame     -32.199   7.126  26.757  0.00  0.00    -0.071 C 
ATOM     40  H16 non d ame     -31.165   6.904  26.491  0.00  0.00     0.028 H 
ATOM     41  H17 non d ame     -32.323   8.204  26.864  0.00  0.00     0.028 H 
ATOM     42  H18 non d ame     -32.444   6.638  27.700  0.00  0.00     0.028 H 
ENDBRANCH  33  39
ENDBRANCH   7  33
ENDBRANCH   4   7
ENDBRANCH   1   3
BRANCH   1  43
ATOM     43  C15 non d ame     -36.438  11.314  26.956  0.00  0.00     0.240 C 
ATOM     44  O5  non d ame     -36.859  11.778  27.966  0.00  0.00    -0.271 OA
ATOM     45  N6  non d ame     -35.884  12.211  25.903  0.00  0.00    -0.355 N 
ATOM     46  H46 non d ame     -35.518  11.827  25.042  0.00  0.00     0.162 HD
BRANCH  45  47
ATOM     47  C20 non d ame     -35.870  13.674  26.119  0.00  0.00     0.013 C 
ATOM     48  H30 non d ame     -36.540  13.896  26.949  0.00  0.00     0.072 H 
BRANCH  47  49
ATOM     49  C21 non d ame     -36.351  14.369  24.865  0.00  0.00    -0.038 C 
ATOM     50  H31 non d ame     -35.701  15.235  24.741  0.00  0.00     0.036 H 
ATOM     51  H32 non d ame     -36.385  13.598  24.096  0.00  0.00     0.036 H 
BRANCH  49  52
ATOM     52  C22 non d ame     -37.789  14.916  24.998  0.00  0.00     0.018 C 
ATOM     53  H33 non d ame     -38.438  14.142  24.591  0.00  0.00     0.048 H 
ATOM     54  H34 non d ame     -37.893  15.223  26.039  0.00  0.00     0.048 H 
BRANCH  52  55
ATOM     55  C23 non d ame     -38.055  16.190  24.148  0.00  0.00     0.259 C 
ATOM     56  O7  non d ame     -38.176  16.113  22.968  0.00  0.00    -0.265 OA
BRANCH  55  57
ATOM     57  O8  non d ame     -38.139  17.454  24.795  0.00  0.00    -0.317 OA
BRANCH  57  58
ATOM     58  C29 non d ame     -37.073  18.349  24.465  0.00  0.00     0.052 C 
ATOM     59  H47 non d ame     -36.358  17.758  23.892  0.00  0.00     0.082 H 
ATOM     60  H48 non d ame     -37.547  19.220  24.013  0.00  0.00     0.082 H 
BRANCH  58  61
ATOM     61  C35 non d ame     -36.394  18.793  25.789  0.00  0.00    -0.034 A 
ATOM     62  C30 non d ame     -35.296  19.648  25.755  0.00  0.00    -0.075 A 
ATOM     63  C31 non d ame     -34.686  20.046  26.944  0.00  0.00    -0.082 A 
ATOM     64  H49 non d ame     -34.913  20.004  24.799  0.00  0.00     0.084 H 
ATOM     65  C32 non d ame     -35.177  19.586  28.169  0.00  0.00    -0.083 A 
ATOM     66  H50 non d ame     -33.827  20.718  26.915  0.00  0.00     0.083 H 
ATOM     67  C33 non d ame     -36.270  18.731  28.196  0.00  0.00    -0.082 A 
ATOM     68  H51 non d ame     -34.706  19.894  29.103  0.00  0.00     0.083 H 
ATOM     69  C34 non d ame     -36.884  18.331  27.011  0.00  0.00    -0.075 A 
ATOM     70  H52 non d ame     -36.649  18.371  29.154  0.00  0.00     0.083 H 
ATOM     71  H53 non d ame     -37.743  17.661  27.041  0.00  0.00     0.084 H 
ENDBRANCH  58  61
ENDBRANCH  57  58
ENDBRANCH  55  57
ENDBRANCH  52  55
ENDBRANCH  49  52
ENDBRANCH  47  49
BRANCH  47  72
ATOM     72  C24 non d ame     -34.451  14.134  26.445  0.00  0.00    -0.039 C 
ATOM     73  H35 non d ame     -34.173  13.596  27.352  0.00  0.00     0.036 H 
ATOM     74  H36 non d ame     -33.880  13.987  25.528  0.00  0.00     0.036 H 
BRANCH  72  75
ATOM     75  C25 non d ame     -34.399  15.698  26.788  0.00  0.00    -0.001 C 
ATOM     76  C26 non d ame     -33.405  16.470  25.731  0.00  0.00    -0.035 C 
ATOM     77  C27 non d ame     -32.513  17.211  26.430  0.00  0.00     0.085 C 
ATOM     78  H38 non d ame     -32.780  15.747  25.207  0.00  0.00     0.036 H 
ATOM     79  H39 non d ame     -33.966  17.215  25.165  0.00  0.00     0.036 H 
ATOM     80  N5  non d ame     -32.597  16.760  27.869  0.00  0.00    -0.049 N 
ATOM     81  H40 non d ame     -31.535  16.944  26.030  0.00  0.00     0.075 H 
ATOM     82  H41 non d ame     -32.868  18.238  26.359  0.00  0.00     0.075 H 
ATOM     83  C28 non d ame     -33.958  15.899  27.985  0.00  0.00     0.193 C 
ATOM     84  H42 non d ame     -31.813  16.143  28.022  0.00  0.00     0.280 HD
ATOM     85  H43 non d ame     -32.697  17.597  28.425  0.00  0.00     0.280 HD
ATOM     86  H44 non d ame     -34.845  16.327  28.453  0.00  0.00     0.129 H 
ATOM     87  H37 non d ame     -35.392  16.121  26.935  0.00  0.00     0.046 H 
BRANCH  83  88
ATOM     88  O6  non d ame     -33.710  14.676  28.681  0.00  0.00    -0.369 OA
ATOM     89  H45 non d ame     -33.048  14.167  28.208  0.00  0.00     0.212 HD
ENDBRANCH  83  88
ENDBRANCH  72  75
ENDBRANCH  47  72
ENDBRANCH  45  47
ENDBRANCH   1  43
BRANCH   1  90
ATOM     90  C16 non d ame     -36.721   9.079  28.073  0.00  0.00    -0.035 C 
ATOM     91  H21 non d ame     -37.185   9.834  28.706  0.00  0.00     0.037 H 
ATOM     92  H22 non d ame     -37.264   8.168  27.821  0.00  0.00     0.037 H 
BRANCH  90  93
ATOM     93  C17 non d ame     -35.419   8.627  28.810  0.00  0.00    -0.059 C 
ATOM     94  H23 non d ame     -34.576   8.845  28.154  0.00  0.00     0.038 H 
BRANCH  93  95
ATOM     95  C18 non d ame     -35.197   9.407  30.145  0.00  0.00    -0.073 C 
ATOM     96  H24 non d ame     -36.019   9.198  30.830  0.00  0.00     0.028 H 
ATOM     97  H25 non d ame     -34.258   9.089  30.599  0.00  0.00     0.028 H 
ATOM     98  H26 non d ame     -35.158  10.476  29.939  0.00  0.00     0.028 H 
ENDBRANCH  93  95
BRANCH  93  99
ATOM     99  C19 non d ame     -35.427   7.116  29.056  0.00  0.00    -0.073 C 
ATOM    100  H27 non d ame     -34.705   6.872  29.837  0.00  0.00     0.028 H 
ATOM    101  H28 non d ame     -36.422   6.804  29.373  0.00  0.00     0.028 H 
ATOM    102  H29 non d ame     -35.159   6.597  28.137  0.00  0.00     0.028 H 
ENDBRANCH  93  99
ENDBRANCH  90  93
ENDBRANCH   1  90
TORSDOF 26
ENDMDL
MODEL 18
REMARK VINA RESULT:      -6.8      2.943      7.689
REMARK  26 active torsions:
REMARK  status: ('A' for Active; 'I' for Inactive)
REMARK    1  A    between atoms: C2_2  and  C3_3 
REMARK    2  A    between atoms: C4_6  and  C5_7 
REMARK       I    between atoms: C5_7  and  N2_9 
REMARK    3  A    between atoms: N2_9  and  C6_10 
REMARK    4  A    between atoms: C6_10  and  C7_11 
REMARK    5  A    between atoms: C6_10  and  C8_13 
REMARK       I    between atoms: C7_11  and  N3_14 
REMARK    6  A    between atoms: N3_14  and  C9_15 
REMARK    7  A    between atoms: C9_15  and  C10_16 
REMARK    8  A    between atoms: C9_15  and  C11_18 
REMARK       I    between atoms: C10_16  and  N4_21 
REMARK    9  A    between atoms: C11_18  and  C12_19 
REMARK   10  A    between atoms: C11_18  and  C13_20 
REMARK   11  A    between atoms: N4_21  and  C14_22 
REMARK   12  A    between atoms: C14_22  and  C15_23 
REMARK   13  A    between atoms: C14_22  and  C16_25 
REMARK       I    between atoms: C15_23  and  N6_40 
REMARK   14  A    between atoms: C16_25  and  C17_26 
REMARK   15  A    between atoms: C17_26  and  C18_27 
REMARK   16  A    between atoms: C17_26  and  C19_28 
REMARK   17  A    between atoms: C20_29  and  C21_30 
REMARK   18  A    between atoms: C20_29  and  C24_33 
REMARK   19  A    between atoms: C20_29  and  N6_40 
REMARK   20  A    between atoms: C21_30  and  C22_31 
REMARK   21  A    between atoms: C22_31  and  C23_32 
REMARK   22  A    between atoms: C23_32  and  O8_43 
REMARK   23  A    between atoms: C24_33  and  C25_34 
REMARK   24  A    between atoms: C28_38  and  O6_39 
REMARK   25  A    between atoms: C29_42  and  O8_43 
REMARK   26  A    between atoms: C29_42  and  C35_49 
ROOT
ATOM      1  C14 non d ame     -34.461   7.895  31.029  0.00  0.00     0.089 C 
ATOM      2  H20 non d ame     -33.574   8.127  31.619  0.00  0.00     0.087 H 
ENDROOT
BRANCH   1   3
ATOM      3  N4  non d ame     -34.473   8.794  29.885  0.00  0.00    -0.346 N 
ATOM      4  C10 non d ame     -33.625  10.041  29.886  0.00  0.00     0.241 C 
ATOM      5  O4  non d ame     -32.942  10.301  30.821  0.00  0.00    -0.271 OA
ATOM      6  H19 non d ame     -35.063   8.556  29.101  0.00  0.00     0.163 HD
BRANCH   4   7
ATOM      7  C9  non d ame     -33.647  10.958  28.691  0.00  0.00     0.092 C 
ATOM      8  H11 non d ame     -34.462  11.672  28.802  0.00  0.00     0.088 H 
BRANCH   7   9
ATOM      9  N3  non d ame     -32.399  11.727  28.643  0.00  0.00    -0.346 N 
ATOM     10  C7  non d ame     -32.441  13.156  28.457  0.00  0.00     0.240 C 
ATOM     11  O3  non d ame     -33.470  13.704  28.344  0.00  0.00    -0.271 OA
ATOM     12  H10 non d ame     -31.505  11.268  28.738  0.00  0.00     0.163 HD
BRANCH  10  13
ATOM     13  C6  non d ame     -31.111  13.969  28.403  0.00  0.00     0.086 C 
ATOM     14  H6  non d ame     -30.227  13.333  28.429  0.00  0.00     0.086 H 
BRANCH  13  15
ATOM     15  N2  non d ame     -31.057  14.704  27.150  0.00  0.00    -0.343 N 
ATOM     16  C5  non d ame     -31.065  13.972  25.883  0.00  0.00     0.273 C 
ATOM     17  O2  non d ame     -31.111  12.790  25.881  0.00  0.00    -0.266 OA
ATOM     18  H5  non d ame     -31.015  15.714  27.161  0.00  0.00     0.163 HD
BRANCH  16  19
ATOM     19  C4  non d ame     -31.010  14.737  24.551  0.00  0.00     0.154 A 
ATOM     20  C1  non d ame     -30.359  14.326  23.345  0.00  0.00    -0.017 A 
ATOM     21  C2  non d ame     -30.603  15.372  22.427  0.00  0.00     0.077 A 
ATOM     22  H1  non d ame     -29.797  13.410  23.163  0.00  0.00     0.091 H 
ATOM     23  O1  non d ame     -31.312  16.271  23.043  0.00  0.00    -0.218 OA
ATOM     24  N1  non d ame     -31.562  15.923  24.284  0.00  0.00    -0.123 NA
BRANCH  21  25
ATOM     25  C3  non d ame     -30.125  15.433  20.982  0.00  0.00    -0.029 C 
ATOM     26  H2  non d ame     -29.049  15.604  20.962  0.00  0.00     0.036 H 
ATOM     27  H3  non d ame     -30.351  14.490  20.484  0.00  0.00     0.036 H 
ATOM     28  H4  non d ame     -30.632  16.248  20.465  0.00  0.00     0.036 H 
ENDBRANCH  21  25
ENDBRANCH  16  19
ENDBRANCH  13  15
BRANCH  13  29
ATOM     29  C8  non d ame     -31.056  14.926  29.567  0.00  0.00    -0.049 C 
ATOM     30  H7  non d ame     -30.450  15.791  29.299  0.00  0.00     0.030 H 
ATOM     31  H8  non d ame     -32.065  15.254  29.816  0.00  0.00     0.030 H 
ATOM     32  H9  non d ame     -30.613  14.425  30.428  0.00  0.00     0.030 H 
ENDBRANCH  13  29
ENDBRANCH  10  13
ENDBRANCH   7   9
BRANCH   7  33
ATOM     33  C11 non d ame     -33.781  10.112  27.391  0.00  0.00    -0.033 C 
ATOM     34  H12 non d ame     -34.436   9.269  27.613  0.00  0.00     0.042 H 
BRANCH  33  35
ATOM     35  C12 non d ame     -34.448  10.934  26.245  0.00  0.00    -0.071 C 
ATOM     36  H13 non d ame     -34.038  10.619  25.285  0.00  0.00     0.028 H 
ATOM     37  H14 non d ame     -35.524  10.765  26.254  0.00  0.00     0.028 H 
ATOM     38  H15 non d ame     -34.246  11.995  26.394  0.00  0.00     0.028 H 
ENDBRANCH  33  35
BRANCH  33  39
ATOM     39  C13 non d ame     -32.395   9.543  26.948  0.00  0.00    -0.071 C 
ATOM     40  H16 non d ame     -32.489   8.476  26.742  0.00  0.00     0.028 H 
ATOM     41  H17 non d ame     -32.060  10.060  26.048  0.00  0.00     0.028 H 
ATOM     42  H18 non d ame     -31.668   9.696  27.745  0.00  0.00     0.028 H 
ENDBRANCH  33  39
ENDBRANCH   7  33
ENDBRANCH   4   7
ENDBRANCH   1   3
BRANCH   1  43
ATOM     43  C15 non d ame     -34.451   6.429  30.507  0.00  0.00     0.240 C 
ATOM     44  O5  non d ame     -34.571   5.528  31.273  0.00  0.00    -0.271 OA
ATOM     45  N6  non d ame     -34.304   6.149  29.050  0.00  0.00    -0.355 N 
ATOM     46  H46 non d ame     -34.207   6.907  28.389  0.00  0.00     0.162 HD
BRANCH  45  47
ATOM     47  C20 non d ame     -34.298   4.750  28.570  0.00  0.00     0.013 C 
ATOM     48  H30 non d ame     -34.044   4.108  29.414  0.00  0.00     0.072 H 
BRANCH  47  49
ATOM     49  C21 non d ame     -33.264   4.601  27.477  0.00  0.00    -0.038 C 
ATOM     50  H31 non d ame     -32.393   4.152  27.955  0.00  0.00     0.036 H 
ATOM     51  H32 non d ame     -33.770   4.078  26.664  0.00  0.00     0.036 H 
BRANCH  49  52
ATOM     52  C22 non d ame     -32.799   5.957  26.903  0.00  0.00     0.018 C 
ATOM     53  H33 non d ame     -33.535   6.687  27.237  0.00  0.00     0.048 H 
ATOM     54  H34 non d ame     -31.755   6.060  27.199  0.00  0.00     0.048 H 
BRANCH  52  55
ATOM     55  C23 non d ame     -32.811   6.016  25.350  0.00  0.00     0.259 C 
ATOM     56  O7  non d ame     -32.366   5.119  24.709  0.00  0.00    -0.265 OA
BRANCH  55  57
ATOM     57  O8  non d ame     -33.349   7.162  24.700  0.00  0.00    -0.317 OA
BRANCH  57  58
ATOM     58  C29 non d ame     -33.106   7.200  23.291  0.00  0.00     0.052 C 
ATOM     59  H47 non d ame     -32.741   6.207  23.027  0.00  0.00     0.082 H 
ATOM     60  H48 non d ame     -34.023   7.581  22.843  0.00  0.00     0.082 H 
BRANCH  58  61
ATOM     61  C35 non d ame     -31.971   8.226  23.029  0.00  0.00    -0.034 A 
ATOM     62  C30 non d ame     -30.829   7.838  22.333  0.00  0.00    -0.075 A 
ATOM     63  C31 non d ame     -29.809   8.759  22.098  0.00  0.00    -0.082 A 
ATOM     64  H49 non d ame     -30.733   6.814  21.973  0.00  0.00     0.084 H 
ATOM     65  C32 non d ame     -29.933  10.071  22.563  0.00  0.00    -0.083 A 
ATOM     66  H50 non d ame     -28.917   8.453  21.551  0.00  0.00     0.083 H 
ATOM     67  C33 non d ame     -31.072  10.452  23.259  0.00  0.00    -0.082 A 
ATOM     68  H51 non d ame     -29.140  10.798  22.382  0.00  0.00     0.083 H 
ATOM     69  C34 non d ame     -32.094   9.535  23.495  0.00  0.00    -0.075 A 
ATOM     70  H52 non d ame     -31.164  11.476  23.623  0.00  0.00     0.083 H 
ATOM     71  H53 non d ame     -32.986   9.842  24.041  0.00  0.00     0.084 H 
ENDBRANCH  58  61
ENDBRANCH  57  58
ENDBRANCH  55  57
ENDBRANCH  52  55
ENDBRANCH  49  52
ENDBRANCH  47  49
BRANCH  47  72
ATOM     72  C24 non d ame     -35.677   4.386  28.023  0.00  0.00    -0.039 C 
ATOM     73  H35 non d ame     -35.533   4.240  26.952  0.00  0.00     0.036 H 
ATOM     74  H36 non d ame     -36.027   3.561  28.643  0.00  0.00     0.036 H 
BRANCH  72  75
ATOM     75  C25 non d ame     -36.721   5.588  28.201  0.00  0.00    -0.001 C 
ATOM     76  C26 non d ame     -37.870   5.172  29.301  0.00  0.00    -0.035 C 
ATOM     77  C27 non d ame     -39.093   5.393  28.760  0.00  0.00     0.085 C 
ATOM     78  H38 non d ame     -37.856   4.095  29.468  0.00  0.00     0.036 H 
ATOM     79  H39 non d ame     -37.840   5.855  30.150  0.00  0.00     0.036 H 
ATOM     80  N5  non d ame     -38.887   5.610  27.280  0.00  0.00    -0.049 N 
ATOM     81  H40 non d ame     -39.649   4.467  28.910  0.00  0.00     0.075 H 
ATOM     82  H41 non d ame     -39.446   6.319  29.209  0.00  0.00     0.075 H 
ATOM     83  C28 non d ame     -37.306   5.867  27.084  0.00  0.00     0.193 C 
ATOM     84  H42 non d ame     -39.130   4.741  26.827  0.00  0.00     0.280 HD
ATOM     85  H43 non d ame     -39.383   6.458  27.045  0.00  0.00     0.280 HD
ATOM     86  H44 non d ame     -36.927   6.875  26.910  0.00  0.00     0.129 H 
ATOM     87  H37 non d ame     -36.225   6.548  28.340  0.00  0.00     0.046 H 
BRANCH  83  88
ATOM     88  O6  non d ame     -36.808   5.079  26.002  0.00  0.00    -0.369 OA
ATOM     89  H45 non d ame     -35.935   5.392  25.752  0.00  0.00     0.212 HD
ENDBRANCH  83  88
ENDBRANCH  72  75
ENDBRANCH  47  72
ENDBRANCH  45  47
ENDBRANCH   1  43
BRANCH   1  90
ATOM     90  C16 non d ame     -35.710   8.133  31.862  0.00  0.00    -0.035 C 
ATOM     91  H21 non d ame     -36.055   7.142  32.153  0.00  0.00     0.037 H 
ATOM     92  H22 non d ame     -35.416   8.854  32.624  0.00  0.00     0.037 H 
BRANCH  90  93
ATOM     93  C17 non d ame     -36.880   8.789  31.061  0.00  0.00    -0.059 C 
ATOM     94  H23 non d ame     -36.639   8.711  30.001  0.00  0.00     0.038 H 
BRANCH  93  95
ATOM     95  C18 non d ame     -38.239   8.054  31.295  0.00  0.00    -0.073 C 
ATOM     96  H24 non d ame     -38.919   8.275  30.472  0.00  0.00     0.028 H 
ATOM     97  H25 non d ame     -38.067   6.979  31.344  0.00  0.00     0.028 H 
ATOM     98  H26 non d ame     -38.680   8.395  32.232  0.00  0.00     0.028 H 
ENDBRANCH  93  95
BRANCH  93  99
ATOM     99  C19 non d ame     -37.003  10.278  31.393  0.00  0.00    -0.073 C 
ATOM    100  H27 non d ame     -37.785  10.724  30.777  0.00  0.00     0.028 H 
ATOM    101  H28 non d ame     -37.258  10.397  32.446  0.00  0.00     0.028 H 
ATOM    102  H29 non d ame     -36.054  10.775  31.191  0.00  0.00     0.028 H 
ENDBRANCH  93  99
ENDBRANCH  90  93
ENDBRANCH   1  90
TORSDOF 26
ENDMDL
MODEL 19
REMARK VINA RESULT:      -6.8      2.671      8.957
REMARK  26 active torsions:
REMARK  status: ('A' for Active; 'I' for Inactive)
REMARK    1  A    between atoms: C2_2  and  C3_3 
REMARK    2  A    between atoms: C4_6  and  C5_7 
REMARK       I    between atoms: C5_7  and  N2_9 
REMARK    3  A    between atoms: N2_9  and  C6_10 
REMARK    4  A    between atoms: C6_10  and  C7_11 
REMARK    5  A    between atoms: C6_10  and  C8_13 
REMARK       I    between atoms: C7_11  and  N3_14 
REMARK    6  A    between atoms: N3_14  and  C9_15 
REMARK    7  A    between atoms: C9_15  and  C10_16 
REMARK    8  A    between atoms: C9_15  and  C11_18 
REMARK       I    between atoms: C10_16  and  N4_21 
REMARK    9  A    between atoms: C11_18  and  C12_19 
REMARK   10  A    between atoms: C11_18  and  C13_20 
REMARK   11  A    between atoms: N4_21  and  C14_22 
REMARK   12  A    between atoms: C14_22  and  C15_23 
REMARK   13  A    between atoms: C14_22  and  C16_25 
REMARK       I    between atoms: C15_23  and  N6_40 
REMARK   14  A    between atoms: C16_25  and  C17_26 
REMARK   15  A    between atoms: C17_26  and  C18_27 
REMARK   16  A    between atoms: C17_26  and  C19_28 
REMARK   17  A    between atoms: C20_29  and  C21_30 
REMARK   18  A    between atoms: C20_29  and  C24_33 
REMARK   19  A    between atoms: C20_29  and  N6_40 
REMARK   20  A    between atoms: C21_30  and  C22_31 
REMARK   21  A    between atoms: C22_31  and  C23_32 
REMARK   22  A    between atoms: C23_32  and  O8_43 
REMARK   23  A    between atoms: C24_33  and  C25_34 
REMARK   24  A    between atoms: C28_38  and  O6_39 
REMARK   25  A    between atoms: C29_42  and  O8_43 
REMARK   26  A    between atoms: C29_42  and  C35_49 
ROOT
ATOM      1  C14 non d ame     -34.933   8.837  29.937  0.00  0.00     0.089 C 
ATOM      2  H20 non d ame     -36.021   8.790  29.878  0.00  0.00     0.087 H 
ENDROOT
BRANCH   1   3
ATOM      3  N4  non d ame     -34.403   7.751  29.127  0.00  0.00    -0.346 N 
ATOM      4  C10 non d ame     -35.297   7.011  28.166  0.00  0.00     0.241 C 
ATOM      5  O4  non d ame     -36.442   7.305  28.062  0.00  0.00    -0.271 OA
ATOM      6  H19 non d ame     -33.427   7.514  29.233  0.00  0.00     0.163 HD
BRANCH   4   7
ATOM      7  C9  non d ame     -34.730   5.892  27.332  0.00  0.00     0.092 C 
ATOM      8  H11 non d ame     -35.461   5.087  27.266  0.00  0.00     0.088 H 
BRANCH   7   9
ATOM      9  N3  non d ame     -34.491   6.372  25.967  0.00  0.00    -0.346 N 
ATOM     10  C7  non d ame     -35.264   5.843  24.871  0.00  0.00     0.240 C 
ATOM     11  O3  non d ame     -36.083   5.031  25.069  0.00  0.00    -0.271 OA
ATOM     12  H10 non d ame     -33.786   7.071  25.781  0.00  0.00     0.163 HD
BRANCH  10  13
ATOM     13  C6  non d ame     -35.003   6.355  23.421  0.00  0.00     0.086 C 
ATOM     14  H6  non d ame     -35.575   7.252  23.181  0.00  0.00     0.086 H 
BRANCH  13  15
ATOM     15  N2  non d ame     -33.600   6.710  23.291  0.00  0.00    -0.343 N 
ATOM     16  C5  non d ame     -33.226   8.111  23.085  0.00  0.00     0.273 C 
ATOM     17  O2  non d ame     -34.061   8.945  23.022  0.00  0.00    -0.266 OA
ATOM     18  H5  non d ame     -32.893   5.991  23.344  0.00  0.00     0.163 HD
BRANCH  16  19
ATOM     19  C4  non d ame     -31.745   8.500  22.947  0.00  0.00     0.154 A 
ATOM     20  C1  non d ame     -30.644   7.628  22.672  0.00  0.00    -0.017 A 
ATOM     21  C2  non d ame     -29.511   8.472  22.648  0.00  0.00     0.077 A 
ATOM     22  H1  non d ame     -30.665   6.550  22.514  0.00  0.00     0.091 H 
ATOM     23  O1  non d ame     -29.924   9.683  22.881  0.00  0.00    -0.218 OA
ATOM     24  N1  non d ame     -31.224   9.724  23.059  0.00  0.00    -0.123 NA
BRANCH  21  25
ATOM     25  C3  non d ame     -28.073   8.042  22.394  0.00  0.00    -0.029 C 
ATOM     26  H2  non d ame     -28.054   6.995  22.092  0.00  0.00     0.036 H 
ATOM     27  H3  non d ame     -27.645   8.655  21.600  0.00  0.00     0.036 H 
ATOM     28  H4  non d ame     -27.488   8.168  23.305  0.00  0.00     0.036 H 
ENDBRANCH  21  25
ENDBRANCH  16  19
ENDBRANCH  13  15
BRANCH  13  29
ATOM     29  C8  non d ame     -35.357   5.274  22.432  0.00  0.00    -0.049 C 
ATOM     30  H7  non d ame     -36.368   4.919  22.626  0.00  0.00     0.030 H 
ATOM     31  H8  non d ame     -35.301   5.675  21.420  0.00  0.00     0.030 H 
ATOM     32  H9  non d ame     -34.655   4.445  22.534  0.00  0.00     0.030 H 
ENDBRANCH  13  29
ENDBRANCH  10  13
ENDBRANCH   7   9
BRANCH   7  33
ATOM     33  C11 non d ame     -33.385   5.413  27.953  0.00  0.00    -0.033 C 
ATOM     34  H12 non d ame     -33.306   5.854  28.946  0.00  0.00     0.042 H 
BRANCH  33  35
ATOM     35  C12 non d ame     -33.360   3.862  28.126  0.00  0.00    -0.071 C 
ATOM     36  H13 non d ame     -34.202   3.423  27.589  0.00  0.00     0.028 H 
ATOM     37  H14 non d ame     -32.427   3.466  27.725  0.00  0.00     0.028 H 
ATOM     38  H15 non d ame     -33.436   3.613  29.184  0.00  0.00     0.028 H 
ENDBRANCH  33  35
BRANCH  33  39
ATOM     39  C13 non d ame     -32.170   5.908  27.106  0.00  0.00    -0.071 C 
ATOM     40  H16 non d ame     -32.132   5.356  26.167  0.00  0.00     0.028 H 
ATOM     41  H17 non d ame     -32.281   6.973  26.898  0.00  0.00     0.028 H 
ATOM     42  H18 non d ame     -31.247   5.743  27.662  0.00  0.00     0.028 H 
ENDBRANCH  33  39
ENDBRANCH   7  33
ENDBRANCH   4   7
ENDBRANCH   1   3
BRANCH   1  43
ATOM     43  C15 non d ame     -34.374  10.182  29.390  0.00  0.00     0.240 C 
ATOM     44  O5  non d ame     -33.672  10.853  30.076  0.00  0.00    -0.271 OA
ATOM     45  N6  non d ame     -34.704  10.629  28.007  0.00  0.00    -0.355 N 
ATOM     46  H46 non d ame     -35.295  10.065  27.413  0.00  0.00     0.162 HD
BRANCH  45  47
ATOM     47  C20 non d ame     -34.163  11.909  27.502  0.00  0.00     0.013 C 
ATOM     48  H30 non d ame     -33.665  12.412  28.331  0.00  0.00     0.072 H 
BRANCH  47  49
ATOM     49  C21 non d ame     -35.299  12.763  26.986  0.00  0.00    -0.038 C 
ATOM     50  H31 non d ame     -36.147  12.087  26.870  0.00  0.00     0.036 H 
ATOM     51  H32 non d ame     -35.366  13.609  27.671  0.00  0.00     0.036 H 
BRANCH  49  52
ATOM     52  C22 non d ame     -35.017  13.355  25.587  0.00  0.00     0.018 C 
ATOM     53  H33 non d ame     -34.202  12.762  25.176  0.00  0.00     0.048 H 
ATOM     54  H34 non d ame     -35.981  13.384  25.080  0.00  0.00     0.048 H 
BRANCH  52  55
ATOM     55  C23 non d ame     -34.507  14.822  25.620  0.00  0.00     0.259 C 
ATOM     56  O7  non d ame     -33.548  15.141  24.993  0.00  0.00    -0.265 OA
BRANCH  55  57
ATOM     57  O8  non d ame     -35.189  15.780  26.420  0.00  0.00    -0.317 OA
BRANCH  57  58
ATOM     58  C29 non d ame     -34.459  16.200  27.577  0.00  0.00     0.052 C 
ATOM     59  H47 non d ame     -35.174  16.183  28.399  0.00  0.00     0.082 H 
ATOM     60  H48 non d ame     -33.572  15.568  27.612  0.00  0.00     0.082 H 
BRANCH  58  61
ATOM     61  C35 non d ame     -34.006  17.667  27.350  0.00  0.00    -0.034 A 
ATOM     62  C30 non d ame     -34.956  18.666  27.153  0.00  0.00    -0.075 A 
ATOM     63  C31 non d ame     -34.549  19.984  26.949  0.00  0.00    -0.082 A 
ATOM     64  H49 non d ame     -36.017  18.417  27.158  0.00  0.00     0.084 H 
ATOM     65  C32 non d ame     -33.188  20.301  26.940  0.00  0.00    -0.083 A 
ATOM     66  H50 non d ame     -35.295  20.765  26.797  0.00  0.00     0.083 H 
ATOM     67  C33 non d ame     -32.246  19.301  27.133  0.00  0.00    -0.082 A 
ATOM     68  H51 non d ame     -32.862  21.330  26.782  0.00  0.00     0.083 H 
ATOM     69  C34 non d ame     -32.647  17.983  27.339  0.00  0.00    -0.075 A 
ATOM     70  H52 non d ame     -31.184  19.551  27.123  0.00  0.00     0.083 H 
ATOM     71  H53 non d ame     -31.901  17.203  27.491  0.00  0.00     0.084 H 
ENDBRANCH  58  61
ENDBRANCH  57  58
ENDBRANCH  55  57
ENDBRANCH  52  55
ENDBRANCH  49  52
ENDBRANCH  47  49
BRANCH  47  72
ATOM     72  C24 non d ame     -33.172  11.641  26.371  0.00  0.00    -0.039 C 
ATOM     73  H35 non d ame     -33.121  10.555  26.283  0.00  0.00     0.036 H 
ATOM     74  H36 non d ame     -33.522  12.239  25.530  0.00  0.00     0.036 H 
BRANCH  72  75
ATOM     75  C25 non d ame     -31.700  12.155  26.739  0.00  0.00    -0.001 C 
ATOM     76  C26 non d ame     -31.791  13.365  27.848  0.00  0.00    -0.035 C 
ATOM     77  C27 non d ame     -31.067  14.420  27.404  0.00  0.00     0.085 C 
ATOM     78  H38 non d ame     -32.807  13.755  27.895  0.00  0.00     0.036 H 
ATOM     79  H39 non d ame     -31.278  13.072  28.764  0.00  0.00     0.036 H 
ATOM     80  N5  non d ame     -30.761  14.163  25.947  0.00  0.00    -0.049 N 
ATOM     81  H40 non d ame     -31.731  15.282  27.482  0.00  0.00     0.075 H 
ATOM     82  H41 non d ame     -30.138  14.395  27.971  0.00  0.00     0.075 H 
ATOM     83  C28 non d ame     -31.088  12.603  25.694  0.00  0.00     0.193 C 
ATOM     84  H42 non d ame     -31.415  14.719  25.416  0.00  0.00     0.280 HD
ATOM     85  H43 non d ame     -29.768  14.307  25.835  0.00  0.00     0.280 HD
ATOM     86  H44 non d ame     -30.280  11.875  25.610  0.00  0.00     0.129 H 
ATOM     87  H37 non d ame     -31.018  11.334  26.955  0.00  0.00     0.046 H 
BRANCH  83  88
ATOM     88  O6  non d ame     -31.866  12.449  24.505  0.00  0.00    -0.369 OA
ATOM     89  H45 non d ame     -31.467  12.956  23.793  0.00  0.00     0.212 HD
ENDBRANCH  83  88
ENDBRANCH  72  75
ENDBRANCH  47  72
ENDBRANCH  45  47
ENDBRANCH   1  43
BRANCH   1  90
ATOM     90  C16 non d ame     -34.488   8.647  31.378  0.00  0.00    -0.035 C 
ATOM     91  H21 non d ame     -34.370   7.572  31.504  0.00  0.00     0.037 H 
ATOM     92  H22 non d ame     -33.631   9.309  31.505  0.00  0.00     0.037 H 
BRANCH  90  93
ATOM     93  C17 non d ame     -35.553   9.099  32.428  0.00  0.00    -0.059 C 
ATOM     94  H23 non d ame     -35.556   8.364  33.233  0.00  0.00     0.038 H 
BRANCH  93  95
ATOM     95  C18 non d ame     -35.212  10.488  33.054  0.00  0.00    -0.073 C 
ATOM     96  H24 non d ame     -34.235  10.441  33.535  0.00  0.00     0.028 H 
ATOM     97  H25 non d ame     -35.193  11.245  32.269  0.00  0.00     0.028 H 
ATOM     98  H26 non d ame     -35.969  10.750  33.793  0.00  0.00     0.028 H 
ENDBRANCH  93  95
BRANCH  93  99
ATOM     99  C19 non d ame     -36.956   9.107  31.814  0.00  0.00    -0.073 C 
ATOM    100  H27 non d ame     -36.979   8.439  30.952  0.00  0.00     0.028 H 
ATOM    101  H28 non d ame     -37.680   8.769  32.555  0.00  0.00     0.028 H 
ATOM    102  H29 non d ame     -37.207  10.119  31.496  0.00  0.00     0.028 H 
ENDBRANCH  93  99
ENDBRANCH  90  93
ENDBRANCH   1  90
TORSDOF 26
ENDMDL
MODEL 20
REMARK VINA RESULT:      -6.8      2.993     10.104
REMARK  26 active torsions:
REMARK  status: ('A' for Active; 'I' for Inactive)
REMARK    1  A    between atoms: C2_2  and  C3_3 
REMARK    2  A    between atoms: C4_6  and  C5_7 
REMARK       I    between atoms: C5_7  and  N2_9 
REMARK    3  A    between atoms: N2_9  and  C6_10 
REMARK    4  A    between atoms: C6_10  and  C7_11 
REMARK    5  A    between atoms: C6_10  and  C8_13 
REMARK       I    between atoms: C7_11  and  N3_14 
REMARK    6  A    between atoms: N3_14  and  C9_15 
REMARK    7  A    between atoms: C9_15  and  C10_16 
REMARK    8  A    between atoms: C9_15  and  C11_18 
REMARK       I    between atoms: C10_16  and  N4_21 
REMARK    9  A    between atoms: C11_18  and  C12_19 
REMARK   10  A    between atoms: C11_18  and  C13_20 
REMARK   11  A    between atoms: N4_21  and  C14_22 
REMARK   12  A    between atoms: C14_22  and  C15_23 
REMARK   13  A    between atoms: C14_22  and  C16_25 
REMARK       I    between atoms: C15_23  and  N6_40 
REMARK   14  A    between atoms: C16_25  and  C17_26 
REMARK   15  A    between atoms: C17_26  and  C18_27 
REMARK   16  A    between atoms: C17_26  and  C19_28 
REMARK   17  A    between atoms: C20_29  and  C21_30 
REMARK   18  A    between atoms: C20_29  and  C24_33 
REMARK   19  A    between atoms: C20_29  and  N6_40 
REMARK   20  A    between atoms: C21_30  and  C22_31 
REMARK   21  A    between atoms: C22_31  and  C23_32 
REMARK   22  A    between atoms: C23_32  and  O8_43 
REMARK   23  A    between atoms: C24_33  and  C25_34 
REMARK   24  A    between atoms: C28_38  and  O6_39 
REMARK   25  A    between atoms: C29_42  and  O8_43 
REMARK   26  A    between atoms: C29_42  and  C35_49 
ROOT
ATOM      1  C14 non d ame     -32.704   8.637  24.534  0.00  0.00     0.089 C 
ATOM      2  H20 non d ame     -31.637   8.413  24.517  0.00  0.00     0.087 H 
ENDROOT
BRANCH   1   3
ATOM      3  N4  non d ame     -33.404   7.413  24.893  0.00  0.00    -0.346 N 
ATOM      4  C10 non d ame     -32.632   6.150  25.178  0.00  0.00     0.241 C 
ATOM      5  O4  non d ame     -31.447   6.142  25.111  0.00  0.00    -0.271 OA
ATOM      6  H19 non d ame     -34.412   7.440  24.941  0.00  0.00     0.163 HD
BRANCH   4   7
ATOM      7  C9  non d ame     -33.372   4.892  25.551  0.00  0.00     0.092 C 
ATOM      8  H11 non d ame     -32.770   4.316  26.253  0.00  0.00     0.088 H 
BRANCH   7   9
ATOM      9  N3  non d ame     -34.619   5.244  26.238  0.00  0.00    -0.346 N 
ATOM     10  C7  non d ame     -34.906   4.692  27.538  0.00  0.00     0.240 C 
ATOM     11  O3  non d ame     -34.145   3.963  28.048  0.00  0.00    -0.271 OA
ATOM     12  H10 non d ame     -35.285   5.871  25.810  0.00  0.00     0.163 HD
BRANCH  10  13
ATOM     13  C6  non d ame     -36.236   5.068  28.263  0.00  0.00     0.086 C 
ATOM     14  H6  non d ame     -36.494   4.370  29.059  0.00  0.00     0.086 H 
BRANCH  13  15
ATOM     15  N2  non d ame     -36.082   6.372  28.886  0.00  0.00    -0.343 N 
ATOM     16  C5  non d ame     -36.783   6.660  30.139  0.00  0.00     0.273 C 
ATOM     17  O2  non d ame     -37.472   5.838  30.636  0.00  0.00    -0.266 OA
ATOM     18  H5  non d ame     -35.493   7.070  28.453  0.00  0.00     0.163 HD
BRANCH  16  19
ATOM     19  C4  non d ame     -36.628   8.034  30.809  0.00  0.00     0.154 A 
ATOM     20  C1  non d ame     -35.614   8.435  31.735  0.00  0.00    -0.017 A 
ATOM     21  C2  non d ame     -35.918   9.779  32.048  0.00  0.00     0.077 A 
ATOM     22  H1  non d ame     -34.784   7.842  32.120  0.00  0.00     0.091 H 
ATOM     23  O1  non d ame     -36.982  10.102  31.374  0.00  0.00    -0.218 OA
ATOM     24  N1  non d ame     -37.415   9.100  30.644  0.00  0.00    -0.123 NA
BRANCH  21  25
ATOM     25  C3  non d ame     -35.141  10.682  32.996  0.00  0.00    -0.029 C 
ATOM     26  H2  non d ame     -34.073  10.567  32.814  0.00  0.00     0.036 H 
ATOM     27  H3  non d ame     -35.427  11.720  32.826  0.00  0.00     0.036 H 
ATOM     28  H4  non d ame     -35.366  10.407  34.026  0.00  0.00     0.036 H 
ENDBRANCH  21  25
ENDBRANCH  16  19
ENDBRANCH  13  15
BRANCH  13  29
ATOM     29  C8  non d ame     -37.363   5.104  27.263  0.00  0.00    -0.049 C 
ATOM     30  H7  non d ame     -37.707   4.089  27.065  0.00  0.00     0.030 H 
ATOM     31  H8  non d ame     -38.187   5.694  27.664  0.00  0.00     0.030 H 
ATOM     32  H9  non d ame     -37.011   5.555  26.334  0.00  0.00     0.030 H 
ENDBRANCH  13  29
ENDBRANCH  10  13
ENDBRANCH   7   9
BRANCH   7  33
ATOM     33  C11 non d ame     -33.704   4.084  24.262  0.00  0.00    -0.033 C 
ATOM     34  H12 non d ame     -32.902   4.263  23.546  0.00  0.00     0.042 H 
BRANCH  33  35
ATOM     35  C12 non d ame     -33.743   2.550  24.548  0.00  0.00    -0.071 C 
ATOM     36  H13 non d ame     -33.638   2.378  25.620  0.00  0.00     0.028 H 
ATOM     37  H14 non d ame     -34.692   2.140  24.206  0.00  0.00     0.028 H 
ATOM     38  H15 non d ame     -32.924   2.061  24.021  0.00  0.00     0.028 H 
ENDBRANCH  33  35
BRANCH  33  39
ATOM     39  C13 non d ame     -35.041   4.576  23.622  0.00  0.00    -0.071 C 
ATOM     40  H16 non d ame     -35.395   3.835  22.906  0.00  0.00     0.028 H 
ATOM     41  H17 non d ame     -35.789   4.714  24.404  0.00  0.00     0.028 H 
ATOM     42  H18 non d ame     -34.873   5.523  23.111  0.00  0.00     0.028 H 
ENDBRANCH  33  39
ENDBRANCH   7  33
ENDBRANCH   4   7
ENDBRANCH   1   3
BRANCH   1  43
ATOM     43  C15 non d ame     -33.055   9.733  25.582  0.00  0.00     0.240 C 
ATOM     44  O5  non d ame     -33.958   9.562  26.336  0.00  0.00    -0.271 OA
ATOM     45  N6  non d ame     -32.260  10.992  25.652  0.00  0.00    -0.355 N 
ATOM     46  H46 non d ame     -31.488  11.147  25.019  0.00  0.00     0.162 HD
BRANCH  45  47
ATOM     47  C20 non d ame     -32.607  12.023  26.654  0.00  0.00     0.013 C 
ATOM     48  H30 non d ame     -33.185  11.542  27.443  0.00  0.00     0.072 H 
BRANCH  47  49
ATOM     49  C21 non d ame     -33.433  13.104  25.994  0.00  0.00    -0.038 C 
ATOM     50  H31 non d ame     -32.832  13.464  25.158  0.00  0.00     0.036 H 
ATOM     51  H32 non d ame     -34.410  12.657  25.810  0.00  0.00     0.036 H 
BRANCH  49  52
ATOM     52  C22 non d ame     -33.675  14.320  26.915  0.00  0.00     0.018 C 
ATOM     53  H33 non d ame     -34.742  14.528  26.854  0.00  0.00     0.048 H 
ATOM     54  H34 non d ame     -33.224  14.059  27.872  0.00  0.00     0.048 H 
BRANCH  52  55
ATOM     55  C23 non d ame     -32.958  15.615  26.443  0.00  0.00     0.259 C 
ATOM     56  O7  non d ame     -32.811  16.529  27.189  0.00  0.00    -0.265 OA
BRANCH  55  57
ATOM     57  O8  non d ame     -32.489  15.703  25.102  0.00  0.00    -0.317 OA
BRANCH  57  58
ATOM     58  C29 non d ame     -31.065  15.778  24.987  0.00  0.00     0.052 C 
ATOM     59  H47 non d ame     -30.809  16.821  25.169  0.00  0.00     0.082 H 
ATOM     60  H48 non d ame     -30.674  14.998  25.639  0.00  0.00     0.082 H 
BRANCH  58  61
ATOM     61  C35 non d ame     -30.685  15.428  23.523  0.00  0.00    -0.034 A 
ATOM     62  C30 non d ame     -31.090  16.258  22.481  0.00  0.00    -0.075 A 
ATOM     63  C31 non d ame     -30.749  15.944  21.166  0.00  0.00    -0.082 A 
ATOM     64  H49 non d ame     -31.673  17.153  22.695  0.00  0.00     0.084 H 
ATOM     65  C32 non d ame     -30.003  14.794  20.894  0.00  0.00    -0.083 A 
ATOM     66  H50 non d ame     -31.066  16.597  20.352  0.00  0.00     0.083 H 
ATOM     67  C33 non d ame     -29.605  13.967  21.936  0.00  0.00    -0.082 A 
ATOM     68  H51 non d ame     -29.731  14.541  19.869  0.00  0.00     0.083 H 
ATOM     69  C34 non d ame     -29.942  14.278  23.252  0.00  0.00    -0.075 A 
ATOM     70  H52 non d ame     -29.025  13.069  21.720  0.00  0.00     0.083 H 
ATOM     71  H53 non d ame     -29.624  13.625  24.065  0.00  0.00     0.084 H 
ENDBRANCH  58  61
ENDBRANCH  57  58
ENDBRANCH  55  57
ENDBRANCH  52  55
ENDBRANCH  49  52
ENDBRANCH  47  49
BRANCH  47  72
ATOM     72  C24 non d ame     -31.331  12.634  27.228  0.00  0.00    -0.039 C 
ATOM     73  H35 non d ame     -30.520  12.246  26.610  0.00  0.00     0.036 H 
ATOM     74  H36 non d ame     -31.517  13.708  27.271  0.00  0.00     0.036 H 
BRANCH  72  75
ATOM     75  C25 non d ame     -31.060  12.141  28.728  0.00  0.00    -0.001 C 
ATOM     76  C26 non d ame     -32.349  11.280  29.275  0.00  0.00    -0.035 C 
ATOM     77  C27 non d ame     -32.734  11.781  30.473  0.00  0.00     0.085 C 
ATOM     78  H38 non d ame     -33.215  11.454  28.636  0.00  0.00     0.036 H 
ATOM     79  H39 non d ame     -32.044  10.260  29.512  0.00  0.00     0.036 H 
ATOM     80  N5  non d ame     -32.035  13.110  30.639  0.00  0.00    -0.049 N 
ATOM     81  H40 non d ame     -33.807  11.952  30.386  0.00  0.00     0.075 H 
ATOM     82  H41 non d ame     -32.351  11.084  31.217  0.00  0.00     0.075 H 
ATOM     83  C28 non d ame     -30.871  13.142  29.521  0.00  0.00     0.193 C 
ATOM     84  H42 non d ame     -32.716  13.821  30.414  0.00  0.00     0.280 HD
ATOM     85  H43 non d ame     -31.605  13.093  31.553  0.00  0.00     0.280 HD
ATOM     86  H44 non d ame     -29.830  12.978  29.802  0.00  0.00     0.129 H 
ATOM     87  H37 non d ame     -30.076  11.688  28.842  0.00  0.00     0.046 H 
BRANCH  83  88
ATOM     88  O6  non d ame     -30.888  14.391  28.828  0.00  0.00    -0.369 OA
ATOM     89  H45 non d ame     -30.049  14.841  28.958  0.00  0.00     0.212 HD
ENDBRANCH  83  88
ENDBRANCH  72  75
ENDBRANCH  47  72
ENDBRANCH  45  47
ENDBRANCH   1  43
BRANCH   1  90
ATOM     90  C16 non d ame     -33.158   9.085  23.155  0.00  0.00    -0.035 C 
ATOM     91  H21 non d ame     -34.118   8.597  22.995  0.00  0.00     0.037 H 
ATOM     92  H22 non d ame     -33.094  10.173  23.169  0.00  0.00     0.037 H 
BRANCH  90  93
ATOM     93  C17 non d ame     -32.222   8.602  22.000  0.00  0.00    -0.059 C 
ATOM     94  H23 non d ame     -32.235   9.366  21.223  0.00  0.00     0.038 H 
BRANCH  93  95
ATOM     95  C18 non d ame     -30.744   8.430  22.473  0.00  0.00    -0.073 C 
ATOM     96  H24 non d ame     -30.340   9.399  22.766  0.00  0.00     0.028 H 
ATOM     97  H25 non d ame     -30.712   7.751  23.326  0.00  0.00     0.028 H 
ATOM     98  H26 non d ame     -30.147   8.018  21.659  0.00  0.00     0.028 H 
ENDBRANCH  93  95
BRANCH  93  99
ATOM     99  C19 non d ame     -32.749   7.307  21.375  0.00  0.00    -0.073 C 
ATOM    100  H27 non d ame     -31.908   6.662  21.115  0.00  0.00     0.028 H 
ATOM    101  H28 non d ame     -33.393   6.793  22.089  0.00  0.00     0.028 H 
ATOM    102  H29 non d ame     -33.318   7.543  20.476  0.00  0.00     0.028 H 
ENDBRANCH  93  99
ENDBRANCH  90  93
ENDBRANCH   1  90
TORSDOF 26
ENDMDL
