MODEL 1
REMARK VINA RESULT:      -7.3      0.000      0.000
REMARK  26 active torsions:
REMARK  status: ('A' for Active; 'I' for Inactive)
REMARK    1  A    between atoms: C2_2  and  C3_3 
REMARK    2  A    between atoms: C4_6  and  C5_7 
REMARK       I    between atoms: C5_7  and  N2_9 
REMARK    3  A    between atoms: N2_9  and  C6_10 
REMARK    4  A    between atoms: C6_10  and  C7_11 
REMARK    5  A    between atoms: C6_10  and  C8_13 
REMARK       I    between atoms: C7_11  and  N3_14 
REMARK    6  A    between atoms: N3_14  and  C9_15 
REMARK    7  A    between atoms: C9_15  and  C10_16 
REMARK    8  A    between atoms: C9_15  and  C11_18 
REMARK       I    between atoms: C10_16  and  N4_21 
REMARK    9  A    between atoms: C11_18  and  C12_19 
REMARK   10  A    between atoms: C11_18  and  C13_20 
REMARK   11  A    between atoms: N4_21  and  C14_22 
REMARK   12  A    between atoms: C14_22  and  C15_23 
REMARK   13  A    between atoms: C14_22  and  C16_25 
REMARK       I    between atoms: C15_23  and  N6_40 
REMARK   14  A    between atoms: C16_25  and  C17_26 
REMARK   15  A    between atoms: C17_26  and  C18_27 
REMARK   16  A    between atoms: C17_26  and  C19_28 
REMARK   17  A    between atoms: C20_29  and  C21_30 
REMARK   18  A    between atoms: C20_29  and  C24_33 
REMARK   19  A    between atoms: C20_29  and  N6_40 
REMARK   20  A    between atoms: C21_30  and  C22_31 
REMARK   21  A    between atoms: C22_31  and  C23_32 
REMARK   22  A    between atoms: C23_32  and  O8_43 
REMARK   23  A    between atoms: C24_33  and  C25_34 
REMARK   24  A    between atoms: C28_38  and  O6_39 
REMARK   25  A    between atoms: C29_42  and  O8_43 
REMARK   26  A    between atoms: C29_42  and  C35_49 
ROOT
ATOM      1  C14 non d ame     -32.796  10.256  25.369  0.00  0.00     0.089 C 
ATOM      2  H20 non d ame     -33.463  10.243  24.506  0.00  0.00     0.087 H 
ENDROOT
BRANCH   1   3
ATOM      3  N4  non d ame     -32.151   8.954  25.445  0.00  0.00    -0.346 N 
ATOM      4  C10 non d ame     -32.774   7.755  24.775  0.00  0.00     0.241 C 
ATOM      5  O4  non d ame     -33.796   7.862  24.181  0.00  0.00    -0.271 OA
ATOM      6  H19 non d ame     -31.283   8.883  25.957  0.00  0.00     0.163 HD
BRANCH   4   7
ATOM      7  C9  non d ame     -32.090   6.416  24.859  0.00  0.00     0.092 C 
ATOM      8  H11 non d ame     -31.080   6.552  25.244  0.00  0.00     0.088 H 
BRANCH   7   9
ATOM      9  N3  non d ame     -32.805   5.561  25.813  0.00  0.00    -0.346 N 
ATOM     10  C7  non d ame     -32.551   5.689  27.226  0.00  0.00     0.240 C 
ATOM     11  O3  non d ame     -31.774   6.474  27.614  0.00  0.00    -0.271 OA
ATOM     12  H10 non d ame     -33.477   4.879  25.492  0.00  0.00     0.163 HD
BRANCH  10  13
ATOM     13  C6  non d ame     -33.312   4.775  28.236  0.00  0.00     0.086 C 
ATOM     14  H6  non d ame     -32.727   4.554  29.128  0.00  0.00     0.086 H 
BRANCH  13  15
ATOM     15  N2  non d ame     -34.510   5.465  28.685  0.00  0.00    -0.343 N 
ATOM     16  C5  non d ame     -34.864   5.444  30.106  0.00  0.00     0.273 C 
ATOM     17  O2  non d ame     -34.180   4.868  30.879  0.00  0.00    -0.266 OA
ATOM     18  H5  non d ame     -35.090   5.952  28.017  0.00  0.00     0.163 HD
BRANCH  16  19
ATOM     19  C4  non d ame     -36.128   6.169  30.595  0.00  0.00     0.154 A 
ATOM     20  C1  non d ame     -36.338   7.582  30.674  0.00  0.00    -0.017 A 
ATOM     21  C2  non d ame     -37.648   7.727  31.182  0.00  0.00     0.077 A 
ATOM     22  H1  non d ame     -35.646   8.380  30.403  0.00  0.00     0.091 H 
ATOM     23  O1  non d ame     -38.125   6.532  31.369  0.00  0.00    -0.218 OA
ATOM     24  N1  non d ame     -37.256   5.606  31.034  0.00  0.00    -0.123 NA
BRANCH  21  25
ATOM     25  C3  non d ame     -38.368   9.040  31.459  0.00  0.00    -0.029 C 
ATOM     26  H2  non d ame     -39.422   8.842  31.654  0.00  0.00     0.036 H 
ATOM     27  H3  non d ame     -37.923   9.522  32.330  0.00  0.00     0.036 H 
ATOM     28  H4  non d ame     -38.275   9.695  30.594  0.00  0.00     0.036 H 
ENDBRANCH  21  25
ENDBRANCH  16  19
ENDBRANCH  13  15
BRANCH  13  29
ATOM     29  C8  non d ame     -33.683   3.479  27.562  0.00  0.00    -0.049 C 
ATOM     30  H7  non d ame     -33.202   2.650  28.079  0.00  0.00     0.030 H 
ATOM     31  H8  non d ame     -34.765   3.348  27.597  0.00  0.00     0.030 H 
ATOM     32  H9  non d ame     -33.353   3.501  26.523  0.00  0.00     0.030 H 
ENDBRANCH  13  29
ENDBRANCH  10  13
ENDBRANCH   7   9
BRANCH   7  33
ATOM     33  C11 non d ame     -32.098   5.741  23.456  0.00  0.00    -0.033 C 
ATOM     34  H12 non d ame     -31.330   4.967  23.459  0.00  0.00     0.042 H 
BRANCH  33  35
ATOM     35  C12 non d ame     -33.464   5.045  23.168  0.00  0.00    -0.071 C 
ATOM     36  H13 non d ame     -34.244   5.801  23.069  0.00  0.00     0.028 H 
ATOM     37  H14 non d ame     -33.394   4.473  22.243  0.00  0.00     0.028 H 
ATOM     38  H15 non d ame     -33.712   4.376  23.992  0.00  0.00     0.028 H 
ENDBRANCH  33  35
BRANCH  33  39
ATOM     39  C13 non d ame     -31.740   6.772  22.338  0.00  0.00    -0.071 C 
ATOM     40  H16 non d ame     -32.010   7.775  22.668  0.00  0.00     0.028 H 
ATOM     41  H17 non d ame     -30.669   6.731  22.135  0.00  0.00     0.028 H 
ATOM     42  H18 non d ame     -32.289   6.528  21.429  0.00  0.00     0.028 H 
ENDBRANCH  33  39
ENDBRANCH   7  33
ENDBRANCH   4   7
ENDBRANCH   1   3
BRANCH   1  43
ATOM     43  C15 non d ame     -31.694  11.348  25.242  0.00  0.00     0.240 C 
ATOM     44  O5  non d ame     -30.561  11.072  25.468  0.00  0.00    -0.271 OA
ATOM     45  N6  non d ame     -32.051  12.734  24.827  0.00  0.00    -0.355 N 
ATOM     46  H46 non d ame     -33.011  12.979  24.627  0.00  0.00     0.162 HD
BRANCH  45  47
ATOM     47  C20 non d ame     -30.992  13.760  24.710  0.00  0.00     0.013 C 
ATOM     48  H30 non d ame     -30.179  13.479  25.379  0.00  0.00     0.072 H 
BRANCH  47  49
ATOM     49  C21 non d ame     -31.552  15.105  25.111  0.00  0.00    -0.038 C 
ATOM     50  H31 non d ame     -31.324  15.215  26.172  0.00  0.00     0.036 H 
ATOM     51  H32 non d ame     -31.149  15.818  24.391  0.00  0.00     0.036 H 
BRANCH  49  52
ATOM     52  C22 non d ame     -33.089  15.177  24.984  0.00  0.00     0.018 C 
ATOM     53  H33 non d ame     -33.288  15.935  24.229  0.00  0.00     0.048 H 
ATOM     54  H34 non d ame     -33.420  14.150  24.827  0.00  0.00     0.048 H 
BRANCH  52  55
ATOM     55  C23 non d ame     -33.802  15.663  26.277  0.00  0.00     0.259 C 
ATOM     56  O7  non d ame     -34.723  16.412  26.212  0.00  0.00    -0.265 OA
BRANCH  55  57
ATOM     57  O8  non d ame     -33.332  15.213  27.543  0.00  0.00    -0.317 OA
BRANCH  57  58
ATOM     58  C29 non d ame     -33.751  13.888  27.882  0.00  0.00     0.052 C 
ATOM     59  H47 non d ame     -34.668  14.008  28.459  0.00  0.00     0.082 H 
ATOM     60  H48 non d ame     -33.764  13.333  26.945  0.00  0.00     0.082 H 
BRANCH  58  61
ATOM     61  C35 non d ame     -32.668  13.266  28.804  0.00  0.00    -0.034 A 
ATOM     62  C30 non d ame     -31.336  13.251  28.401  0.00  0.00    -0.075 A 
ATOM     63  C31 non d ame     -30.363  12.692  29.229  0.00  0.00    -0.082 A 
ATOM     64  H49 non d ame     -31.054  13.676  27.438  0.00  0.00     0.084 H 
ATOM     65  C32 non d ame     -30.726  12.145  30.462  0.00  0.00    -0.083 A 
ATOM     66  H50 non d ame     -29.319  12.683  28.911  0.00  0.00     0.083 H 
ATOM     67  C33 non d ame     -32.057  12.159  30.858  0.00  0.00    -0.082 A 
ATOM     68  H51 non d ame     -29.971  11.707  31.116  0.00  0.00     0.083 H 
ATOM     69  C34 non d ame     -33.032  12.718  30.035  0.00  0.00    -0.075 A 
ATOM     70  H52 non d ame     -32.337  11.729  31.820  0.00  0.00     0.083 H 
ATOM     71  H53 non d ame     -34.075  12.727  30.353  0.00  0.00     0.084 H 
ENDBRANCH  58  61
ENDBRANCH  57  58
ENDBRANCH  55  57
ENDBRANCH  52  55
ENDBRANCH  49  52
ENDBRANCH  47  49
BRANCH  47  72
ATOM     72  C24 non d ame     -30.493  13.823  23.268  0.00  0.00    -0.039 C 
ATOM     73  H35 non d ame     -29.528  13.315  23.273  0.00  0.00     0.036 H 
ATOM     74  H36 non d ame     -31.310  13.435  22.660  0.00  0.00     0.036 H 
BRANCH  72  75
ATOM     75  C25 non d ame     -30.230  15.332  22.798  0.00  0.00    -0.001 C 
ATOM     76  C26 non d ame     -31.272  15.732  21.592  0.00  0.00    -0.035 C 
ATOM     77  C27 non d ame     -30.566  16.244  20.555  0.00  0.00     0.085 C 
ATOM     78  H38 non d ame     -31.723  14.833  21.173  0.00  0.00     0.036 H 
ATOM     79  H39 non d ame     -31.905  16.564  21.904  0.00  0.00     0.036 H 
ATOM     80  N5  non d ame     -29.112  15.927  20.813  0.00  0.00    -0.049 N 
ATOM     81  H40 non d ame     -30.900  15.694  19.675  0.00  0.00     0.075 H 
ATOM     82  H41 non d ame     -30.709  17.322  20.610  0.00  0.00     0.075 H 
ATOM     83  C28 non d ame     -29.023  15.482  22.362  0.00  0.00     0.193 C 
ATOM     84  H42 non d ame     -28.887  15.130  20.236  0.00  0.00     0.280 HD
ATOM     85  H43 non d ame     -28.607  16.794  20.698  0.00  0.00     0.280 HD
ATOM     86  H44 non d ame     -28.626  16.166  23.113  0.00  0.00     0.129 H 
ATOM     87  H37 non d ame     -30.158  16.020  23.640  0.00  0.00     0.046 H 
BRANCH  83  88
ATOM     88  O6  non d ame     -28.252  14.286  22.488  0.00  0.00    -0.369 OA
ATOM     89  H45 non d ame     -27.323  14.512  22.575  0.00  0.00     0.212 HD
ENDBRANCH  83  88
ENDBRANCH  72  75
ENDBRANCH  47  72
ENDBRANCH  45  47
ENDBRANCH   1  43
BRANCH   1  90
ATOM     90  C16 non d ame     -33.600  10.488  26.638  0.00  0.00    -0.035 C 
ATOM     91  H21 non d ame     -32.969  11.111  27.269  0.00  0.00     0.037 H 
ATOM     92  H22 non d ame     -34.569  10.856  26.302  0.00  0.00     0.037 H 
BRANCH  90  93
ATOM     93  C17 non d ame     -33.880   9.182  27.448  0.00  0.00    -0.059 C 
ATOM     94  H23 non d ame     -33.277   8.386  27.011  0.00  0.00     0.038 H 
BRANCH  93  95
ATOM     95  C18 non d ame     -33.472   9.320  28.949  0.00  0.00    -0.073 C 
ATOM     96  H24 non d ame     -33.214  10.358  29.163  0.00  0.00     0.028 H 
ATOM     97  H25 non d ame     -34.306   9.017  29.582  0.00  0.00     0.028 H 
ATOM     98  H26 non d ame     -32.611   8.683  29.152  0.00  0.00     0.028 H 
ENDBRANCH  93  95
BRANCH  93  99
ATOM     99  C19 non d ame     -35.348   8.763  27.320  0.00  0.00    -0.073 C 
ATOM    100  H27 non d ame     -35.868   8.971  28.256  0.00  0.00     0.028 H 
ATOM    101  H28 non d ame     -35.817   9.324  26.512  0.00  0.00     0.028 H 
ATOM    102  H29 non d ame     -35.403   7.696  27.102  0.00  0.00     0.028 H 
ENDBRANCH  93  99
ENDBRANCH  90  93
ENDBRANCH   1  90
TORSDOF 26
ENDMDL
MODEL 2
REMARK VINA RESULT:      -7.1      2.358      6.162
REMARK  26 active torsions:
REMARK  status: ('A' for Active; 'I' for Inactive)
REMARK    1  A    between atoms: C2_2  and  C3_3 
REMARK    2  A    between atoms: C4_6  and  C5_7 
REMARK       I    between atoms: C5_7  and  N2_9 
REMARK    3  A    between atoms: N2_9  and  C6_10 
REMARK    4  A    between atoms: C6_10  and  C7_11 
REMARK    5  A    between atoms: C6_10  and  C8_13 
REMARK       I    between atoms: C7_11  and  N3_14 
REMARK    6  A    between atoms: N3_14  and  C9_15 
REMARK    7  A    between atoms: C9_15  and  C10_16 
REMARK    8  A    between atoms: C9_15  and  C11_18 
REMARK       I    between atoms: C10_16  and  N4_21 
REMARK    9  A    between atoms: C11_18  and  C12_19 
REMARK   10  A    between atoms: C11_18  and  C13_20 
REMARK   11  A    between atoms: N4_21  and  C14_22 
REMARK   12  A    between atoms: C14_22  and  C15_23 
REMARK   13  A    between atoms: C14_22  and  C16_25 
REMARK       I    between atoms: C15_23  and  N6_40 
REMARK   14  A    between atoms: C16_25  and  C17_26 
REMARK   15  A    between atoms: C17_26  and  C18_27 
REMARK   16  A    between atoms: C17_26  and  C19_28 
REMARK   17  A    between atoms: C20_29  and  C21_30 
REMARK   18  A    between atoms: C20_29  and  C24_33 
REMARK   19  A    between atoms: C20_29  and  N6_40 
REMARK   20  A    between atoms: C21_30  and  C22_31 
REMARK   21  A    between atoms: C22_31  and  C23_32 
REMARK   22  A    between atoms: C23_32  and  O8_43 
REMARK   23  A    between atoms: C24_33  and  C25_34 
REMARK   24  A    between atoms: C28_38  and  O6_39 
REMARK   25  A    between atoms: C29_42  and  O8_43 
REMARK   26  A    between atoms: C29_42  and  C35_49 
ROOT
ATOM      1  C14 non d ame     -31.020  14.168  24.217  0.00  0.00     0.089 C 
ATOM      2  H20 non d ame     -30.003  13.791  24.331  0.00  0.00     0.087 H 
ENDROOT
BRANCH   1   3
ATOM      3  N4  non d ame     -31.922  13.030  24.318  0.00  0.00    -0.346 N 
ATOM      4  C10 non d ame     -31.628  11.907  25.279  0.00  0.00     0.241 C 
ATOM      5  O4  non d ame     -30.657  11.939  25.961  0.00  0.00    -0.271 OA
ATOM      6  H19 non d ame     -32.741  13.021  23.727  0.00  0.00     0.163 HD
BRANCH   4   7
ATOM      7  C9  non d ame     -32.575  10.740  25.374  0.00  0.00     0.092 C 
ATOM      8  H11 non d ame     -33.354  10.848  24.620  0.00  0.00     0.088 H 
BRANCH   7   9
ATOM      9  N3  non d ame     -31.853   9.499  25.076  0.00  0.00    -0.346 N 
ATOM     10  C7  non d ame     -31.881   8.952  23.742  0.00  0.00     0.240 C 
ATOM     11  O3  non d ame     -32.480   9.496  22.897  0.00  0.00    -0.271 OA
ATOM     12  H10 non d ame     -31.333   9.018  25.796  0.00  0.00     0.163 HD
BRANCH  10  13
ATOM     13  C6  non d ame     -31.114   7.629  23.431  0.00  0.00     0.086 C 
ATOM     14  H6  non d ame     -30.039   7.779  23.332  0.00  0.00     0.086 H 
BRANCH  13  15
ATOM     15  N2  non d ame     -31.305   6.703  24.535  0.00  0.00    -0.343 N 
ATOM     16  C5  non d ame     -32.662   6.326  24.935  0.00  0.00     0.273 C 
ATOM     17  O2  non d ame     -33.595   6.777  24.365  0.00  0.00    -0.266 OA
ATOM     18  H5  non d ame     -30.502   6.325  25.018  0.00  0.00     0.163 HD
BRANCH  16  19
ATOM     19  C4  non d ame     -32.878   5.347  26.099  0.00  0.00     0.154 A 
ATOM     20  C1  non d ame     -32.504   5.535  27.468  0.00  0.00    -0.017 A 
ATOM     21  C2  non d ame     -32.920   4.354  28.123  0.00  0.00     0.077 A 
ATOM     22  H1  non d ame     -32.008   6.395  27.916  0.00  0.00     0.091 H 
ATOM     23  O1  non d ame     -33.468   3.586  27.228  0.00  0.00    -0.218 OA
ATOM     24  N1  non d ame     -33.455   4.144  26.039  0.00  0.00    -0.123 NA
BRANCH  21  25
ATOM     25  C3  non d ame     -32.758   4.040  29.604  0.00  0.00    -0.029 C 
ATOM     26  H2  non d ame     -33.344   4.747  30.191  0.00  0.00     0.036 H 
ATOM     27  H3  non d ame     -33.110   3.027  29.802  0.00  0.00     0.036 H 
ATOM     28  H4  non d ame     -31.708   4.121  29.881  0.00  0.00     0.036 H 
ENDBRANCH  21  25
ENDBRANCH  16  19
ENDBRANCH  13  15
BRANCH  13  29
ATOM     29  C8  non d ame     -31.641   7.027  22.154  0.00  0.00    -0.049 C 
ATOM     30  H7  non d ame     -32.725   7.130  22.124  0.00  0.00     0.030 H 
ATOM     31  H8  non d ame     -31.204   7.545  21.300  0.00  0.00     0.030 H 
ATOM     32  H9  non d ame     -31.375   5.970  22.113  0.00  0.00     0.030 H 
ENDBRANCH  13  29
ENDBRANCH  10  13
ENDBRANCH   7   9
BRANCH   7  33
ATOM     33  C11 non d ame     -33.160  10.663  26.815  0.00  0.00    -0.033 C 
ATOM     34  H12 non d ame     -32.331  10.781  27.513  0.00  0.00     0.042 H 
BRANCH  33  35
ATOM     35  C12 non d ame     -34.167  11.825  27.082  0.00  0.00    -0.071 C 
ATOM     36  H13 non d ame     -34.613  12.142  26.139  0.00  0.00     0.028 H 
ATOM     37  H14 non d ame     -34.949  11.480  27.756  0.00  0.00     0.028 H 
ATOM     38  H15 non d ame     -33.641  12.665  27.533  0.00  0.00     0.028 H 
ENDBRANCH  33  35
BRANCH  33  39
ATOM     39  C13 non d ame     -33.817   9.271  27.078  0.00  0.00    -0.071 C 
ATOM     40  H16 non d ame     -33.197   8.487  26.642  0.00  0.00     0.028 H 
ATOM     41  H17 non d ame     -33.908   9.108  28.153  0.00  0.00     0.028 H 
ATOM     42  H18 non d ame     -34.808   9.245  26.624  0.00  0.00     0.028 H 
ENDBRANCH  33  39
ENDBRANCH   7  33
ENDBRANCH   4   7
ENDBRANCH   1   3
BRANCH   1  43
ATOM     43  C15 non d ame     -31.393  15.196  25.324  0.00  0.00     0.240 C 
ATOM     44  O5  non d ame     -30.926  16.288  25.298  0.00  0.00    -0.271 OA
ATOM     45  N6  non d ame     -32.341  14.821  26.411  0.00  0.00    -0.355 N 
ATOM     46  H46 non d ame     -32.749  13.897  26.441  0.00  0.00     0.162 HD
BRANCH  45  47
ATOM     47  C20 non d ame     -32.686  15.810  27.455  0.00  0.00     0.013 C 
ATOM     48  H30 non d ame     -32.006  16.655  27.353  0.00  0.00     0.072 H 
BRANCH  47  49
ATOM     49  C21 non d ame     -32.524  15.176  28.818  0.00  0.00    -0.038 C 
ATOM     50  H31 non d ame     -32.563  15.999  29.532  0.00  0.00     0.036 H 
ATOM     51  H32 non d ame     -33.268  14.380  28.863  0.00  0.00     0.036 H 
BRANCH  49  52
ATOM     52  C22 non d ame     -31.148  14.499  29.004  0.00  0.00     0.018 C 
ATOM     53  H33 non d ame     -30.680  14.507  28.021  0.00  0.00     0.048 H 
ATOM     54  H34 non d ame     -30.675  15.018  29.838  0.00  0.00     0.048 H 
BRANCH  52  55
ATOM     55  C23 non d ame     -31.237  13.006  29.424  0.00  0.00     0.259 C 
ATOM     56  O7  non d ame     -30.308  12.280  29.272  0.00  0.00    -0.265 OA
BRANCH  55  57
ATOM     57  O8  non d ame     -32.448  12.509  29.981  0.00  0.00    -0.317 OA
BRANCH  57  58
ATOM     58  C29 non d ame     -32.260  11.526  31.003  0.00  0.00     0.052 C 
ATOM     59  H47 non d ame     -31.509  10.838  30.615  0.00  0.00     0.082 H 
ATOM     60  H48 non d ame     -32.068  12.084  31.918  0.00  0.00     0.082 H 
BRANCH  58  61
ATOM     61  C35 non d ame     -33.594  10.751  31.173  0.00  0.00    -0.034 A 
ATOM     62  C30 non d ame     -33.848   9.623  30.398  0.00  0.00    -0.075 A 
ATOM     63  C31 non d ame     -35.046   8.927  30.550  0.00  0.00    -0.082 A 
ATOM     64  H49 non d ame     -33.109   9.285  29.671  0.00  0.00     0.084 H 
ATOM     65  C32 non d ame     -35.994   9.364  31.480  0.00  0.00    -0.083 A 
ATOM     66  H50 non d ame     -35.242   8.042  29.943  0.00  0.00     0.083 H 
ATOM     67  C33 non d ame     -35.738  10.492  32.247  0.00  0.00    -0.082 A 
ATOM     68  H51 non d ame     -36.933   8.825  31.606  0.00  0.00     0.083 H 
ATOM     69  C34 non d ame     -34.541  11.189  32.100  0.00  0.00    -0.075 A 
ATOM     70  H52 non d ame     -36.480  10.832  32.971  0.00  0.00     0.083 H 
ATOM     71  H53 non d ame     -34.346  12.073  32.708  0.00  0.00     0.084 H 
ENDBRANCH  58  61
ENDBRANCH  57  58
ENDBRANCH  55  57
ENDBRANCH  52  55
ENDBRANCH  49  52
ENDBRANCH  47  49
BRANCH  47  72
ATOM     72  C24 non d ame     -34.132  16.268  27.274  0.00  0.00    -0.039 C 
ATOM     73  H35 non d ame     -34.532  15.653  26.467  0.00  0.00     0.036 H 
ATOM     74  H36 non d ame     -34.578  16.221  28.268  0.00  0.00     0.036 H 
BRANCH  72  75
ATOM     75  C25 non d ame     -34.215  17.793  26.792  0.00  0.00    -0.001 C 
ATOM     76  C26 non d ame     -32.709  18.454  26.763  0.00  0.00    -0.035 C 
ATOM     77  C27 non d ame     -32.730  19.619  27.454  0.00  0.00     0.085 C 
ATOM     78  H38 non d ame     -32.017  17.833  27.332  0.00  0.00     0.036 H 
ATOM     79  H39 non d ame     -32.455  18.763  25.749  0.00  0.00     0.036 H 
ATOM     80  N5  non d ame     -34.028  19.651  28.226  0.00  0.00    -0.049 N 
ATOM     81  H40 non d ame     -31.899  19.556  28.157  0.00  0.00     0.075 H 
ATOM     82  H41 non d ame     -32.746  20.404  26.699  0.00  0.00     0.075 H 
ATOM     83  C28 non d ame     -34.954  18.495  27.585  0.00  0.00     0.193 C 
ATOM     84  H42 non d ame     -33.802  19.392  29.175  0.00  0.00     0.280 HD
ATOM     85  H43 non d ame     -34.452  20.547  28.033  0.00  0.00     0.280 HD
ATOM     86  H44 non d ame     -35.775  18.752  26.914  0.00  0.00     0.129 H 
ATOM     87  H37 non d ame     -34.824  17.910  25.896  0.00  0.00     0.046 H 
BRANCH  83  88
ATOM     88  O6  non d ame     -35.540  17.702  28.619  0.00  0.00    -0.369 OA
ATOM     89  H45 non d ame     -35.273  18.045  29.475  0.00  0.00     0.212 HD
ENDBRANCH  83  88
ENDBRANCH  72  75
ENDBRANCH  47  72
ENDBRANCH  45  47
ENDBRANCH   1  43
BRANCH   1  90
ATOM     90  C16 non d ame     -31.180  14.810  22.848  0.00  0.00    -0.035 C 
ATOM     91  H21 non d ame     -31.525  14.012  22.194  0.00  0.00     0.037 H 
ATOM     92  H22 non d ame     -31.804  15.689  23.014  0.00  0.00     0.037 H 
BRANCH  90  93
ATOM     93  C17 non d ame     -29.838  15.329  22.240  0.00  0.00    -0.059 C 
ATOM     94  H23 non d ame     -29.532  16.204  22.813  0.00  0.00     0.038 H 
BRANCH  93  95
ATOM     95  C18 non d ame     -28.695  14.269  22.342  0.00  0.00    -0.073 C 
ATOM     96  H24 non d ame     -28.904  13.587  23.167  0.00  0.00     0.028 H 
ATOM     97  H25 non d ame     -28.639  13.705  21.411  0.00  0.00     0.028 H 
ATOM     98  H26 non d ame     -27.746  14.774  22.520  0.00  0.00     0.028 H 
ENDBRANCH  93  95
BRANCH  93  99
ATOM     99  C19 non d ame     -30.034  15.780  20.789  0.00  0.00    -0.073 C 
ATOM    100  H27 non d ame     -30.974  15.379  20.408  0.00  0.00     0.028 H 
ATOM    101  H28 non d ame     -30.061  16.869  20.747  0.00  0.00     0.028 H 
ATOM    102  H29 non d ame     -29.208  15.413  20.180  0.00  0.00     0.028 H 
ENDBRANCH  93  99
ENDBRANCH  90  93
ENDBRANCH   1  90
TORSDOF 26
ENDMDL
MODEL 3
REMARK VINA RESULT:      -7.0      1.341      2.711
REMARK  26 active torsions:
REMARK  status: ('A' for Active; 'I' for Inactive)
REMARK    1  A    between atoms: C2_2  and  C3_3 
REMARK    2  A    between atoms: C4_6  and  C5_7 
REMARK       I    between atoms: C5_7  and  N2_9 
REMARK    3  A    between atoms: N2_9  and  C6_10 
REMARK    4  A    between atoms: C6_10  and  C7_11 
REMARK    5  A    between atoms: C6_10  and  C8_13 
REMARK       I    between atoms: C7_11  and  N3_14 
REMARK    6  A    between atoms: N3_14  and  C9_15 
REMARK    7  A    between atoms: C9_15  and  C10_16 
REMARK    8  A    between atoms: C9_15  and  C11_18 
REMARK       I    between atoms: C10_16  and  N4_21 
REMARK    9  A    between atoms: C11_18  and  C12_19 
REMARK   10  A    between atoms: C11_18  and  C13_20 
REMARK   11  A    between atoms: N4_21  and  C14_22 
REMARK   12  A    between atoms: C14_22  and  C15_23 
REMARK   13  A    between atoms: C14_22  and  C16_25 
REMARK       I    between atoms: C15_23  and  N6_40 
REMARK   14  A    between atoms: C16_25  and  C17_26 
REMARK   15  A    between atoms: C17_26  and  C18_27 
REMARK   16  A    between atoms: C17_26  and  C19_28 
REMARK   17  A    between atoms: C20_29  and  C21_30 
REMARK   18  A    between atoms: C20_29  and  C24_33 
REMARK   19  A    between atoms: C20_29  and  N6_40 
REMARK   20  A    between atoms: C21_30  and  C22_31 
REMARK   21  A    between atoms: C22_31  and  C23_32 
REMARK   22  A    between atoms: C23_32  and  O8_43 
REMARK   23  A    between atoms: C24_33  and  C25_34 
REMARK   24  A    between atoms: C28_38  and  O6_39 
REMARK   25  A    between atoms: C29_42  and  O8_43 
REMARK   26  A    between atoms: C29_42  and  C35_49 
ROOT
ATOM      1  C14 non d ame     -32.838  10.339  25.960  0.00  0.00     0.089 C 
ATOM      2  H20 non d ame     -33.683  10.421  25.276  0.00  0.00     0.087 H 
ENDROOT
BRANCH   1   3
ATOM      3  N4  non d ame     -32.310   8.988  25.845  0.00  0.00    -0.346 N 
ATOM      4  C10 non d ame     -32.957   7.994  24.915  0.00  0.00     0.241 C 
ATOM      5  O4  non d ame     -33.903   8.304  24.269  0.00  0.00    -0.271 OA
ATOM      6  H19 non d ame     -31.505   8.744  26.405  0.00  0.00     0.163 HD
BRANCH   4   7
ATOM      7  C9  non d ame     -32.394   6.601  24.804  0.00  0.00     0.092 C 
ATOM      8  H11 non d ame     -31.335   6.621  25.057  0.00  0.00     0.088 H 
BRANCH   7   9
ATOM      9  N3  non d ame     -33.056   5.728  25.779  0.00  0.00    -0.346 N 
ATOM     10  C7  non d ame     -32.671   5.777  27.167  0.00  0.00     0.240 C 
ATOM     11  O3  non d ame     -31.831   6.512  27.518  0.00  0.00    -0.271 OA
ATOM     12  H10 non d ame     -33.781   5.088  25.490  0.00  0.00     0.163 HD
BRANCH  10  13
ATOM     13  C6  non d ame     -33.376   4.843  28.199  0.00  0.00     0.086 C 
ATOM     14  H6  non d ame     -32.792   4.703  29.109  0.00  0.00     0.086 H 
BRANCH  13  15
ATOM     15  N2  non d ame     -34.634   5.450  28.603  0.00  0.00    -0.343 N 
ATOM     16  C5  non d ame     -35.010   5.459  30.018  0.00  0.00     0.273 C 
ATOM     17  O2  non d ame     -34.295   4.973  30.824  0.00  0.00    -0.266 OA
ATOM     18  H5  non d ame     -35.240   5.861  27.907  0.00  0.00     0.163 HD
BRANCH  16  19
ATOM     19  C4  non d ame     -36.336   6.099  30.458  0.00  0.00     0.154 A 
ATOM     20  C1  non d ame     -36.921   7.306  29.961  0.00  0.00    -0.017 A 
ATOM     21  C2  non d ame     -38.125   7.452  30.686  0.00  0.00     0.077 A 
ATOM     22  H1  non d ame     -36.532   7.974  29.193  0.00  0.00     0.091 H 
ATOM     23  O1  non d ame     -38.212   6.441  31.499  0.00  0.00    -0.218 OA
ATOM     24  N1  non d ame     -37.180   5.637  31.385  0.00  0.00    -0.123 NA
BRANCH  21  25
ATOM     25  C3  non d ame     -39.134   8.582  30.540  0.00  0.00    -0.029 C 
ATOM     26  H2  non d ame     -40.107   8.169  30.275  0.00  0.00     0.036 H 
ATOM     27  H3  non d ame     -39.215   9.122  31.484  0.00  0.00     0.036 H 
ATOM     28  H4  non d ame     -38.805   9.266  29.758  0.00  0.00     0.036 H 
ENDBRANCH  21  25
ENDBRANCH  16  19
ENDBRANCH  13  15
BRANCH  13  29
ATOM     29  C8  non d ame     -33.631   3.497  27.571  0.00  0.00    -0.049 C 
ATOM     30  H7  non d ame     -33.698   3.607  26.490  0.00  0.00     0.030 H 
ATOM     31  H8  non d ame     -32.812   2.821  27.817  0.00  0.00     0.030 H 
ATOM     32  H9  non d ame     -34.567   3.088  27.954  0.00  0.00     0.030 H 
ENDBRANCH  13  29
ENDBRANCH  10  13
ENDBRANCH   7   9
BRANCH   7  33
ATOM     33  C11 non d ame     -32.645   6.054  23.368  0.00  0.00    -0.033 C 
ATOM     34  H12 non d ame     -33.440   6.651  22.922  0.00  0.00     0.042 H 
BRANCH  33  35
ATOM     35  C12 non d ame     -31.378   6.215  22.471  0.00  0.00    -0.071 C 
ATOM     36  H13 non d ame     -31.598   6.899  21.651  0.00  0.00     0.028 H 
ATOM     37  H14 non d ame     -30.558   6.613  23.067  0.00  0.00     0.028 H 
ATOM     38  H15 non d ame     -31.094   5.243  22.065  0.00  0.00     0.028 H 
ENDBRANCH  33  35
BRANCH  33  39
ATOM     39  C13 non d ame     -33.124   4.568  23.412  0.00  0.00    -0.071 C 
ATOM     40  H16 non d ame     -32.879   4.079  22.468  0.00  0.00     0.028 H 
ATOM     41  H17 non d ame     -32.625   4.048  24.231  0.00  0.00     0.028 H 
ATOM     42  H18 non d ame     -34.202   4.538  23.567  0.00  0.00     0.028 H 
ENDBRANCH  33  39
ENDBRANCH   7  33
ENDBRANCH   4   7
ENDBRANCH   1   3
BRANCH   1  43
ATOM     43  C15 non d ame     -31.703  11.346  25.613  0.00  0.00     0.240 C 
ATOM     44  O5  non d ame     -30.569  11.046  25.804  0.00  0.00    -0.271 OA
ATOM     45  N6  non d ame     -32.029  12.680  25.033  0.00  0.00    -0.355 N 
ATOM     46  H46 non d ame     -32.989  12.944  24.862  0.00  0.00     0.162 HD
BRANCH  45  47
ATOM     47  C20 non d ame     -30.939  13.624  24.708  0.00  0.00     0.013 C 
ATOM     48  H30 non d ame     -30.012  13.218  25.114  0.00  0.00     0.072 H 
BRANCH  47  49
ATOM     49  C21 non d ame     -31.235  14.966  25.338  0.00  0.00    -0.038 C 
ATOM     50  H31 non d ame     -30.428  15.626  25.018  0.00  0.00     0.036 H 
ATOM     51  H32 non d ame     -32.266  15.196  25.069  0.00  0.00     0.036 H 
BRANCH  49  52
ATOM     52  C22 non d ame     -31.184  14.929  26.881  0.00  0.00     0.018 C 
ATOM     53  H33 non d ame     -30.516  14.107  27.134  0.00  0.00     0.048 H 
ATOM     54  H34 non d ame     -30.941  15.945  27.192  0.00  0.00     0.048 H 
BRANCH  52  55
ATOM     55  C23 non d ame     -32.548  14.593  27.544  0.00  0.00     0.259 C 
ATOM     56  O7  non d ame     -32.588  14.014  28.582  0.00  0.00    -0.265 OA
BRANCH  55  57
ATOM     57  O8  non d ame     -33.754  14.972  26.890  0.00  0.00    -0.317 OA
BRANCH  57  58
ATOM     58  C29 non d ame     -34.477  16.011  27.557  0.00  0.00     0.052 C 
ATOM     59  H47 non d ame     -35.492  15.961  27.165  0.00  0.00     0.082 H 
ATOM     60  H48 non d ame     -34.293  15.862  28.620  0.00  0.00     0.082 H 
BRANCH  58  61
ATOM     61  C35 non d ame     -33.855  17.370  27.138  0.00  0.00    -0.034 A 
ATOM     62  C30 non d ame     -33.137  18.122  28.063  0.00  0.00    -0.075 A 
ATOM     63  C31 non d ame     -32.579  19.343  27.687  0.00  0.00    -0.082 A 
ATOM     64  H49 non d ame     -33.012  17.755  29.082  0.00  0.00     0.084 H 
ATOM     65  C32 non d ame     -32.743  19.813  26.381  0.00  0.00    -0.083 A 
ATOM     66  H50 non d ame     -32.016  19.929  28.414  0.00  0.00     0.083 H 
ATOM     67  C33 non d ame     -33.463  19.061  25.463  0.00  0.00    -0.082 A 
ATOM     68  H51 non d ame     -32.309  20.767  26.079  0.00  0.00     0.083 H 
ATOM     69  C34 non d ame     -34.021  17.839  25.834  0.00  0.00    -0.075 A 
ATOM     70  H52 non d ame     -33.591  19.432  24.445  0.00  0.00     0.083 H 
ATOM     71  H53 non d ame     -34.583  17.254  25.107  0.00  0.00     0.084 H 
ENDBRANCH  58  61
ENDBRANCH  57  58
ENDBRANCH  55  57
ENDBRANCH  52  55
ENDBRANCH  49  52
ENDBRANCH  47  49
BRANCH  47  72
ATOM     72  C24 non d ame     -30.829  13.784  23.193  0.00  0.00    -0.039 C 
ATOM     73  H35 non d ame     -30.143  13.000  22.869  0.00  0.00     0.036 H 
ATOM     74  H36 non d ame     -31.855  13.794  22.827  0.00  0.00     0.036 H 
BRANCH  72  75
ATOM     75  C25 non d ame     -30.169  15.187  22.791  0.00  0.00    -0.001 C 
ATOM     76  C26 non d ame     -31.267  16.114  21.993  0.00  0.00    -0.035 C 
ATOM     77  C27 non d ame     -30.712  16.552  20.838  0.00  0.00     0.085 C 
ATOM     78  H38 non d ame     -32.102  15.499  21.658  0.00  0.00     0.036 H 
ATOM     79  H39 non d ame     -31.456  17.033  22.549  0.00  0.00     0.036 H 
ATOM     80  N5  non d ame     -29.456  15.743  20.618  0.00  0.00    -0.049 N 
ATOM     81  H40 non d ame     -31.433  16.308  20.058  0.00  0.00     0.075 H 
ATOM     82  H41 non d ame     -30.438  17.590  21.022  0.00  0.00     0.075 H 
ATOM     83  C28 non d ame     -29.143  15.018  22.026  0.00  0.00     0.193 C 
ATOM     84  H42 non d ame     -29.687  15.036  19.936  0.00  0.00     0.280 HD
ATOM     85  H43 non d ame     -28.719  16.408  20.427  0.00  0.00     0.280 HD
ATOM     86  H44 non d ame     -28.349  15.389  22.674  0.00  0.00     0.129 H 
ATOM     87  H37 non d ame     -29.642  15.649  23.626  0.00  0.00     0.046 H 
BRANCH  83  88
ATOM     88  O6  non d ame     -28.849  13.636  21.814  0.00  0.00    -0.369 OA
ATOM     89  H45 non d ame     -28.015  13.417  22.237  0.00  0.00     0.212 HD
ENDBRANCH  83  88
ENDBRANCH  72  75
ENDBRANCH  47  72
ENDBRANCH  45  47
ENDBRANCH   1  43
BRANCH   1  90
ATOM     90  C16 non d ame     -33.306  10.570  27.388  0.00  0.00    -0.035 C 
ATOM     91  H21 non d ame     -32.396  10.674  27.977  0.00  0.00     0.037 H 
ATOM     92  H22 non d ame     -34.015  11.396  27.328  0.00  0.00     0.037 H 
BRANCH  90  93
ATOM     93  C17 non d ame     -34.087   9.360  27.994  0.00  0.00    -0.059 C 
ATOM     94  H23 non d ame     -33.599   8.448  27.651  0.00  0.00     0.038 H 
BRANCH  93  95
ATOM     95  C18 non d ame     -34.054   9.360  29.555  0.00  0.00    -0.073 C 
ATOM     96  H24 non d ame     -34.914   9.910  29.938  0.00  0.00     0.028 H 
ATOM     97  H25 non d ame     -34.090   8.333  29.919  0.00  0.00     0.028 H 
ATOM     98  H26 non d ame     -33.136   9.836  29.900  0.00  0.00     0.028 H 
ENDBRANCH  93  95
BRANCH  93  99
ATOM     99  C19 non d ame     -35.529   9.327  27.479  0.00  0.00    -0.073 C 
ATOM    100  H27 non d ame     -35.790  10.303  27.068  0.00  0.00     0.028 H 
ATOM    101  H28 non d ame     -35.621   8.570  26.701  0.00  0.00     0.028 H 
ATOM    102  H29 non d ame     -36.203   9.087  28.302  0.00  0.00     0.028 H 
ENDBRANCH  93  99
ENDBRANCH  90  93
ENDBRANCH   1  90
TORSDOF 26
ENDMDL
MODEL 4
REMARK VINA RESULT:      -7.0      2.671      7.855
REMARK  26 active torsions:
REMARK  status: ('A' for Active; 'I' for Inactive)
REMARK    1  A    between atoms: C2_2  and  C3_3 
REMARK    2  A    between atoms: C4_6  and  C5_7 
REMARK       I    between atoms: C5_7  and  N2_9 
REMARK    3  A    between atoms: N2_9  and  C6_10 
REMARK    4  A    between atoms: C6_10  and  C7_11 
REMARK    5  A    between atoms: C6_10  and  C8_13 
REMARK       I    between atoms: C7_11  and  N3_14 
REMARK    6  A    between atoms: N3_14  and  C9_15 
REMARK    7  A    between atoms: C9_15  and  C10_16 
REMARK    8  A    between atoms: C9_15  and  C11_18 
REMARK       I    between atoms: C10_16  and  N4_21 
REMARK    9  A    between atoms: C11_18  and  C12_19 
REMARK   10  A    between atoms: C11_18  and  C13_20 
REMARK   11  A    between atoms: N4_21  and  C14_22 
REMARK   12  A    between atoms: C14_22  and  C15_23 
REMARK   13  A    between atoms: C14_22  and  C16_25 
REMARK       I    between atoms: C15_23  and  N6_40 
REMARK   14  A    between atoms: C16_25  and  C17_26 
REMARK   15  A    between atoms: C17_26  and  C18_27 
REMARK   16  A    between atoms: C17_26  and  C19_28 
REMARK   17  A    between atoms: C20_29  and  C21_30 
REMARK   18  A    between atoms: C20_29  and  C24_33 
REMARK   19  A    between atoms: C20_29  and  N6_40 
REMARK   20  A    between atoms: C21_30  and  C22_31 
REMARK   21  A    between atoms: C22_31  and  C23_32 
REMARK   22  A    between atoms: C23_32  and  O8_43 
REMARK   23  A    between atoms: C24_33  and  C25_34 
REMARK   24  A    between atoms: C28_38  and  O6_39 
REMARK   25  A    between atoms: C29_42  and  O8_43 
REMARK   26  A    between atoms: C29_42  and  C35_49 
ROOT
ATOM      1  C14 non d ame     -33.976   6.642  27.001  0.00  0.00     0.089 C 
ATOM      2  H20 non d ame     -33.712   6.083  27.899  0.00  0.00     0.087 H 
ENDROOT
BRANCH   1   3
ATOM      3  N4  non d ame     -34.343   7.988  27.415  0.00  0.00    -0.346 N 
ATOM      4  C10 non d ame     -34.714   8.271  28.848  0.00  0.00     0.241 C 
ATOM      5  O4  non d ame     -34.713   7.397  29.652  0.00  0.00    -0.271 OA
ATOM      6  H19 non d ame     -34.341   8.717  26.715  0.00  0.00     0.163 HD
BRANCH   4   7
ATOM      7  C9  non d ame     -35.087   9.671  29.259  0.00  0.00     0.092 C 
ATOM      8  H11 non d ame     -35.270   9.692  30.333  0.00  0.00     0.088 H 
BRANCH   7   9
ATOM      9  N3  non d ame     -33.964  10.574  28.993  0.00  0.00    -0.346 N 
ATOM     10  C7  non d ame     -33.023  10.883  30.041  0.00  0.00     0.240 C 
ATOM     11  O3  non d ame     -33.155  10.414  31.105  0.00  0.00    -0.271 OA
ATOM     12  H10 non d ame     -33.838  10.988  28.080  0.00  0.00     0.163 HD
BRANCH  10  13
ATOM     13  C6  non d ame     -31.831  11.848  29.753  0.00  0.00     0.086 C 
ATOM     14  H6  non d ame     -31.256  11.556  28.874  0.00  0.00     0.086 H 
BRANCH  13  15
ATOM     15  N2  non d ame     -32.354  13.177  29.485  0.00  0.00    -0.343 N 
ATOM     16  C5  non d ame     -31.558  14.121  28.699  0.00  0.00     0.273 C 
ATOM     17  O2  non d ame     -30.495  13.804  28.289  0.00  0.00    -0.266 OA
ATOM     18  H5  non d ame     -33.262  13.441  29.842  0.00  0.00     0.163 HD
BRANCH  16  19
ATOM     19  C4  non d ame     -32.099  15.530  28.408  0.00  0.00     0.154 A 
ATOM     20  C1  non d ame     -32.428  16.083  27.130  0.00  0.00    -0.017 A 
ATOM     21  C2  non d ame     -32.877  17.393  27.407  0.00  0.00     0.077 A 
ATOM     22  H1  non d ame     -32.353  15.606  26.153  0.00  0.00     0.091 H 
ATOM     23  O1  non d ame     -32.811  17.563  28.694  0.00  0.00    -0.218 OA
ATOM     24  N1  non d ame     -32.360  16.489  29.301  0.00  0.00    -0.123 NA
BRANCH  21  25
ATOM     25  C3  non d ame     -33.352  18.418  26.385  0.00  0.00    -0.029 C 
ATOM     26  H2  non d ame     -32.583  18.558  25.626  0.00  0.00     0.036 H 
ATOM     27  H3  non d ame     -34.267  18.062  25.911  0.00  0.00     0.036 H 
ATOM     28  H4  non d ame     -33.547  19.367  26.884  0.00  0.00     0.036 H 
ENDBRANCH  21  25
ENDBRANCH  16  19
ENDBRANCH  13  15
BRANCH  13  29
ATOM     29  C8  non d ame     -30.911  11.885  30.946  0.00  0.00    -0.049 C 
ATOM     30  H7  non d ame     -30.073  12.549  30.739  0.00  0.00     0.030 H 
ATOM     31  H8  non d ame     -31.457  12.251  31.815  0.00  0.00     0.030 H 
ATOM     32  H9  non d ame     -30.537  10.880  31.148  0.00  0.00     0.030 H 
ENDBRANCH  13  29
ENDBRANCH  10  13
ENDBRANCH   7   9
BRANCH   7  33
ATOM     33  C11 non d ame     -36.329  10.137  28.443  0.00  0.00    -0.033 C 
ATOM     34  H12 non d ame     -36.656   9.296  27.832  0.00  0.00     0.042 H 
BRANCH  33  35
ATOM     35  C12 non d ame     -37.514  10.522  29.384  0.00  0.00    -0.071 C 
ATOM     36  H13 non d ame     -37.710  11.592  29.302  0.00  0.00     0.028 H 
ATOM     37  H14 non d ame     -38.404   9.966  29.093  0.00  0.00     0.028 H 
ATOM     38  H15 non d ame     -37.254  10.279  30.414  0.00  0.00     0.028 H 
ENDBRANCH  33  35
BRANCH  33  39
ATOM     39  C13 non d ame     -35.959  11.315  27.487  0.00  0.00    -0.071 C 
ATOM     40  H16 non d ame     -36.015  12.258  28.031  0.00  0.00     0.028 H 
ATOM     41  H17 non d ame     -34.946  11.172  27.108  0.00  0.00     0.028 H 
ATOM     42  H18 non d ame     -36.658  11.337  26.650  0.00  0.00     0.028 H 
ENDBRANCH  33  39
ENDBRANCH   7  33
ENDBRANCH   4   7
ENDBRANCH   1   3
BRANCH   1  43
ATOM     43  C15 non d ame     -32.789   6.738  26.000  0.00  0.00     0.240 C 
ATOM     44  O5  non d ame     -31.770   6.175  26.236  0.00  0.00    -0.271 OA
ATOM     45  N6  non d ame     -32.927   7.524  24.741  0.00  0.00    -0.355 N 
ATOM     46  H46 non d ame     -33.790   8.003  24.526  0.00  0.00     0.162 HD
BRANCH  45  47
ATOM     47  C20 non d ame     -31.789   7.604  23.799  0.00  0.00     0.013 C 
ATOM     48  H30 non d ame     -30.918   7.168  24.289  0.00  0.00     0.072 H 
BRANCH  47  49
ATOM     49  C21 non d ame     -31.522   9.053  23.460  0.00  0.00    -0.038 C 
ATOM     50  H31 non d ame     -30.502   9.250  23.792  0.00  0.00     0.036 H 
ATOM     51  H32 non d ame     -31.783   9.161  22.407  0.00  0.00     0.036 H 
BRANCH  49  52
ATOM     52  C22 non d ame     -32.431  10.028  24.238  0.00  0.00     0.018 C 
ATOM     53  H33 non d ame     -32.551  10.898  23.593  0.00  0.00     0.048 H 
ATOM     54  H34 non d ame     -33.303   9.445  24.535  0.00  0.00     0.048 H 
BRANCH  52  55
ATOM     55  C23 non d ame     -31.800  10.556  25.556  0.00  0.00     0.259 C 
ATOM     56  O7  non d ame     -32.037  10.025  26.593  0.00  0.00    -0.265 OA
BRANCH  55  57
ATOM     57  O8  non d ame     -30.945  11.692  25.514  0.00  0.00    -0.317 OA
BRANCH  57  58
ATOM     58  C29 non d ame     -31.602  12.902  25.126  0.00  0.00     0.052 C 
ATOM     59  H47 non d ame     -32.569  12.598  24.727  0.00  0.00     0.082 H 
ATOM     60  H48 non d ame     -31.551  13.557  25.995  0.00  0.00     0.082 H 
BRANCH  58  61
ATOM     61  C35 non d ame     -30.778  13.547  23.979  0.00  0.00    -0.034 A 
ATOM     62  C30 non d ame     -30.637  14.930  23.916  0.00  0.00    -0.075 A 
ATOM     63  C31 non d ame     -29.898  15.510  22.885  0.00  0.00    -0.082 A 
ATOM     64  H49 non d ame     -31.106  15.560  24.672  0.00  0.00     0.084 H 
ATOM     65  C32 non d ame     -29.299  14.701  21.915  0.00  0.00    -0.083 A 
ATOM     66  H50 non d ame     -29.787  16.594  22.840  0.00  0.00     0.083 H 
ATOM     67  C33 non d ame     -29.446  13.322  21.981  0.00  0.00    -0.082 A 
ATOM     68  H51 non d ame     -28.719  15.146  21.107  0.00  0.00     0.083 H 
ATOM     69  C34 non d ame     -30.183  12.739  23.009  0.00  0.00    -0.075 A 
ATOM     70  H52 non d ame     -28.980  12.694  21.220  0.00  0.00     0.083 H 
ATOM     71  H53 non d ame     -30.292  11.655  23.055  0.00  0.00     0.084 H 
ENDBRANCH  58  61
ENDBRANCH  57  58
ENDBRANCH  55  57
ENDBRANCH  52  55
ENDBRANCH  49  52
ENDBRANCH  47  49
BRANCH  47  72
ATOM     72  C24 non d ame     -32.120   6.833  22.523  0.00  0.00    -0.039 C 
ATOM     73  H35 non d ame     -31.731   7.443  21.707  0.00  0.00     0.036 H 
ATOM     74  H36 non d ame     -31.733   5.827  22.683  0.00  0.00     0.036 H 
BRANCH  72  75
ATOM     75  C25 non d ame     -33.701   6.702  22.303  0.00  0.00    -0.001 C 
ATOM     76  C26 non d ame     -34.160   5.132  22.462  0.00  0.00    -0.035 C 
ATOM     77  C27 non d ame     -34.895   4.778  21.380  0.00  0.00     0.085 C 
ATOM     78  H38 non d ame     -33.289   4.479  22.403  0.00  0.00     0.036 H 
ATOM     79  H39 non d ame     -34.862   5.029  23.291  0.00  0.00     0.036 H 
ATOM     80  N5  non d ame     -34.703   5.862  20.345  0.00  0.00    -0.049 N 
ATOM     81  H40 non d ame     -34.448   3.854  21.014  0.00  0.00     0.075 H 
ATOM     82  H41 non d ame     -35.931   4.787  21.716  0.00  0.00     0.075 H 
ATOM     83  C28 non d ame     -34.045   7.111  21.127  0.00  0.00     0.193 C 
ATOM     84  H42 non d ame     -34.030   5.507  19.682  0.00  0.00     0.280 HD
ATOM     85  H43 non d ame     -35.628   6.126  20.036  0.00  0.00     0.280 HD
ATOM     86  H44 non d ame     -34.649   7.980  21.389  0.00  0.00     0.129 H 
ATOM     87  H37 non d ame     -34.260   7.443  22.874  0.00  0.00     0.046 H 
BRANCH  83  88
ATOM     88  O6  non d ame     -32.935   7.625  20.389  0.00  0.00    -0.369 OA
ATOM     89  H45 non d ame     -32.710   8.500  20.716  0.00  0.00     0.212 HD
ENDBRANCH  83  88
ENDBRANCH  72  75
ENDBRANCH  47  72
ENDBRANCH  45  47
ENDBRANCH   1  43
BRANCH   1  90
ATOM     90  C16 non d ame     -35.168   5.989  26.320  0.00  0.00    -0.035 C 
ATOM     91  H21 non d ame     -34.799   5.657  25.350  0.00  0.00     0.037 H 
ATOM     92  H22 non d ame     -35.547   5.261  27.037  0.00  0.00     0.037 H 
BRANCH  90  93
ATOM     93  C17 non d ame     -36.342   6.977  26.030  0.00  0.00    -0.059 C 
ATOM     94  H23 non d ame     -36.039   7.963  26.383  0.00  0.00     0.038 H 
BRANCH  93  95
ATOM     95  C18 non d ame     -36.652   7.093  24.503  0.00  0.00    -0.073 C 
ATOM     96  H24 non d ame     -37.728   7.196  24.357  0.00  0.00     0.028 H 
ATOM     97  H25 non d ame     -36.147   7.968  24.095  0.00  0.00     0.028 H 
ATOM     98  H26 non d ame     -36.300   6.198  23.992  0.00  0.00     0.028 H 
ENDBRANCH  93  95
BRANCH  93  99
ATOM     99  C19 non d ame     -37.597   6.579  26.811  0.00  0.00    -0.073 C 
ATOM    100  H27 non d ame     -37.543   6.992  27.820  0.00  0.00     0.028 H 
ATOM    101  H28 non d ame     -38.480   6.971  26.306  0.00  0.00     0.028 H 
ATOM    102  H29 non d ame     -37.662   5.493  26.866  0.00  0.00     0.028 H 
ENDBRANCH  93  99
ENDBRANCH  90  93
ENDBRANCH   1  90
TORSDOF 26
ENDMDL
MODEL 5
REMARK VINA RESULT:      -7.0      2.336      5.113
REMARK  26 active torsions:
REMARK  status: ('A' for Active; 'I' for Inactive)
REMARK    1  A    between atoms: C2_2  and  C3_3 
REMARK    2  A    between atoms: C4_6  and  C5_7 
REMARK       I    between atoms: C5_7  and  N2_9 
REMARK    3  A    between atoms: N2_9  and  C6_10 
REMARK    4  A    between atoms: C6_10  and  C7_11 
REMARK    5  A    between atoms: C6_10  and  C8_13 
REMARK       I    between atoms: C7_11  and  N3_14 
REMARK    6  A    between atoms: N3_14  and  C9_15 
REMARK    7  A    between atoms: C9_15  and  C10_16 
REMARK    8  A    between atoms: C9_15  and  C11_18 
REMARK       I    between atoms: C10_16  and  N4_21 
REMARK    9  A    between atoms: C11_18  and  C12_19 
REMARK   10  A    between atoms: C11_18  and  C13_20 
REMARK   11  A    between atoms: N4_21  and  C14_22 
REMARK   12  A    between atoms: C14_22  and  C15_23 
REMARK   13  A    between atoms: C14_22  and  C16_25 
REMARK       I    between atoms: C15_23  and  N6_40 
REMARK   14  A    between atoms: C16_25  and  C17_26 
REMARK   15  A    between atoms: C17_26  and  C18_27 
REMARK   16  A    between atoms: C17_26  and  C19_28 
REMARK   17  A    between atoms: C20_29  and  C21_30 
REMARK   18  A    between atoms: C20_29  and  C24_33 
REMARK   19  A    between atoms: C20_29  and  N6_40 
REMARK   20  A    between atoms: C21_30  and  C22_31 
REMARK   21  A    between atoms: C22_31  and  C23_32 
REMARK   22  A    between atoms: C23_32  and  O8_43 
REMARK   23  A    between atoms: C24_33  and  C25_34 
REMARK   24  A    between atoms: C28_38  and  O6_39 
REMARK   25  A    between atoms: C29_42  and  O8_43 
REMARK   26  A    between atoms: C29_42  and  C35_49 
ROOT
ATOM      1  C14 non d ame     -32.038   8.987  24.277  0.00  0.00     0.089 C 
ATOM      2  H20 non d ame     -31.334   8.164  24.401  0.00  0.00     0.087 H 
ENDROOT
BRANCH   1   3
ATOM      3  N4  non d ame     -33.164   8.737  25.164  0.00  0.00    -0.346 N 
ATOM      4  C10 non d ame     -33.313   7.403  25.849  0.00  0.00     0.241 C 
ATOM      5  O4  non d ame     -32.514   6.543  25.670  0.00  0.00    -0.271 OA
ATOM      6  H19 non d ame     -33.835   9.480  25.301  0.00  0.00     0.163 HD
BRANCH   4   7
ATOM      7  C9  non d ame     -34.482   7.162  26.768  0.00  0.00     0.092 C 
ATOM      8  H11 non d ame     -34.179   6.484  27.565  0.00  0.00     0.088 H 
BRANCH   7   9
ATOM      9  N3  non d ame     -34.875   8.426  27.400  0.00  0.00    -0.346 N 
ATOM     10  C7  non d ame     -35.193   8.459  28.806  0.00  0.00     0.240 C 
ATOM     11  O3  non d ame     -35.139   7.480  29.444  0.00  0.00    -0.271 OA
ATOM     12  H10 non d ame     -34.928   9.278  26.862  0.00  0.00     0.163 HD
BRANCH  10  13
ATOM     13  C6  non d ame     -35.614   9.806  29.472  0.00  0.00     0.086 C 
ATOM     14  H6  non d ame     -35.673   9.738  30.558  0.00  0.00     0.086 H 
BRANCH  13  15
ATOM     15  N2  non d ame     -34.612  10.814  29.173  0.00  0.00    -0.343 N 
ATOM     16  C5  non d ame     -33.397  10.890  29.988  0.00  0.00     0.273 C 
ATOM     17  O2  non d ame     -33.238  10.137  30.885  0.00  0.00    -0.266 OA
ATOM     18  H5  non d ame     -34.758  11.456  28.406  0.00  0.00     0.163 HD
BRANCH  16  19
ATOM     19  C4  non d ame     -32.329  11.951  29.681  0.00  0.00     0.154 A 
ATOM     20  C1  non d ame     -32.362  13.338  30.030  0.00  0.00    -0.017 A 
ATOM     21  C2  non d ame     -31.155  13.869  29.524  0.00  0.00     0.077 A 
ATOM     22  H1  non d ame     -33.143  13.876  30.569  0.00  0.00     0.091 H 
ATOM     23  O1  non d ame     -30.511  12.894  28.954  0.00  0.00    -0.218 OA
ATOM     24  N1  non d ame     -31.176  11.764  29.033  0.00  0.00    -0.123 NA
BRANCH  21  25
ATOM     25  C3  non d ame     -30.694  15.316  29.628  0.00  0.00    -0.029 C 
ATOM     26  H2  non d ame     -30.837  15.671  30.648  0.00  0.00     0.036 H 
ATOM     27  H3  non d ame     -29.637  15.381  29.368  0.00  0.00     0.036 H 
ATOM     28  H4  non d ame     -31.274  15.934  28.943  0.00  0.00     0.036 H 
ENDBRANCH  21  25
ENDBRANCH  16  19
ENDBRANCH  13  15
BRANCH  13  29
ATOM     29  C8  non d ame     -36.956  10.236  28.938  0.00  0.00    -0.049 C 
ATOM     30  H7  non d ame     -36.837  11.138  28.339  0.00  0.00     0.030 H 
ATOM     31  H8  non d ame     -37.373   9.442  28.319  0.00  0.00     0.030 H 
ATOM     32  H9  non d ame     -37.631  10.440  29.771  0.00  0.00     0.030 H 
ENDBRANCH  13  29
ENDBRANCH  10  13
ENDBRANCH   7   9
BRANCH   7  33
ATOM     33  C11 non d ame     -35.680   6.602  25.946  0.00  0.00    -0.033 C 
ATOM     34  H12 non d ame     -35.277   6.170  25.031  0.00  0.00     0.042 H 
BRANCH  33  35
ATOM     35  C12 non d ame     -36.416   5.463  26.719  0.00  0.00    -0.071 C 
ATOM     36  H13 non d ame     -35.962   5.340  27.703  0.00  0.00     0.028 H 
ATOM     37  H14 non d ame     -37.468   5.722  26.833  0.00  0.00     0.028 H 
ATOM     38  H15 non d ame     -36.328   4.531  26.161  0.00  0.00     0.028 H 
ENDBRANCH  33  35
BRANCH  33  39
ATOM     39  C13 non d ame     -36.667   7.745  25.547  0.00  0.00    -0.071 C 
ATOM     40  H16 non d ame     -36.295   8.253  24.657  0.00  0.00     0.028 H 
ATOM     41  H17 non d ame     -37.651   7.321  25.339  0.00  0.00     0.028 H 
ATOM     42  H18 non d ame     -36.747   8.460  26.366  0.00  0.00     0.028 H 
ENDBRANCH  33  39
ENDBRANCH   7  33
ENDBRANCH   4   7
ENDBRANCH   1   3
BRANCH   1  43
ATOM     43  C15 non d ame     -31.409  10.360  24.651  0.00  0.00     0.240 C 
ATOM     44  O5  non d ame     -30.992  10.540  25.750  0.00  0.00    -0.271 OA
ATOM     45  N6  non d ame     -31.316  11.448  23.636  0.00  0.00    -0.355 N 
ATOM     46  H46 non d ame     -31.662  11.306  22.698  0.00  0.00     0.162 HD
BRANCH  45  47
ATOM     47  C20 non d ame     -30.714  12.747  24.008  0.00  0.00     0.013 C 
ATOM     48  H30 non d ame     -30.058  12.579  24.863  0.00  0.00     0.072 H 
BRANCH  47  49
ATOM     49  C21 non d ame     -31.810  13.719  24.379  0.00  0.00    -0.038 C 
ATOM     50  H31 non d ame     -31.454  14.700  24.062  0.00  0.00     0.036 H 
ATOM     51  H32 non d ame     -32.725  13.307  23.951  0.00  0.00     0.036 H 
BRANCH  49  52
ATOM     52  C22 non d ame     -32.042  13.808  25.903  0.00  0.00     0.018 C 
ATOM     53  H33 non d ame     -31.638  12.886  26.317  0.00  0.00     0.048 H 
ATOM     54  H34 non d ame     -31.630  14.770  26.208  0.00  0.00     0.048 H 
BRANCH  52  55
ATOM     55  C23 non d ame     -33.543  13.838  26.307  0.00  0.00     0.259 C 
ATOM     56  O7  non d ame     -34.024  12.931  26.906  0.00  0.00    -0.265 OA
BRANCH  55  57
ATOM     57  O8  non d ame     -34.341  14.957  25.941  0.00  0.00    -0.317 OA
BRANCH  57  58
ATOM     58  C29 non d ame     -34.750  15.768  27.046  0.00  0.00     0.052 C 
ATOM     59  H47 non d ame     -35.826  15.896  26.935  0.00  0.00     0.082 H 
ATOM     60  H48 non d ame     -34.347  15.282  27.934  0.00  0.00     0.082 H 
BRANCH  58  61
ATOM     61  C35 non d ame     -34.072  17.156  26.897  0.00  0.00    -0.034 A 
ATOM     62  C30 non d ame     -33.120  17.569  27.825  0.00  0.00    -0.075 A 
ATOM     63  C31 non d ame     -32.511  18.816  27.692  0.00  0.00    -0.082 A 
ATOM     64  H49 non d ame     -32.852  16.917  28.656  0.00  0.00     0.084 H 
ATOM     65  C32 non d ame     -32.858  19.653  26.628  0.00  0.00    -0.083 A 
ATOM     66  H50 non d ame     -31.764  19.136  28.420  0.00  0.00     0.083 H 
ATOM     67  C33 non d ame     -33.811  19.238  25.708  0.00  0.00    -0.082 A 
ATOM     68  H51 non d ame     -32.386  20.629  26.516  0.00  0.00     0.083 H 
ATOM     69  C34 non d ame     -34.421  17.992  25.835  0.00  0.00    -0.075 A 
ATOM     70  H52 non d ame     -34.082  19.894  24.879  0.00  0.00     0.083 H 
ATOM     71  H53 non d ame     -35.167  17.672  25.107  0.00  0.00     0.084 H 
ENDBRANCH  58  61
ENDBRANCH  57  58
ENDBRANCH  55  57
ENDBRANCH  52  55
ENDBRANCH  49  52
ENDBRANCH  47  49
BRANCH  47  72
ATOM     72  C24 non d ame     -29.916  13.302  22.829  0.00  0.00    -0.039 C 
ATOM     73  H35 non d ame     -28.874  13.285  23.152  0.00  0.00     0.036 H 
ATOM     74  H36 non d ame     -30.228  12.714  21.966  0.00  0.00     0.036 H 
BRANCH  72  75
ATOM     75  C25 non d ame     -30.293  14.828  22.524  0.00  0.00    -0.001 C 
ATOM     76  C26 non d ame     -30.983  14.948  21.037  0.00  0.00    -0.035 C 
ATOM     77  C27 non d ame     -30.342  15.913  20.334  0.00  0.00     0.085 C 
ATOM     78  H38 non d ame     -30.790  14.043  20.461  0.00  0.00     0.036 H 
ATOM     79  H39 non d ame     -32.000  15.331  21.125  0.00  0.00     0.036 H 
ATOM     80  N5  non d ame     -29.071  16.235  21.085  0.00  0.00    -0.049 N 
ATOM     81  H40 non d ame     -30.085  15.455  19.379  0.00  0.00     0.075 H 
ATOM     82  H41 non d ame     -31.000  16.780  20.363  0.00  0.00     0.075 H 
ATOM     83  C28 non d ame     -29.245  15.582  22.552  0.00  0.00     0.193 C 
ATOM     84  H42 non d ame     -28.326  15.752  20.605  0.00  0.00     0.280 HD
ATOM     85  H43 non d ame     -29.044  17.240  21.181  0.00  0.00     0.280 HD
ATOM     86  H44 non d ame     -29.476  16.211  23.413  0.00  0.00     0.129 H 
ATOM     87  H37 non d ame     -30.821  15.297  23.355  0.00  0.00     0.046 H 
BRANCH  83  88
ATOM     88  O6  non d ame     -28.068  14.858  22.912  0.00  0.00    -0.369 OA
ATOM     89  H45 non d ame     -28.222  13.917  22.793  0.00  0.00     0.212 HD
ENDBRANCH  83  88
ENDBRANCH  72  75
ENDBRANCH  47  72
ENDBRANCH  45  47
ENDBRANCH   1  43
BRANCH   1  90
ATOM     90  C16 non d ame     -32.536   9.027  22.841  0.00  0.00    -0.035 C 
ATOM     91  H21 non d ame     -33.530   8.584  22.868  0.00  0.00     0.037 H 
ATOM     92  H22 non d ame     -32.408  10.062  22.521  0.00  0.00     0.037 H 
BRANCH  90  93
ATOM     93  C17 non d ame     -31.690   8.153  21.861  0.00  0.00    -0.059 C 
ATOM     94  H23 non d ame     -31.110   8.829  21.232  0.00  0.00     0.038 H 
BRANCH  93  95
ATOM     95  C18 non d ame     -30.685   7.226  22.616  0.00  0.00    -0.073 C 
ATOM     96  H24 non d ame     -30.987   6.186  22.494  0.00  0.00     0.028 H 
ATOM     97  H25 non d ame     -29.685   7.363  22.204  0.00  0.00     0.028 H 
ATOM     98  H26 non d ame     -30.679   7.482  23.675  0.00  0.00     0.028 H 
ENDBRANCH  93  95
BRANCH  93  99
ATOM     99  C19 non d ame     -32.596   7.335  20.937  0.00  0.00    -0.073 C 
ATOM    100  H27 non d ame     -32.004   6.928  20.116  0.00  0.00     0.028 H 
ATOM    101  H28 non d ame     -33.047   6.517  21.499  0.00  0.00     0.028 H 
ATOM    102  H29 non d ame     -33.380   7.977  20.536  0.00  0.00     0.028 H 
ENDBRANCH  93  99
ENDBRANCH  90  93
ENDBRANCH   1  90
TORSDOF 26
ENDMDL
MODEL 6
REMARK VINA RESULT:      -6.9      2.663      9.174
REMARK  26 active torsions:
REMARK  status: ('A' for Active; 'I' for Inactive)
REMARK    1  A    between atoms: C2_2  and  C3_3 
REMARK    2  A    between atoms: C4_6  and  C5_7 
REMARK       I    between atoms: C5_7  and  N2_9 
REMARK    3  A    between atoms: N2_9  and  C6_10 
REMARK    4  A    between atoms: C6_10  and  C7_11 
REMARK    5  A    between atoms: C6_10  and  C8_13 
REMARK       I    between atoms: C7_11  and  N3_14 
REMARK    6  A    between atoms: N3_14  and  C9_15 
REMARK    7  A    between atoms: C9_15  and  C10_16 
REMARK    8  A    between atoms: C9_15  and  C11_18 
REMARK       I    between atoms: C10_16  and  N4_21 
REMARK    9  A    between atoms: C11_18  and  C12_19 
REMARK   10  A    between atoms: C11_18  and  C13_20 
REMARK   11  A    between atoms: N4_21  and  C14_22 
REMARK   12  A    between atoms: C14_22  and  C15_23 
REMARK   13  A    between atoms: C14_22  and  C16_25 
REMARK       I    between atoms: C15_23  and  N6_40 
REMARK   14  A    between atoms: C16_25  and  C17_26 
REMARK   15  A    between atoms: C17_26  and  C18_27 
REMARK   16  A    between atoms: C17_26  and  C19_28 
REMARK   17  A    between atoms: C20_29  and  C21_30 
REMARK   18  A    between atoms: C20_29  and  C24_33 
REMARK   19  A    between atoms: C20_29  and  N6_40 
REMARK   20  A    between atoms: C21_30  and  C22_31 
REMARK   21  A    between atoms: C22_31  and  C23_32 
REMARK   22  A    between atoms: C23_32  and  O8_43 
REMARK   23  A    between atoms: C24_33  and  C25_34 
REMARK   24  A    between atoms: C28_38  and  O6_39 
REMARK   25  A    between atoms: C29_42  and  O8_43 
REMARK   26  A    between atoms: C29_42  and  C35_49 
ROOT
ATOM      1  C14 non d ame     -33.771   9.438  24.560  0.00  0.00     0.089 C 
ATOM      2  H20 non d ame     -33.905   9.213  23.502  0.00  0.00     0.087 H 
ENDROOT
BRANCH   1   3
ATOM      3  N4  non d ame     -34.638  10.562  24.882  0.00  0.00    -0.346 N 
ATOM      4  C10 non d ame     -35.988  10.695  24.225  0.00  0.00     0.241 C 
ATOM      5  O4  non d ame     -36.356   9.887  23.438  0.00  0.00    -0.271 OA
ATOM      6  H19 non d ame     -34.306  11.240  25.553  0.00  0.00     0.163 HD
BRANCH   4   7
ATOM      7  C9  non d ame     -36.875  11.862  24.574  0.00  0.00     0.092 C 
ATOM      8  H11 non d ame     -37.296  11.708  25.567  0.00  0.00     0.088 H 
BRANCH   7   9
ATOM      9  N3  non d ame     -36.072  13.087  24.628  0.00  0.00    -0.346 N 
ATOM     10  C7  non d ame     -35.943  13.810  25.870  0.00  0.00     0.240 C 
ATOM     11  O3  non d ame     -36.479  13.420  26.834  0.00  0.00    -0.271 OA
ATOM     12  H10 non d ame     -35.605  13.436  23.804  0.00  0.00     0.163 HD
BRANCH  10  13
ATOM     13  C6  non d ame     -35.090  15.115  25.921  0.00  0.00     0.086 C 
ATOM     14  H6  non d ame     -34.551  15.229  26.861  0.00  0.00     0.086 H 
BRANCH  13  15
ATOM     15  N2  non d ame     -34.087  15.065  24.870  0.00  0.00    -0.343 N 
ATOM     16  C5  non d ame     -32.760  15.634  25.112  0.00  0.00     0.273 C 
ATOM     17  O2  non d ame     -32.509  16.133  26.153  0.00  0.00    -0.266 OA
ATOM     18  H5  non d ame     -34.311  14.639  23.982  0.00  0.00     0.163 HD
BRANCH  16  19
ATOM     19  C4  non d ame     -31.690  15.587  24.009  0.00  0.00     0.154 A 
ATOM     20  C1  non d ame     -31.891  15.313  22.620  0.00  0.00    -0.017 A 
ATOM     21  C2  non d ame     -30.604  15.389  22.044  0.00  0.00     0.077 A 
ATOM     22  H1  non d ame     -32.828  15.093  22.108  0.00  0.00     0.091 H 
ATOM     23  O1  non d ame     -29.768  15.675  22.999  0.00  0.00    -0.218 OA
ATOM     24  N1  non d ame     -30.379  15.795  24.155  0.00  0.00    -0.123 NA
BRANCH  21  25
ATOM     25  C3  non d ame     -30.258  15.177  20.576  0.00  0.00    -0.029 C 
ATOM     26  H2  non d ame     -30.001  16.133  20.121  0.00  0.00     0.036 H 
ATOM     27  H3  non d ame     -29.409  14.498  20.497  0.00  0.00     0.036 H 
ATOM     28  H4  non d ame     -31.115  14.747  20.059  0.00  0.00     0.036 H 
ENDBRANCH  21  25
ENDBRANCH  16  19
ENDBRANCH  13  15
BRANCH  13  29
ATOM     29  C8  non d ame     -35.985  16.312  25.725  0.00  0.00    -0.049 C 
ATOM     30  H7  non d ame     -36.595  16.168  24.834  0.00  0.00     0.030 H 
ATOM     31  H8  non d ame     -36.633  16.427  26.593  0.00  0.00     0.030 H 
ATOM     32  H9  non d ame     -35.373  17.207  25.606  0.00  0.00     0.030 H 
ENDBRANCH  13  29
ENDBRANCH  10  13
ENDBRANCH   7   9
BRANCH   7  33
ATOM     33  C11 non d ame     -37.979  12.017  23.487  0.00  0.00    -0.033 C 
ATOM     34  H12 non d ame     -37.819  11.237  22.743  0.00  0.00     0.042 H 
BRANCH  33  35
ATOM     35  C12 non d ame     -39.403  11.806  24.090  0.00  0.00    -0.071 C 
ATOM     36  H13 non d ame     -40.099  12.510  23.632  0.00  0.00     0.028 H 
ATOM     37  H14 non d ame     -39.734  10.787  23.892  0.00  0.00     0.028 H 
ATOM     38  H15 non d ame     -39.371  11.977  25.166  0.00  0.00     0.028 H 
ENDBRANCH  33  35
BRANCH  33  39
ATOM     39  C13 non d ame     -37.866  13.399  22.768  0.00  0.00    -0.071 C 
ATOM     40  H16 non d ame     -37.465  14.138  23.463  0.00  0.00     0.028 H 
ATOM     41  H17 non d ame     -37.202  13.310  21.908  0.00  0.00     0.028 H 
ATOM     42  H18 non d ame     -38.853  13.716  22.432  0.00  0.00     0.028 H 
ENDBRANCH  33  39
ENDBRANCH   7  33
ENDBRANCH   4   7
ENDBRANCH   1   3
BRANCH   1  43
ATOM     43  C15 non d ame     -34.159   8.236  25.469  0.00  0.00     0.240 C 
ATOM     44  O5  non d ame     -33.851   7.133  25.154  0.00  0.00    -0.271 OA
ATOM     45  N6  non d ame     -34.907   8.462  26.739  0.00  0.00    -0.355 N 
ATOM     46  H46 non d ame     -35.171   9.396  27.020  0.00  0.00     0.162 HD
BRANCH  45  47
ATOM     47  C20 non d ame     -35.267   7.309  27.592  0.00  0.00     0.013 C 
ATOM     48  H30 non d ame     -35.544   6.483  26.938  0.00  0.00     0.072 H 
BRANCH  47  49
ATOM     49  C21 non d ame     -36.436   7.686  28.474  0.00  0.00    -0.038 C 
ATOM     50  H31 non d ame     -36.826   8.618  28.064  0.00  0.00     0.036 H 
ATOM     51  H32 non d ame     -37.071   6.800  28.515  0.00  0.00     0.036 H 
BRANCH  49  52
ATOM     52  C22 non d ame     -36.016   7.990  29.929  0.00  0.00     0.018 C 
ATOM     53  H33 non d ame     -36.855   7.679  30.549  0.00  0.00     0.048 H 
ATOM     54  H34 non d ame     -35.040   7.521  30.057  0.00  0.00     0.048 H 
BRANCH  52  55
ATOM     55  C23 non d ame     -35.806   9.502  30.217  0.00  0.00     0.259 C 
ATOM     56  O7  non d ame     -36.443  10.049  31.059  0.00  0.00    -0.265 OA
BRANCH  55  57
ATOM     57  O8  non d ame     -34.854  10.232  29.453  0.00  0.00    -0.317 OA
BRANCH  57  58
ATOM     58  C29 non d ame     -33.649  10.538  30.162  0.00  0.00     0.052 C 
ATOM     59  H47 non d ame     -33.959  11.105  31.039  0.00  0.00     0.082 H 
ATOM     60  H48 non d ame     -33.128   9.589  30.282  0.00  0.00     0.082 H 
BRANCH  58  61
ATOM     61  C35 non d ame     -32.785  11.460  29.260  0.00  0.00    -0.034 A 
ATOM     62  C30 non d ame     -33.215  11.778  27.975  0.00  0.00    -0.075 A 
ATOM     63  C31 non d ame     -32.438  12.606  27.165  0.00  0.00    -0.082 A 
ATOM     64  H49 non d ame     -34.158  11.379  27.603  0.00  0.00     0.084 H 
ATOM     65  C32 non d ame     -31.228  13.114  27.643  0.00  0.00    -0.083 A 
ATOM     66  H50 non d ame     -32.779  12.855  26.159  0.00  0.00     0.083 H 
ATOM     67  C33 non d ame     -30.802  12.790  28.924  0.00  0.00    -0.082 A 
ATOM     68  H51 non d ame     -30.615  13.763  27.016  0.00  0.00     0.083 H 
ATOM     69  C34 non d ame     -31.575  11.965  29.738  0.00  0.00    -0.075 A 
ATOM     70  H52 non d ame     -29.855  13.187  29.294  0.00  0.00     0.083 H 
ATOM     71  H53 non d ame     -31.235  11.717  30.743  0.00  0.00     0.084 H 
ENDBRANCH  58  61
ENDBRANCH  57  58
ENDBRANCH  55  57
ENDBRANCH  52  55
ENDBRANCH  49  52
ENDBRANCH  47  49
BRANCH  47  72
ATOM     72  C24 non d ame     -34.075   6.920  28.463  0.00  0.00    -0.039 C 
ATOM     73  H35 non d ame     -33.226   7.469  28.054  0.00  0.00     0.036 H 
ATOM     74  H36 non d ame     -34.395   7.097  29.490  0.00  0.00     0.036 H 
BRANCH  72  75
ATOM     75  C25 non d ame     -33.734   5.360  28.338  0.00  0.00    -0.001 C 
ATOM     76  C26 non d ame     -33.847   4.642  29.812  0.00  0.00    -0.035 C 
ATOM     77  C27 non d ame     -32.710   3.945  30.048  0.00  0.00     0.085 C 
ATOM     78  H38 non d ame     -33.850   5.397  30.597  0.00  0.00     0.036 H 
ATOM     79  H39 non d ame     -34.619   3.871  29.795  0.00  0.00     0.036 H 
ATOM     80  N5  non d ame     -31.700   4.388  29.016  0.00  0.00    -0.049 N 
ATOM     81  H40 non d ame     -32.373   4.262  31.035  0.00  0.00     0.075 H 
ATOM     82  H41 non d ame     -32.965   2.901  29.869  0.00  0.00     0.075 H 
ATOM     83  C28 non d ame     -32.538   5.178  27.885  0.00  0.00     0.193 C 
ATOM     84  H42 non d ame     -31.087   5.043  29.478  0.00  0.00     0.280 HD
ATOM     85  H43 non d ame     -31.322   3.545  28.607  0.00  0.00     0.280 HD
ATOM     86  H44 non d ame     -32.759   4.704  26.928  0.00  0.00     0.129 H 
ATOM     87  H37 non d ame     -34.266   4.886  27.513  0.00  0.00     0.046 H 
BRANCH  83  88
ATOM     88  O6  non d ame     -31.891   6.410  27.562  0.00  0.00    -0.369 OA
ATOM     89  H45 non d ame     -31.427   6.319  26.726  0.00  0.00     0.212 HD
ENDBRANCH  83  88
ENDBRANCH  72  75
ENDBRANCH  47  72
ENDBRANCH  45  47
ENDBRANCH   1  43
BRANCH   1  90
ATOM     90  C16 non d ame     -32.327   9.833  24.823  0.00  0.00    -0.035 C 
ATOM     91  H21 non d ame     -32.378  10.645  25.547  0.00  0.00     0.037 H 
ATOM     92  H22 non d ame     -31.817   8.904  25.080  0.00  0.00     0.037 H 
BRANCH  90  93
ATOM     93  C17 non d ame     -31.596  10.406  23.568  0.00  0.00    -0.059 C 
ATOM     94  H23 non d ame     -32.348  10.582  22.799  0.00  0.00     0.038 H 
BRANCH  93  95
ATOM     95  C18 non d ame     -30.893  11.769  23.865  0.00  0.00    -0.073 C 
ATOM     96  H24 non d ame     -31.333  12.549  23.244  0.00  0.00     0.028 H 
ATOM     97  H25 non d ame     -31.027  12.024  24.916  0.00  0.00     0.028 H 
ATOM     98  H26 non d ame     -29.829  11.685  23.644  0.00  0.00     0.028 H 
ENDBRANCH  93  95
BRANCH  93  99
ATOM     99  C19 non d ame     -30.598   9.390  23.005  0.00  0.00    -0.073 C 
ATOM    100  H27 non d ame     -30.600   9.445  21.915  0.00  0.00     0.028 H 
ATOM    101  H28 non d ame     -29.599   9.617  23.377  0.00  0.00     0.028 H 
ATOM    102  H29 non d ame     -30.884   8.387  23.319  0.00  0.00     0.028 H 
ENDBRANCH  93  99
ENDBRANCH  90  93
ENDBRANCH   1  90
TORSDOF 26
ENDMDL
MODEL 7
REMARK VINA RESULT:      -6.9      2.291      4.868
REMARK  26 active torsions:
REMARK  status: ('A' for Active; 'I' for Inactive)
REMARK    1  A    between atoms: C2_2  and  C3_3 
REMARK    2  A    between atoms: C4_6  and  C5_7 
REMARK       I    between atoms: C5_7  and  N2_9 
REMARK    3  A    between atoms: N2_9  and  C6_10 
REMARK    4  A    between atoms: C6_10  and  C7_11 
REMARK    5  A    between atoms: C6_10  and  C8_13 
REMARK       I    between atoms: C7_11  and  N3_14 
REMARK    6  A    between atoms: N3_14  and  C9_15 
REMARK    7  A    between atoms: C9_15  and  C10_16 
REMARK    8  A    between atoms: C9_15  and  C11_18 
REMARK       I    between atoms: C10_16  and  N4_21 
REMARK    9  A    between atoms: C11_18  and  C12_19 
REMARK   10  A    between atoms: C11_18  and  C13_20 
REMARK   11  A    between atoms: N4_21  and  C14_22 
REMARK   12  A    between atoms: C14_22  and  C15_23 
REMARK   13  A    between atoms: C14_22  and  C16_25 
REMARK       I    between atoms: C15_23  and  N6_40 
REMARK   14  A    between atoms: C16_25  and  C17_26 
REMARK   15  A    between atoms: C17_26  and  C18_27 
REMARK   16  A    between atoms: C17_26  and  C19_28 
REMARK   17  A    between atoms: C20_29  and  C21_30 
REMARK   18  A    between atoms: C20_29  and  C24_33 
REMARK   19  A    between atoms: C20_29  and  N6_40 
REMARK   20  A    between atoms: C21_30  and  C22_31 
REMARK   21  A    between atoms: C22_31  and  C23_32 
REMARK   22  A    between atoms: C23_32  and  O8_43 
REMARK   23  A    between atoms: C24_33  and  C25_34 
REMARK   24  A    between atoms: C28_38  and  O6_39 
REMARK   25  A    between atoms: C29_42  and  O8_43 
REMARK   26  A    between atoms: C29_42  and  C35_49 
ROOT
ATOM      1  C14 non d ame     -32.347   8.781  25.137  0.00  0.00     0.089 C 
ATOM      2  H20 non d ame     -31.277   8.596  25.046  0.00  0.00     0.087 H 
ENDROOT
BRANCH   1   3
ATOM      3  N4  non d ame     -33.008   7.489  25.249  0.00  0.00    -0.346 N 
ATOM      4  C10 non d ame     -32.275   6.224  24.880  0.00  0.00     0.241 C 
ATOM      5  O4  non d ame     -31.154   6.271  24.493  0.00  0.00    -0.271 OA
ATOM      6  H19 non d ame     -33.963   7.471  25.577  0.00  0.00     0.163 HD
BRANCH   4   7
ATOM      7  C9  non d ame     -32.972   4.895  25.006  0.00  0.00     0.092 C 
ATOM      8  H11 non d ame     -32.307   4.186  25.497  0.00  0.00     0.088 H 
BRANCH   7   9
ATOM      9  N3  non d ame     -34.156   5.042  25.858  0.00  0.00    -0.346 N 
ATOM     10  C7  non d ame     -34.121   4.582  27.224  0.00  0.00     0.240 C 
ATOM     11  O3  non d ame     -33.150   4.090  27.654  0.00  0.00    -0.271 OA
ATOM     12  H10 non d ame     -35.001   5.463  25.501  0.00  0.00     0.163 HD
BRANCH  10  13
ATOM     13  C6  non d ame     -35.385   4.738  28.126  0.00  0.00     0.086 C 
ATOM     14  H6  non d ame     -35.341   4.122  29.024  0.00  0.00     0.086 H 
BRANCH  13  15
ATOM     15  N2  non d ame     -35.477   6.118  28.573  0.00  0.00    -0.343 N 
ATOM     16  C5  non d ame     -35.067   6.464  29.935  0.00  0.00     0.273 C 
ATOM     17  O2  non d ame     -34.667   5.626  30.666  0.00  0.00    -0.266 OA
ATOM     18  H5  non d ame     -35.824   6.828  27.944  0.00  0.00     0.163 HD
BRANCH  16  19
ATOM     19  C4  non d ame     -35.159   7.920  30.421  0.00  0.00     0.154 A 
ATOM     20  C1  non d ame     -35.074   8.388  31.770  0.00  0.00    -0.017 A 
ATOM     21  C2  non d ame     -35.217   9.791  31.677  0.00  0.00     0.077 A 
ATOM     22  H1  non d ame     -34.931   7.801  32.677  0.00  0.00     0.091 H 
ATOM     23  O1  non d ame     -35.365  10.083  30.418  0.00  0.00    -0.218 OA
ATOM     24  N1  non d ame     -35.335   9.007  29.665  0.00  0.00    -0.123 NA
BRANCH  21  25
ATOM     25  C3  non d ame     -35.200  10.778  32.836  0.00  0.00    -0.029 C 
ATOM     26  H2  non d ame     -35.993  11.513  32.700  0.00  0.00     0.036 H 
ATOM     27  H3  non d ame     -35.361  10.242  33.772  0.00  0.00     0.036 H 
ATOM     28  H4  non d ame     -34.236  11.285  32.869  0.00  0.00     0.036 H 
ENDBRANCH  21  25
ENDBRANCH  16  19
ENDBRANCH  13  15
BRANCH  13  29
ATOM     29  C8  non d ame     -36.616   4.365  27.340  0.00  0.00    -0.049 C 
ATOM     30  H7  non d ame     -37.068   5.265  26.925  0.00  0.00     0.030 H 
ATOM     31  H8  non d ame     -36.340   3.691  26.530  0.00  0.00     0.030 H 
ATOM     32  H9  non d ame     -37.331   3.870  27.999  0.00  0.00     0.030 H 
ENDBRANCH  13  29
ENDBRANCH  10  13
ENDBRANCH   7   9
BRANCH   7  33
ATOM     33  C11 non d ame     -33.411   4.405  23.594  0.00  0.00    -0.033 C 
ATOM     34  H12 non d ame     -32.564   4.537  22.922  0.00  0.00     0.042 H 
BRANCH  33  35
ATOM     35  C12 non d ame     -33.768   2.886  23.607  0.00  0.00    -0.071 C 
ATOM     36  H13 non d ame     -33.781   2.524  24.635  0.00  0.00     0.028 H 
ATOM     37  H14 non d ame     -34.749   2.738  23.157  0.00  0.00     0.028 H 
ATOM     38  H15 non d ame     -33.020   2.332  23.038  0.00  0.00     0.028 H 
ENDBRANCH  33  35
BRANCH  33  39
ATOM     39  C13 non d ame     -34.599   5.261  23.049  0.00  0.00    -0.071 C 
ATOM     40  H16 non d ame     -34.679   5.127  21.971  0.00  0.00     0.028 H 
ATOM     41  H17 non d ame     -35.527   4.942  23.526  0.00  0.00     0.028 H 
ATOM     42  H18 non d ame     -34.421   6.313  23.272  0.00  0.00     0.028 H 
ENDBRANCH  33  39
ENDBRANCH   7  33
ENDBRANCH   4   7
ENDBRANCH   1   3
BRANCH   1  43
ATOM     43  C15 non d ame     -32.691   9.623  26.400  0.00  0.00     0.240 C 
ATOM     44  O5  non d ame     -32.675   9.113  27.473  0.00  0.00    -0.271 OA
ATOM     45  N6  non d ame     -33.029  11.069  26.272  0.00  0.00    -0.355 N 
ATOM     46  H46 non d ame     -33.041  11.515  25.365  0.00  0.00     0.162 HD
BRANCH  45  47
ATOM     47  C20 non d ame     -33.353  11.856  27.482  0.00  0.00     0.013 C 
ATOM     48  H30 non d ame     -33.597  11.156  28.280  0.00  0.00     0.072 H 
BRANCH  47  49
ATOM     49  C21 non d ame     -34.539  12.749  27.195  0.00  0.00    -0.038 C 
ATOM     50  H31 non d ame     -35.418  12.114  27.306  0.00  0.00     0.036 H 
ATOM     51  H32 non d ame     -34.411  13.621  27.837  0.00  0.00     0.036 H 
BRANCH  49  52
ATOM     52  C22 non d ame     -34.557  13.274  25.743  0.00  0.00     0.018 C 
ATOM     53  H33 non d ame     -33.710  12.801  25.248  0.00  0.00     0.048 H 
ATOM     54  H34 non d ame     -35.570  13.098  25.379  0.00  0.00     0.048 H 
BRANCH  52  55
ATOM     55  C23 non d ame     -34.321  14.805  25.628  0.00  0.00     0.259 C 
ATOM     56  O7  non d ame     -35.003  15.567  26.234  0.00  0.00    -0.265 OA
BRANCH  55  57
ATOM     57  O8  non d ame     -33.288  15.289  24.778  0.00  0.00    -0.317 OA
BRANCH  57  58
ATOM     58  C29 non d ame     -32.040  14.608  24.931  0.00  0.00     0.052 C 
ATOM     59  H47 non d ame     -31.487  15.171  25.682  0.00  0.00     0.082 H 
ATOM     60  H48 non d ame     -32.293  13.563  25.110  0.00  0.00     0.082 H 
BRANCH  58  61
ATOM     61  C35 non d ame     -31.275  14.702  23.584  0.00  0.00    -0.034 A 
ATOM     62  C30 non d ame     -31.434  15.819  22.770  0.00  0.00    -0.075 A 
ATOM     63  C31 non d ame     -30.748  15.904  21.559  0.00  0.00    -0.082 A 
ATOM     64  H49 non d ame     -32.098  16.627  23.078  0.00  0.00     0.084 H 
ATOM     65  C32 non d ame     -29.900  14.866  21.163  0.00  0.00    -0.083 A 
ATOM     66  H50 non d ame     -30.873  16.782  20.924  0.00  0.00     0.083 H 
ATOM     67  C33 non d ame     -29.747  13.752  21.978  0.00  0.00    -0.082 A 
ATOM     68  H51 non d ame     -29.358  14.925  20.219  0.00  0.00     0.083 H 
ATOM     69  C34 non d ame     -30.430  13.664  23.189  0.00  0.00    -0.075 A 
ATOM     70  H52 non d ame     -29.086  12.942  21.665  0.00  0.00     0.083 H 
ATOM     71  H53 non d ame     -30.303  12.787  23.824  0.00  0.00     0.084 H 
ENDBRANCH  58  61
ENDBRANCH  57  58
ENDBRANCH  55  57
ENDBRANCH  52  55
ENDBRANCH  49  52
ENDBRANCH  47  49
BRANCH  47  72
ATOM     72  C24 non d ame     -32.152  12.713  27.876  0.00  0.00    -0.039 C 
ATOM     73  H35 non d ame     -31.352  12.005  28.099  0.00  0.00     0.036 H 
ATOM     74  H36 non d ame     -32.031  13.433  27.067  0.00  0.00     0.036 H 
BRANCH  72  75
ATOM     75  C25 non d ame     -32.432  13.547  29.214  0.00  0.00    -0.001 C 
ATOM     76  C26 non d ame     -32.563  15.147  28.860  0.00  0.00    -0.035 C 
ATOM     77  C27 non d ame     -31.739  15.844  29.678  0.00  0.00     0.085 C 
ATOM     78  H38 non d ame     -32.161  15.344  27.866  0.00  0.00     0.036 H 
ATOM     79  H39 non d ame     -33.555  15.510  29.128  0.00  0.00     0.036 H 
ATOM     80  N5  non d ame     -30.817  14.843  30.333  0.00  0.00    -0.049 N 
ATOM     81  H40 non d ame     -31.155  16.490  29.021  0.00  0.00     0.075 H 
ATOM     82  H41 non d ame     -32.385  16.282  30.438  0.00  0.00     0.075 H 
ATOM     83  C28 non d ame     -31.477  13.394  30.069  0.00  0.00     0.193 C 
ATOM     84  H42 non d ame     -29.941  14.893  29.835  0.00  0.00     0.280 HD
ATOM     85  H43 non d ame     -30.847  15.035  31.324  0.00  0.00     0.280 HD
ATOM     86  H44 non d ame     -32.007  12.874  30.868  0.00  0.00     0.129 H 
ATOM     87  H37 non d ame     -33.226  13.106  29.817  0.00  0.00     0.046 H 
BRANCH  83  88
ATOM     88  O6  non d ame     -30.483  12.476  29.609  0.00  0.00    -0.369 OA
ATOM     89  H45 non d ame     -30.222  12.709  28.714  0.00  0.00     0.212 HD
ENDBRANCH  83  88
ENDBRANCH  72  75
ENDBRANCH  47  72
ENDBRANCH  45  47
ENDBRANCH   1  43
BRANCH   1  90
ATOM     90  C16 non d ame     -32.855   9.493  23.894  0.00  0.00    -0.035 C 
ATOM     91  H21 non d ame     -33.661   8.868  23.512  0.00  0.00     0.037 H 
ATOM     92  H22 non d ame     -33.060  10.516  24.211  0.00  0.00     0.037 H 
BRANCH  90  93
ATOM     93  C17 non d ame     -31.794   9.590  22.751  0.00  0.00    -0.059 C 
ATOM     94  H23 non d ame     -32.078  10.422  22.107  0.00  0.00     0.038 H 
BRANCH  93  95
ATOM     95  C18 non d ame     -30.361   9.881  23.300  0.00  0.00    -0.073 C 
ATOM     96  H24 non d ame     -29.964  10.778  22.826  0.00  0.00     0.028 H 
ATOM     97  H25 non d ame     -30.409  10.032  24.378  0.00  0.00     0.028 H 
ATOM     98  H26 non d ame     -29.709   9.035  23.080  0.00  0.00     0.028 H 
ENDBRANCH  93  95
BRANCH  93  99
ATOM     99  C19 non d ame     -31.801   8.324  21.890  0.00  0.00    -0.073 C 
ATOM    100  H27 non d ame     -30.821   7.847  21.938  0.00  0.00     0.028 H 
ATOM    101  H28 non d ame     -32.558   7.634  22.262  0.00  0.00     0.028 H 
ATOM    102  H29 non d ame     -32.026   8.589  20.857  0.00  0.00     0.028 H 
ENDBRANCH  93  99
ENDBRANCH  90  93
ENDBRANCH   1  90
TORSDOF 26
ENDMDL
MODEL 8
REMARK VINA RESULT:      -6.8      2.912      9.395
REMARK  26 active torsions:
REMARK  status: ('A' for Active; 'I' for Inactive)
REMARK    1  A    between atoms: C2_2  and  C3_3 
REMARK    2  A    between atoms: C4_6  and  C5_7 
REMARK       I    between atoms: C5_7  and  N2_9 
REMARK    3  A    between atoms: N2_9  and  C6_10 
REMARK    4  A    between atoms: C6_10  and  C7_11 
REMARK    5  A    between atoms: C6_10  and  C8_13 
REMARK       I    between atoms: C7_11  and  N3_14 
REMARK    6  A    between atoms: N3_14  and  C9_15 
REMARK    7  A    between atoms: C9_15  and  C10_16 
REMARK    8  A    between atoms: C9_15  and  C11_18 
REMARK       I    between atoms: C10_16  and  N4_21 
REMARK    9  A    between atoms: C11_18  and  C12_19 
REMARK   10  A    between atoms: C11_18  and  C13_20 
REMARK   11  A    between atoms: N4_21  and  C14_22 
REMARK   12  A    between atoms: C14_22  and  C15_23 
REMARK   13  A    between atoms: C14_22  and  C16_25 
REMARK       I    between atoms: C15_23  and  N6_40 
REMARK   14  A    between atoms: C16_25  and  C17_26 
REMARK   15  A    between atoms: C17_26  and  C18_27 
REMARK   16  A    between atoms: C17_26  and  C19_28 
REMARK   17  A    between atoms: C20_29  and  C21_30 
REMARK   18  A    between atoms: C20_29  and  C24_33 
REMARK   19  A    between atoms: C20_29  and  N6_40 
REMARK   20  A    between atoms: C21_30  and  C22_31 
REMARK   21  A    between atoms: C22_31  and  C23_32 
REMARK   22  A    between atoms: C23_32  and  O8_43 
REMARK   23  A    between atoms: C24_33  and  C25_34 
REMARK   24  A    between atoms: C28_38  and  O6_39 
REMARK   25  A    between atoms: C29_42  and  O8_43 
REMARK   26  A    between atoms: C29_42  and  C35_49 
ROOT
ATOM      1  C14 non d ame     -32.552  10.994  29.582  0.00  0.00     0.089 C 
ATOM      2  H20 non d ame     -31.632  10.410  29.527  0.00  0.00     0.087 H 
ENDROOT
BRANCH   1   3
ATOM      3  N4  non d ame     -33.080  11.108  28.231  0.00  0.00    -0.346 N 
ATOM      4  C10 non d ame     -32.807  10.030  27.213  0.00  0.00     0.241 C 
ATOM      5  O4  non d ame     -32.158   9.080  27.503  0.00  0.00    -0.271 OA
ATOM      6  H19 non d ame     -33.628  11.925  28.004  0.00  0.00     0.163 HD
BRANCH   4   7
ATOM      7  C9  non d ame     -33.366  10.162  25.820  0.00  0.00     0.092 C 
ATOM      8  H11 non d ame     -34.123   9.395  25.663  0.00  0.00     0.088 H 
BRANCH   7   9
ATOM      9  N3  non d ame     -34.031  11.462  25.681  0.00  0.00    -0.346 N 
ATOM     10  C7  non d ame     -35.464  11.525  25.532  0.00  0.00     0.240 C 
ATOM     11  O3  non d ame     -36.097  10.541  25.521  0.00  0.00    -0.271 OA
ATOM     12  H10 non d ame     -33.497  12.319  25.688  0.00  0.00     0.163 HD
BRANCH  10  13
ATOM     13  C6  non d ame     -36.166  12.910  25.381  0.00  0.00     0.086 C 
ATOM     14  H6  non d ame     -36.793  13.160  26.236  0.00  0.00     0.086 H 
BRANCH  13  15
ATOM     15  N2  non d ame     -35.151  13.947  25.293  0.00  0.00    -0.343 N 
ATOM     16  C5  non d ame     -35.140  15.032  26.276  0.00  0.00     0.273 C 
ATOM     17  O2  non d ame     -35.954  15.064  27.133  0.00  0.00    -0.266 OA
ATOM     18  H5  non d ame     -34.461  13.913  24.556  0.00  0.00     0.163 HD
BRANCH  16  19
ATOM     19  C4  non d ame     -34.072  16.134  26.196  0.00  0.00     0.154 A 
ATOM     20  C1  non d ame     -34.066  17.385  26.889  0.00  0.00    -0.017 A 
ATOM     21  C2  non d ame     -32.878  18.025  26.473  0.00  0.00     0.077 A 
ATOM     22  H1  non d ame     -34.810  17.769  27.588  0.00  0.00     0.091 H 
ATOM     23  O1  non d ame     -32.278  17.227  25.640  0.00  0.00    -0.218 OA
ATOM     24  N1  non d ame     -32.956  16.116  25.462  0.00  0.00    -0.123 NA
BRANCH  21  25
ATOM     25  C3  non d ame     -32.389  19.396  26.919  0.00  0.00    -0.029 C 
ATOM     26  H2  non d ame     -32.986  20.170  26.438  0.00  0.00     0.036 H 
ATOM     27  H3  non d ame     -32.488  19.484  28.001  0.00  0.00     0.036 H 
ATOM     28  H4  non d ame     -31.343  19.519  26.640  0.00  0.00     0.036 H 
ENDBRANCH  21  25
ENDBRANCH  16  19
ENDBRANCH  13  15
BRANCH  13  29
ATOM     29  C8  non d ame     -37.016  12.913  24.136  0.00  0.00    -0.049 C 
ATOM     30  H7  non d ame     -37.586  13.840  24.087  0.00  0.00     0.030 H 
ATOM     31  H8  non d ame     -36.376  12.834  23.258  0.00  0.00     0.030 H 
ATOM     32  H9  non d ame     -37.703  12.066  24.164  0.00  0.00     0.030 H 
ENDBRANCH  13  29
ENDBRANCH  10  13
ENDBRANCH   7   9
BRANCH   7  33
ATOM     33  C11 non d ame     -32.206  10.063  24.786  0.00  0.00    -0.033 C 
ATOM     34  H12 non d ame     -31.486   9.341  25.168  0.00  0.00     0.042 H 
BRANCH  33  35
ATOM     35  C12 non d ame     -32.718   9.534  23.410  0.00  0.00    -0.071 C 
ATOM     36  H13 non d ame     -33.770   9.791  23.289  0.00  0.00     0.028 H 
ATOM     37  H14 non d ame     -32.138   9.988  22.607  0.00  0.00     0.028 H 
ATOM     38  H15 non d ame     -32.604   8.450  23.372  0.00  0.00     0.028 H 
ENDBRANCH  33  35
BRANCH  33  39
ATOM     39  C13 non d ame     -31.478  11.436  24.629  0.00  0.00    -0.071 C 
ATOM     40  H16 non d ame     -30.817  11.400  23.763  0.00  0.00     0.028 H 
ATOM     41  H17 non d ame     -32.216  12.227  24.492  0.00  0.00     0.028 H 
ATOM     42  H18 non d ame     -30.891  11.640  25.525  0.00  0.00     0.028 H 
ENDBRANCH  33  39
ENDBRANCH   7  33
ENDBRANCH   4   7
ENDBRANCH   1   3
BRANCH   1  43
ATOM     43  C15 non d ame     -33.626  10.313  30.479  0.00  0.00     0.240 C 
ATOM     44  O5  non d ame     -34.095  10.908  31.394  0.00  0.00    -0.271 OA
ATOM     45  N6  non d ame     -34.078   8.922  30.189  0.00  0.00    -0.355 N 
ATOM     46  H46 non d ame     -33.690   8.408  29.410  0.00  0.00     0.162 HD
BRANCH  45  47
ATOM     47  C20 non d ame     -35.100   8.289  31.050  0.00  0.00     0.013 C 
ATOM     48  H30 non d ame     -35.045   8.756  32.033  0.00  0.00     0.072 H 
BRANCH  47  49
ATOM     49  C21 non d ame     -34.814   6.809  31.162  0.00  0.00    -0.038 C 
ATOM     50  H31 non d ame     -33.758   6.694  30.914  0.00  0.00     0.036 H 
ATOM     51  H32 non d ame     -35.178   6.513  32.146  0.00  0.00     0.036 H 
BRANCH  49  52
ATOM     52  C22 non d ame     -35.599   5.967  30.133  0.00  0.00     0.018 C 
ATOM     53  H33 non d ame     -35.815   5.022  30.629  0.00  0.00     0.048 H 
ATOM     54  H34 non d ame     -36.416   6.604  29.794  0.00  0.00     0.048 H 
BRANCH  52  55
ATOM     55  C23 non d ame     -34.781   5.607  28.863  0.00  0.00     0.259 C 
ATOM     56  O7  non d ame     -34.603   4.471  28.561  0.00  0.00    -0.265 OA
BRANCH  55  57
ATOM     57  O8  non d ame     -34.232   6.652  28.068  0.00  0.00    -0.317 OA
BRANCH  57  58
ATOM     58  C29 non d ame     -34.973   6.929  26.877  0.00  0.00     0.052 C 
ATOM     59  H47 non d ame     -35.844   6.276  26.913  0.00  0.00     0.082 H 
ATOM     60  H48 non d ame     -35.102   8.010  26.854  0.00  0.00     0.082 H 
BRANCH  58  61
ATOM     61  C35 non d ame     -34.098   6.515  25.663  0.00  0.00    -0.034 A 
ATOM     62  C30 non d ame     -32.737   6.281  25.833  0.00  0.00    -0.075 A 
ATOM     63  C31 non d ame     -31.951   5.910  24.743  0.00  0.00    -0.082 A 
ATOM     64  H49 non d ame     -32.286   6.389  26.819  0.00  0.00     0.084 H 
ATOM     65  C32 non d ame     -32.530   5.775  23.479  0.00  0.00    -0.083 A 
ATOM     66  H50 non d ame     -30.884   5.725  24.880  0.00  0.00     0.083 H 
ATOM     67  C33 non d ame     -33.888   6.013  23.313  0.00  0.00    -0.082 A 
ATOM     68  H51 non d ame     -31.923   5.484  22.621  0.00  0.00     0.083 H 
ATOM     69  C34 non d ame     -34.677   6.383  24.400  0.00  0.00    -0.075 A 
ATOM     70  H52 non d ame     -34.337   5.909  22.324  0.00  0.00     0.083 H 
ATOM     71  H53 non d ame     -35.743   6.567  24.262  0.00  0.00     0.084 H 
ENDBRANCH  58  61
ENDBRANCH  57  58
ENDBRANCH  55  57
ENDBRANCH  52  55
ENDBRANCH  49  52
ENDBRANCH  47  49
BRANCH  47  72
ATOM     72  C24 non d ame     -36.486   8.497  30.442  0.00  0.00    -0.039 C 
ATOM     73  H35 non d ame     -36.320   9.073  29.532  0.00  0.00     0.036 H 
ATOM     74  H36 non d ame     -36.929   7.502  30.384  0.00  0.00     0.036 H 
BRANCH  72  75
ATOM     75  C25 non d ame     -37.426   9.377  31.395  0.00  0.00    -0.001 C 
ATOM     76  C26 non d ame     -38.911   8.683  31.513  0.00  0.00    -0.035 C 
ATOM     77  C27 non d ame     -39.853   9.617  31.238  0.00  0.00     0.085 C 
ATOM     78  H38 non d ame     -39.044   7.946  30.721  0.00  0.00     0.036 H 
ATOM     79  H39 non d ame     -39.116   8.412  32.549  0.00  0.00     0.036 H 
ATOM     80  N5  non d ame     -39.138  10.797  30.624  0.00  0.00    -0.049 N 
ATOM     81  H40 non d ame     -40.501   9.164  30.488  0.00  0.00     0.075 H 
ATOM     82  H41 non d ame     -40.261   9.912  32.204  0.00  0.00     0.075 H 
ATOM     83  C28 non d ame     -37.569  10.574  30.932  0.00  0.00     0.193 C 
ATOM     84  H42 non d ame     -39.282  10.732  29.627  0.00  0.00     0.280 HD
ATOM     85  H43 non d ame     -39.452  11.614  31.128  0.00  0.00     0.280 HD
ATOM     86  H44 non d ame     -37.071  11.150  31.713  0.00  0.00     0.129 H 
ATOM     87  H37 non d ame     -36.930   9.649  32.326  0.00  0.00     0.046 H 
BRANCH  83  88
ATOM     88  O6  non d ame     -36.799  10.791  29.748  0.00  0.00    -0.369 OA
ATOM     89  H45 non d ame     -36.289  11.600  29.841  0.00  0.00     0.212 HD
ENDBRANCH  83  88
ENDBRANCH  72  75
ENDBRANCH  47  72
ENDBRANCH  45  47
ENDBRANCH   1  43
BRANCH   1  90
ATOM     90  C16 non d ame     -32.247  12.384  30.117  0.00  0.00    -0.035 C 
ATOM     91  H21 non d ame     -33.153  12.699  30.632  0.00  0.00     0.037 H 
ATOM     92  H22 non d ame     -31.313  12.283  30.668  0.00  0.00     0.037 H 
BRANCH  90  93
ATOM     93  C17 non d ame     -31.988  13.442  28.997  0.00  0.00    -0.059 C 
ATOM     94  H23 non d ame     -32.393  13.044  28.067  0.00  0.00     0.038 H 
BRANCH  93  95
ATOM     95  C18 non d ame     -32.706  14.798  29.288  0.00  0.00    -0.073 C 
ATOM     96  H24 non d ame     -32.638  15.442  28.411  0.00  0.00     0.028 H 
ATOM     97  H25 non d ame     -33.755  14.611  29.519  0.00  0.00     0.028 H 
ATOM     98  H26 non d ame     -32.229  15.287  30.137  0.00  0.00     0.028 H 
ENDBRANCH  93  95
BRANCH  93  99
ATOM     99  C19 non d ame     -30.486  13.656  28.785  0.00  0.00    -0.073 C 
ATOM    100  H27 non d ame     -29.939  12.795  29.170  0.00  0.00     0.028 H 
ATOM    101  H28 non d ame     -30.282  13.769  27.720  0.00  0.00     0.028 H 
ATOM    102  H29 non d ame     -30.169  14.555  29.313  0.00  0.00     0.028 H 
ENDBRANCH  93  99
ENDBRANCH  90  93
ENDBRANCH   1  90
TORSDOF 26
ENDMDL
MODEL 9
REMARK VINA RESULT:      -6.6      3.191      9.963
REMARK  26 active torsions:
REMARK  status: ('A' for Active; 'I' for Inactive)
REMARK    1  A    between atoms: C2_2  and  C3_3 
REMARK    2  A    between atoms: C4_6  and  C5_7 
REMARK       I    between atoms: C5_7  and  N2_9 
REMARK    3  A    between atoms: N2_9  and  C6_10 
REMARK    4  A    between atoms: C6_10  and  C7_11 
REMARK    5  A    between atoms: C6_10  and  C8_13 
REMARK       I    between atoms: C7_11  and  N3_14 
REMARK    6  A    between atoms: N3_14  and  C9_15 
REMARK    7  A    between atoms: C9_15  and  C10_16 
REMARK    8  A    between atoms: C9_15  and  C11_18 
REMARK       I    between atoms: C10_16  and  N4_21 
REMARK    9  A    between atoms: C11_18  and  C12_19 
REMARK   10  A    between atoms: C11_18  and  C13_20 
REMARK   11  A    between atoms: N4_21  and  C14_22 
REMARK   12  A    between atoms: C14_22  and  C15_23 
REMARK   13  A    between atoms: C14_22  and  C16_25 
REMARK       I    between atoms: C15_23  and  N6_40 
REMARK   14  A    between atoms: C16_25  and  C17_26 
REMARK   15  A    between atoms: C17_26  and  C18_27 
REMARK   16  A    between atoms: C17_26  and  C19_28 
REMARK   17  A    between atoms: C20_29  and  C21_30 
REMARK   18  A    between atoms: C20_29  and  C24_33 
REMARK   19  A    between atoms: C20_29  and  N6_40 
REMARK   20  A    between atoms: C21_30  and  C22_31 
REMARK   21  A    between atoms: C22_31  and  C23_32 
REMARK   22  A    between atoms: C23_32  and  O8_43 
REMARK   23  A    between atoms: C24_33  and  C25_34 
REMARK   24  A    between atoms: C28_38  and  O6_39 
REMARK   25  A    between atoms: C29_42  and  O8_43 
REMARK   26  A    between atoms: C29_42  and  C35_49 
ROOT
ATOM      1  C14 non d ame     -36.175  13.243  26.077  0.00  0.00     0.089 C 
ATOM      2  H20 non d ame     -36.994  13.146  26.790  0.00  0.00     0.087 H 
ENDROOT
BRANCH   1   3
ATOM      3  N4  non d ame     -35.827  14.654  25.998  0.00  0.00    -0.346 N 
ATOM      4  C10 non d ame     -36.800  15.705  26.467  0.00  0.00     0.241 C 
ATOM      5  O4  non d ame     -37.859  15.393  26.903  0.00  0.00    -0.271 OA
ATOM      6  H19 non d ame     -34.923  14.899  25.622  0.00  0.00     0.163 HD
BRANCH   4   7
ATOM      7  C9  non d ame     -36.422  17.161  26.383  0.00  0.00     0.092 C 
ATOM      8  H11 non d ame     -36.673  17.652  27.323  0.00  0.00     0.088 H 
BRANCH   7   9
ATOM      9  N3  non d ame     -34.972  17.280  26.205  0.00  0.00    -0.346 N 
ATOM     10  C7  non d ame     -34.134  17.623  27.327  0.00  0.00     0.240 C 
ATOM     11  O3  non d ame     -34.610  17.807  28.381  0.00  0.00    -0.271 OA
ATOM     12  H10 non d ame     -34.547  17.126  25.301  0.00  0.00     0.163 HD
BRANCH  10  13
ATOM     13  C6  non d ame     -32.592  17.752  27.132  0.00  0.00     0.086 C 
ATOM     14  H6  non d ame     -32.024  17.190  27.873  0.00  0.00     0.086 H 
BRANCH  13  15
ATOM     15  N2  non d ame     -32.234  17.205  25.833  0.00  0.00    -0.343 N 
ATOM     16  C5  non d ame     -31.654  15.863  25.750  0.00  0.00     0.273 C 
ATOM     17  O2  non d ame     -31.477  15.232  26.733  0.00  0.00    -0.266 OA
ATOM     18  H5  non d ame     -32.386  17.753  24.998  0.00  0.00     0.163 HD
BRANCH  16  19
ATOM     19  C4  non d ame     -31.272  15.273  24.383  0.00  0.00     0.154 A 
ATOM     20  C1  non d ame     -31.262  15.949  23.122  0.00  0.00    -0.017 A 
ATOM     21  C2  non d ame     -30.841  14.973  22.191  0.00  0.00     0.077 A 
ATOM     22  H1  non d ame     -31.521  16.987  22.915  0.00  0.00     0.091 H 
ATOM     23  O1  non d ame     -30.634  13.872  22.850  0.00  0.00    -0.218 OA
ATOM     24  N1  non d ame     -30.879  14.022  24.132  0.00  0.00    -0.123 NA
BRANCH  21  25
ATOM     25  C3  non d ame     -30.660  15.176  20.693  0.00  0.00    -0.029 C 
ATOM     26  H2  non d ame     -31.236  16.042  20.371  0.00  0.00     0.036 H 
ATOM     27  H3  non d ame     -29.605  15.341  20.473  0.00  0.00     0.036 H 
ATOM     28  H4  non d ame     -31.007  14.290  20.161  0.00  0.00     0.036 H 
ENDBRANCH  21  25
ENDBRANCH  16  19
ENDBRANCH  13  15
BRANCH  13  29
ATOM     29  C8  non d ame     -32.192  19.203  27.210  0.00  0.00    -0.049 C 
ATOM     30  H7  non d ame     -31.390  19.321  27.938  0.00  0.00     0.030 H 
ATOM     31  H8  non d ame     -31.846  19.538  26.233  0.00  0.00     0.030 H 
ATOM     32  H9  non d ame     -33.052  19.801  27.516  0.00  0.00     0.030 H 
ENDBRANCH  13  29
ENDBRANCH  10  13
ENDBRANCH   7   9
BRANCH   7  33
ATOM     33  C11 non d ame     -37.146  17.815  25.168  0.00  0.00    -0.033 C 
ATOM     34  H12 non d ame     -37.047  17.136  24.322  0.00  0.00     0.042 H 
BRANCH  33  35
ATOM     35  C12 non d ame     -38.671  17.997  25.447  0.00  0.00    -0.071 C 
ATOM     36  H13 non d ame     -39.245  17.513  24.657  0.00  0.00     0.028 H 
ATOM     37  H14 non d ame     -38.922  17.545  26.407  0.00  0.00     0.028 H 
ATOM     38  H15 non d ame     -38.912  19.059  25.471  0.00  0.00     0.028 H 
ENDBRANCH  33  35
BRANCH  33  39
ATOM     39  C13 non d ame     -36.475  19.171  24.781  0.00  0.00    -0.071 C 
ATOM     40  H16 non d ame     -36.581  19.336  23.709  0.00  0.00     0.028 H 
ATOM     41  H17 non d ame     -36.958  19.984  25.324  0.00  0.00     0.028 H 
ATOM     42  H18 non d ame     -35.417  19.140  25.041  0.00  0.00     0.028 H 
ENDBRANCH  33  39
ENDBRANCH   7  33
ENDBRANCH   4   7
ENDBRANCH   1   3
BRANCH   1  43
ATOM     43  C15 non d ame     -34.914  12.446  26.520  0.00  0.00     0.240 C 
ATOM     44  O5  non d ame     -33.838  12.788  26.149  0.00  0.00    -0.271 OA
ATOM     45  N6  non d ame     -35.047  11.263  27.416  0.00  0.00    -0.355 N 
ATOM     46  H46 non d ame     -35.956  10.965  27.742  0.00  0.00     0.162 HD
BRANCH  45  47
ATOM     47  C20 non d ame     -33.839  10.517  27.830  0.00  0.00     0.013 C 
ATOM     48  H30 non d ame     -32.989  10.928  27.284  0.00  0.00     0.072 H 
BRANCH  47  49
ATOM     49  C21 non d ame     -34.013   9.054  27.490  0.00  0.00    -0.038 C 
ATOM     50  H31 non d ame     -34.378   8.581  28.402  0.00  0.00     0.036 H 
ATOM     51  H32 non d ame     -34.620   9.033  26.584  0.00  0.00     0.036 H 
BRANCH  49  52
ATOM     52  C22 non d ame     -32.680   8.357  27.139  0.00  0.00     0.018 C 
ATOM     53  H33 non d ame     -32.145   9.052  26.494  0.00  0.00     0.048 H 
ATOM     54  H34 non d ame     -32.247   8.053  28.092  0.00  0.00     0.048 H 
BRANCH  52  55
ATOM     55  C23 non d ame     -32.854   7.053  26.313  0.00  0.00     0.259 C 
ATOM     56  O7  non d ame     -33.845   6.403  26.413  0.00  0.00    -0.265 OA
BRANCH  55  57
ATOM     57  O8  non d ame     -31.810   6.634  25.443  0.00  0.00    -0.317 OA
BRANCH  57  58
ATOM     58  C29 non d ame     -32.135   6.730  24.053  0.00  0.00     0.052 C 
ATOM     59  H47 non d ame     -31.761   5.813  23.598  0.00  0.00     0.082 H 
ATOM     60  H48 non d ame     -33.198   6.964  24.014  0.00  0.00     0.082 H 
BRANCH  58  61
ATOM     61  C35 non d ame     -31.348   7.930  23.459  0.00  0.00    -0.034 A 
ATOM     62  C30 non d ame     -31.797   9.230  23.672  0.00  0.00    -0.075 A 
ATOM     63  C31 non d ame     -31.091  10.307  23.139  0.00  0.00    -0.082 A 
ATOM     64  H49 non d ame     -32.701   9.405  24.255  0.00  0.00     0.084 H 
ATOM     65  C32 non d ame     -29.933  10.081  22.389  0.00  0.00    -0.083 A 
ATOM     66  H50 non d ame     -31.443  11.326  23.309  0.00  0.00     0.083 H 
ATOM     67  C33 non d ame     -29.493   8.782  22.176  0.00  0.00    -0.082 A 
ATOM     68  H51 non d ame     -29.375  10.918  21.969  0.00  0.00     0.083 H 
ATOM     69  C34 non d ame     -30.194   7.702  22.709  0.00  0.00    -0.075 A 
ATOM     70  H52 non d ame     -28.590   8.608  21.588  0.00  0.00     0.083 H 
ATOM     71  H53 non d ame     -29.840   6.685  22.539  0.00  0.00     0.084 H 
ENDBRANCH  58  61
ENDBRANCH  57  58
ENDBRANCH  55  57
ENDBRANCH  52  55
ENDBRANCH  49  52
ENDBRANCH  47  49
BRANCH  47  72
ATOM     72  C24 non d ame     -33.627  10.670  29.334  0.00  0.00    -0.039 C 
ATOM     73  H35 non d ame     -34.628  10.706  29.765  0.00  0.00     0.036 H 
ATOM     74  H36 non d ame     -32.943   9.869  29.614  0.00  0.00     0.036 H 
BRANCH  72  75
ATOM     75  C25 non d ame     -32.907  12.055  29.694  0.00  0.00    -0.001 C 
ATOM     76  C26 non d ame     -31.557  12.239  28.774  0.00  0.00    -0.035 C 
ATOM     77  C27 non d ame     -30.511  12.529  29.584  0.00  0.00     0.085 C 
ATOM     78  H38 non d ame     -31.276  11.286  28.326  0.00  0.00     0.036 H 
ATOM     79  H39 non d ame     -31.648  13.128  28.149  0.00  0.00     0.036 H 
ATOM     80  N5  non d ame     -30.955  12.236  30.998  0.00  0.00    -0.049 N 
ATOM     81  H40 non d ame     -29.724  11.827  29.306  0.00  0.00     0.075 H 
ATOM     82  H41 non d ame     -30.348  13.600  29.478  0.00  0.00     0.075 H 
ATOM     83  C28 non d ame     -32.562  12.093  30.938  0.00  0.00     0.193 C 
ATOM     84  H42 non d ame     -30.562  11.339  31.241  0.00  0.00     0.280 HD
ATOM     85  H43 non d ame     -30.725  13.054  31.544  0.00  0.00     0.280 HD
ATOM     86  H44 non d ame     -33.203  12.899  31.296  0.00  0.00     0.129 H 
ATOM     87  H37 non d ame     -33.607  12.889  29.720  0.00  0.00     0.046 H 
BRANCH  83  88
ATOM     88  O6  non d ame     -32.980  10.926  31.649  0.00  0.00    -0.369 OA
ATOM     89  H45 non d ame     -32.242  10.577  32.154  0.00  0.00     0.212 HD
ENDBRANCH  83  88
ENDBRANCH  72  75
ENDBRANCH  47  72
ENDBRANCH  45  47
ENDBRANCH   1  43
BRANCH   1  90
ATOM     90  C16 non d ame     -36.626  12.764  24.706  0.00  0.00    -0.035 C 
ATOM     91  H21 non d ame     -36.515  13.626  24.049  0.00  0.00     0.037 H 
ATOM     92  H22 non d ame     -36.054  11.856  24.516  0.00  0.00     0.037 H 
BRANCH  90  93
ATOM     93  C17 non d ame     -38.133  12.358  24.649  0.00  0.00    -0.059 C 
ATOM     94  H23 non d ame     -38.724  13.257  24.824  0.00  0.00     0.038 H 
BRANCH  93  95
ATOM     95  C18 non d ame     -38.538  11.787  23.253  0.00  0.00    -0.073 C 
ATOM     96  H24 non d ame     -38.436  10.702  23.260  0.00  0.00     0.028 H 
ATOM     97  H25 non d ame     -39.573  12.053  23.038  0.00  0.00     0.028 H 
ATOM     98  H26 non d ame     -37.888  12.208  22.486  0.00  0.00     0.028 H 
ENDBRANCH  93  95
BRANCH  93  99
ATOM     99  C19 non d ame     -38.474  11.364  25.763  0.00  0.00    -0.073 C 
ATOM    100  H27 non d ame     -38.838  10.435  25.322  0.00  0.00     0.028 H 
ATOM    101  H28 non d ame     -37.581  11.159  26.354  0.00  0.00     0.028 H 
ATOM    102  H29 non d ame     -39.245  11.789  26.405  0.00  0.00     0.028 H 
ENDBRANCH  93  99
ENDBRANCH  90  93
ENDBRANCH   1  90
TORSDOF 26
ENDMDL
MODEL 10
REMARK VINA RESULT:      -6.6      2.684      9.350
REMARK  26 active torsions:
REMARK  status: ('A' for Active; 'I' for Inactive)
REMARK    1  A    between atoms: C2_2  and  C3_3 
REMARK    2  A    between atoms: C4_6  and  C5_7 
REMARK       I    between atoms: C5_7  and  N2_9 
REMARK    3  A    between atoms: N2_9  and  C6_10 
REMARK    4  A    between atoms: C6_10  and  C7_11 
REMARK    5  A    between atoms: C6_10  and  C8_13 
REMARK       I    between atoms: C7_11  and  N3_14 
REMARK    6  A    between atoms: N3_14  and  C9_15 
REMARK    7  A    between atoms: C9_15  and  C10_16 
REMARK    8  A    between atoms: C9_15  and  C11_18 
REMARK       I    between atoms: C10_16  and  N4_21 
REMARK    9  A    between atoms: C11_18  and  C12_19 
REMARK   10  A    between atoms: C11_18  and  C13_20 
REMARK   11  A    between atoms: N4_21  and  C14_22 
REMARK   12  A    between atoms: C14_22  and  C15_23 
REMARK   13  A    between atoms: C14_22  and  C16_25 
REMARK       I    between atoms: C15_23  and  N6_40 
REMARK   14  A    between atoms: C16_25  and  C17_26 
REMARK   15  A    between atoms: C17_26  and  C18_27 
REMARK   16  A    between atoms: C17_26  and  C19_28 
REMARK   17  A    between atoms: C20_29  and  C21_30 
REMARK   18  A    between atoms: C20_29  and  C24_33 
REMARK   19  A    between atoms: C20_29  and  N6_40 
REMARK   20  A    between atoms: C21_30  and  C22_31 
REMARK   21  A    between atoms: C22_31  and  C23_32 
REMARK   22  A    between atoms: C23_32  and  O8_43 
REMARK   23  A    between atoms: C24_33  and  C25_34 
REMARK   24  A    between atoms: C28_38  and  O6_39 
REMARK   25  A    between atoms: C29_42  and  O8_43 
REMARK   26  A    between atoms: C29_42  and  C35_49 
ROOT
ATOM      1  C14 non d ame     -35.606  14.264  26.893  0.00  0.00     0.089 C 
ATOM      2  H20 non d ame     -35.720  14.574  27.932  0.00  0.00     0.087 H 
ENDROOT
BRANCH   1   3
ATOM      3  N4  non d ame     -34.593  15.117  26.289  0.00  0.00    -0.346 N 
ATOM      4  C10 non d ame     -33.769  16.044  27.145  0.00  0.00     0.241 C 
ATOM      5  O4  non d ame     -33.940  16.089  28.319  0.00  0.00    -0.271 OA
ATOM      6  H19 non d ame     -34.465  15.066  25.289  0.00  0.00     0.163 HD
BRANCH   4   7
ATOM      7  C9  non d ame     -32.722  16.917  26.504  0.00  0.00     0.092 C 
ATOM      8  H11 non d ame     -31.852  16.972  27.158  0.00  0.00     0.088 H 
BRANCH   7   9
ATOM      9  N3  non d ame     -32.281  16.308  25.246  0.00  0.00    -0.346 N 
ATOM     10  C7  non d ame     -31.333  15.221  25.265  0.00  0.00     0.240 C 
ATOM     11  O3  non d ame     -30.915  14.824  26.283  0.00  0.00    -0.271 OA
ATOM     12  H10 non d ame     -32.632  16.640  24.359  0.00  0.00     0.163 HD
BRANCH  10  13
ATOM     13  C6  non d ame     -30.865  14.578  23.922  0.00  0.00     0.086 C 
ATOM     14  H6  non d ame     -29.790  14.661  23.767  0.00  0.00     0.086 H 
BRANCH  13  15
ATOM     15  N2  non d ame     -31.174  13.158  23.946  0.00  0.00    -0.343 N 
ATOM     16  C5  non d ame     -30.409  12.240  23.100  0.00  0.00     0.273 C 
ATOM     17  O2  non d ame     -29.549  12.653  22.402  0.00  0.00    -0.266 OA
ATOM     18  H5  non d ame     -31.912  12.814  24.543  0.00  0.00     0.163 HD
BRANCH  16  19
ATOM     19  C4  non d ame     -30.724  10.735  23.116  0.00  0.00     0.154 A 
ATOM     20  C1  non d ame     -29.951   9.684  22.530  0.00  0.00    -0.017 A 
ATOM     21  C2  non d ame     -30.666   8.501  22.823  0.00  0.00     0.077 A 
ATOM     22  H1  non d ame     -29.016   9.766  21.977  0.00  0.00     0.091 H 
ATOM     23  O1  non d ame     -31.722   8.844  23.500  0.00  0.00    -0.218 OA
ATOM     24  N1  non d ame     -31.778  10.143  23.684  0.00  0.00    -0.123 NA
BRANCH  21  25
ATOM     25  C3  non d ame     -30.271   7.086  22.422  0.00  0.00    -0.029 C 
ATOM     26  H2  non d ame     -30.165   6.471  23.316  0.00  0.00     0.036 H 
ATOM     27  H3  non d ame     -31.043   6.661  21.780  0.00  0.00     0.036 H 
ATOM     28  H4  non d ame     -29.324   7.111  21.884  0.00  0.00     0.036 H 
ENDBRANCH  21  25
ENDBRANCH  16  19
ENDBRANCH  13  15
BRANCH  13  29
ATOM     29  C8  non d ame     -31.575  15.242  22.770  0.00  0.00    -0.049 C 
ATOM     30  H7  non d ame     -32.651  15.207  22.936  0.00  0.00     0.030 H 
ATOM     31  H8  non d ame     -31.254  16.281  22.694  0.00  0.00     0.030 H 
ATOM     32  H9  non d ame     -31.334  14.719  21.844  0.00  0.00     0.030 H 
ENDBRANCH  13  29
ENDBRANCH  10  13
ENDBRANCH   7   9
BRANCH   7  33
ATOM     33  C11 non d ame     -33.326  18.322  26.213  0.00  0.00    -0.033 C 
ATOM     34  H12 non d ame     -33.218  18.512  25.145  0.00  0.00     0.042 H 
BRANCH  33  35
ATOM     35  C12 non d ame     -34.850  18.365  26.545  0.00  0.00    -0.071 C 
ATOM     36  H13 non d ame     -35.038  17.805  27.462  0.00  0.00     0.028 H 
ATOM     37  H14 non d ame     -35.165  19.399  26.680  0.00  0.00     0.028 H 
ATOM     38  H15 non d ame     -35.413  17.917  25.727  0.00  0.00     0.028 H 
ENDBRANCH  33  35
BRANCH  33  39
ATOM     39  C13 non d ame     -32.547  19.436  26.982  0.00  0.00    -0.071 C 
ATOM     40  H16 non d ame     -31.480  19.343  26.776  0.00  0.00     0.028 H 
ATOM     41  H17 non d ame     -32.896  20.417  26.655  0.00  0.00     0.028 H 
ATOM     42  H18 non d ame     -32.721  19.329  28.053  0.00  0.00     0.028 H 
ENDBRANCH  33  39
ENDBRANCH   7  33
ENDBRANCH   4   7
ENDBRANCH   1   3
BRANCH   1  43
ATOM     43  C15 non d ame     -35.144  12.783  26.770  0.00  0.00     0.240 C 
ATOM     44  O5  non d ame     -34.841  12.345  25.708  0.00  0.00    -0.271 OA
ATOM     45  N6  non d ame     -35.068  11.915  27.980  0.00  0.00    -0.355 N 
ATOM     46  H46 non d ame     -35.318  12.278  28.889  0.00  0.00     0.162 HD
BRANCH  45  47
ATOM     47  C20 non d ame     -34.626  10.510  27.846  0.00  0.00     0.013 C 
ATOM     48  H30 non d ame     -34.435  10.318  26.790  0.00  0.00     0.072 H 
BRANCH  47  49
ATOM     49  C21 non d ame     -35.717   9.592  28.350  0.00  0.00    -0.038 C 
ATOM     50  H31 non d ame     -36.347   9.382  27.486  0.00  0.00     0.036 H 
ATOM     51  H32 non d ame     -35.203   8.777  28.861  0.00  0.00     0.036 H 
BRANCH  49  52
ATOM     52  C22 non d ame     -36.626  10.263  29.403  0.00  0.00     0.018 C 
ATOM     53  H33 non d ame     -36.333  11.312  29.420  0.00  0.00     0.048 H 
ATOM     54  H34 non d ame     -37.644   9.985  29.132  0.00  0.00     0.048 H 
BRANCH  52  55
ATOM     55  C23 non d ame     -36.407   9.734  30.847  0.00  0.00     0.259 C 
ATOM     56  O7  non d ame     -35.815  10.386  31.645  0.00  0.00    -0.265 OA
BRANCH  55  57
ATOM     57  O8  non d ame     -36.911   8.452  31.203  0.00  0.00    -0.317 OA
BRANCH  57  58
ATOM     58  C29 non d ame     -35.897   7.460  31.392  0.00  0.00     0.052 C 
ATOM     59  H47 non d ame     -34.948   7.991  31.324  0.00  0.00     0.082 H 
ATOM     60  H48 non d ame     -36.164   6.936  32.309  0.00  0.00     0.082 H 
BRANCH  58  61
ATOM     61  C35 non d ame     -35.985   6.456  30.211  0.00  0.00    -0.034 A 
ATOM     62  C30 non d ame     -34.821   5.957  29.634  0.00  0.00    -0.075 A 
ATOM     63  C31 non d ame     -34.899   5.056  28.573  0.00  0.00    -0.082 A 
ATOM     64  H49 non d ame     -33.848   6.273  30.011  0.00  0.00     0.084 H 
ATOM     65  C32 non d ame     -36.147   4.654  28.089  0.00  0.00    -0.083 A 
ATOM     66  H50 non d ame     -33.985   4.665  28.124  0.00  0.00     0.083 H 
ATOM     67  C33 non d ame     -37.305   5.158  28.666  0.00  0.00    -0.082 A 
ATOM     68  H51 non d ame     -36.217   3.949  27.260  0.00  0.00     0.083 H 
ATOM     69  C34 non d ame     -37.231   6.057  29.727  0.00  0.00    -0.075 A 
ATOM     70  H52 non d ame     -38.277   4.844  28.284  0.00  0.00     0.083 H 
ATOM     71  H53 non d ame     -38.145   6.446  30.176  0.00  0.00     0.084 H 
ENDBRANCH  58  61
ENDBRANCH  57  58
ENDBRANCH  55  57
ENDBRANCH  52  55
ENDBRANCH  49  52
ENDBRANCH  47  49
BRANCH  47  72
ATOM     72  C24 non d ame     -33.355  10.289  28.663  0.00  0.00    -0.039 C 
ATOM     73  H35 non d ame     -33.609   9.518  29.391  0.00  0.00     0.036 H 
ATOM     74  H36 non d ame     -32.567  10.109  27.932  0.00  0.00     0.036 H 
BRANCH  72  75
ATOM     75  C25 non d ame     -32.945  11.600  29.487  0.00  0.00    -0.001 C 
ATOM     76  C26 non d ame     -31.594  12.272  28.834  0.00  0.00    -0.035 C 
ATOM     77  C27 non d ame     -30.685  12.472  29.819  0.00  0.00     0.085 C 
ATOM     78  H38 non d ame     -31.102  11.558  28.174  0.00  0.00     0.036 H 
ATOM     79  H39 non d ame     -31.811  13.280  28.480  0.00  0.00     0.036 H 
ATOM     80  N5  non d ame     -31.164  11.698  31.024  0.00  0.00    -0.049 N 
ATOM     81  H40 non d ame     -29.759  12.026  29.455  0.00  0.00     0.075 H 
ATOM     82  H41 non d ame     -30.726  13.537  30.041  0.00  0.00     0.075 H 
ATOM     83  C28 non d ame     -32.704  11.318  30.724  0.00  0.00     0.193 C 
ATOM     84  H42 non d ame     -30.622  10.847  31.051  0.00  0.00     0.280 HD
ATOM     85  H43 non d ame     -31.137  12.340  31.803  0.00  0.00     0.280 HD
ATOM     86  H44 non d ame     -33.513  11.863  31.212  0.00  0.00     0.129 H 
ATOM     87  H37 non d ame     -33.793  12.261  29.660  0.00  0.00     0.046 H 
BRANCH  83  88
ATOM     88  O6  non d ame     -32.938   9.940  31.019  0.00  0.00    -0.369 OA
ATOM     89  H45 non d ame     -33.737   9.648  30.572  0.00  0.00     0.212 HD
ENDBRANCH  83  88
ENDBRANCH  72  75
ENDBRANCH  47  72
ENDBRANCH  45  47
ENDBRANCH   1  43
BRANCH   1  90
ATOM     90  C16 non d ame     -36.920  14.452  26.152  0.00  0.00    -0.035 C 
ATOM     91  H21 non d ame     -36.891  13.740  25.329  0.00  0.00     0.037 H 
ATOM     92  H22 non d ame     -37.695  14.373  26.916  0.00  0.00     0.037 H 
BRANCH  90  93
ATOM     93  C17 non d ame     -37.078  15.865  25.507  0.00  0.00    -0.059 C 
ATOM     94  H23 non d ame     -36.115  16.371  25.578  0.00  0.00     0.038 H 
BRANCH  93  95
ATOM     95  C18 non d ame     -37.462  15.783  23.995  0.00  0.00    -0.073 C 
ATOM     96  H24 non d ame     -38.486  16.132  23.859  0.00  0.00     0.028 H 
ATOM     97  H25 non d ame     -36.786  16.411  23.414  0.00  0.00     0.028 H 
ATOM     98  H26 non d ame     -37.381  14.751  23.655  0.00  0.00     0.028 H 
ENDBRANCH  93  95
BRANCH  93  99
ATOM     99  C19 non d ame     -38.094  16.710  26.280  0.00  0.00    -0.073 C 
ATOM    100  H27 non d ame     -38.812  17.144  25.583  0.00  0.00     0.028 H 
ATOM    101  H28 non d ame     -38.621  16.080  26.997  0.00  0.00     0.028 H 
ATOM    102  H29 non d ame     -37.574  17.508  26.811  0.00  0.00     0.028 H 
ENDBRANCH  93  99
ENDBRANCH  90  93
ENDBRANCH   1  90
TORSDOF 26
ENDMDL
MODEL 11
REMARK VINA RESULT:      -6.6      2.572      8.658
REMARK  26 active torsions:
REMARK  status: ('A' for Active; 'I' for Inactive)
REMARK    1  A    between atoms: C2_2  and  C3_3 
REMARK    2  A    between atoms: C4_6  and  C5_7 
REMARK       I    between atoms: C5_7  and  N2_9 
REMARK    3  A    between atoms: N2_9  and  C6_10 
REMARK    4  A    between atoms: C6_10  and  C7_11 
REMARK    5  A    between atoms: C6_10  and  C8_13 
REMARK       I    between atoms: C7_11  and  N3_14 
REMARK    6  A    between atoms: N3_14  and  C9_15 
REMARK    7  A    between atoms: C9_15  and  C10_16 
REMARK    8  A    between atoms: C9_15  and  C11_18 
REMARK       I    between atoms: C10_16  and  N4_21 
REMARK    9  A    between atoms: C11_18  and  C12_19 
REMARK   10  A    between atoms: C11_18  and  C13_20 
REMARK   11  A    between atoms: N4_21  and  C14_22 
REMARK   12  A    between atoms: C14_22  and  C15_23 
REMARK   13  A    between atoms: C14_22  and  C16_25 
REMARK       I    between atoms: C15_23  and  N6_40 
REMARK   14  A    between atoms: C16_25  and  C17_26 
REMARK   15  A    between atoms: C17_26  and  C18_27 
REMARK   16  A    between atoms: C17_26  and  C19_28 
REMARK   17  A    between atoms: C20_29  and  C21_30 
REMARK   18  A    between atoms: C20_29  and  C24_33 
REMARK   19  A    between atoms: C20_29  and  N6_40 
REMARK   20  A    between atoms: C21_30  and  C22_31 
REMARK   21  A    between atoms: C22_31  and  C23_32 
REMARK   22  A    between atoms: C23_32  and  O8_43 
REMARK   23  A    between atoms: C24_33  and  C25_34 
REMARK   24  A    between atoms: C28_38  and  O6_39 
REMARK   25  A    between atoms: C29_42  and  O8_43 
REMARK   26  A    between atoms: C29_42  and  C35_49 
ROOT
ATOM      1  C14 non d ame     -34.542   6.102  28.589  0.00  0.00     0.089 C 
ATOM      2  H20 non d ame     -34.468   5.464  29.470  0.00  0.00     0.087 H 
ENDROOT
BRANCH   1   3
ATOM      3  N4  non d ame     -34.367   7.479  29.028  0.00  0.00    -0.346 N 
ATOM      4  C10 non d ame     -34.574   7.849  30.474  0.00  0.00     0.241 C 
ATOM      5  O4  non d ame     -34.883   7.022  31.268  0.00  0.00    -0.271 OA
ATOM      6  H19 non d ame     -34.108   8.168  28.337  0.00  0.00     0.163 HD
BRANCH   4   7
ATOM      7  C9  non d ame     -34.385   9.277  30.912  0.00  0.00     0.092 C 
ATOM      8  H11 non d ame     -33.419   9.376  31.406  0.00  0.00     0.088 H 
BRANCH   7   9
ATOM      9  N3  non d ame     -34.363  10.151  29.735  0.00  0.00    -0.346 N 
ATOM     10  C7  non d ame     -33.214  10.984  29.478  0.00  0.00     0.240 C 
ATOM     11  O3  non d ame     -32.299  10.964  30.207  0.00  0.00    -0.271 OA
ATOM     12  H10 non d ame     -35.146  10.180  29.098  0.00  0.00     0.163 HD
BRANCH  10  13
ATOM     13  C6  non d ame     -33.197  11.914  28.225  0.00  0.00     0.086 C 
ATOM     14  H6  non d ame     -34.182  12.027  27.771  0.00  0.00     0.086 H 
BRANCH  13  15
ATOM     15  N2  non d ame     -32.770  13.243  28.630  0.00  0.00    -0.343 N 
ATOM     16  C5  non d ame     -33.345  14.417  27.970  0.00  0.00     0.273 C 
ATOM     17  O2  non d ame     -34.147  14.283  27.113  0.00  0.00    -0.266 OA
ATOM     18  H5  non d ame     -32.082  13.348  29.362  0.00  0.00     0.163 HD
BRANCH  16  19
ATOM     19  C4  non d ame     -32.903  15.828  28.389  0.00  0.00     0.154 A 
ATOM     20  C1  non d ame     -33.192  17.059  27.720  0.00  0.00    -0.017 A 
ATOM     21  C2  non d ame     -32.563  18.054  28.502  0.00  0.00     0.077 A 
ATOM     22  H1  non d ame     -33.771  17.208  26.809  0.00  0.00     0.091 H 
ATOM     23  O1  non d ame     -31.984  17.454  29.500  0.00  0.00    -0.218 OA
ATOM     24  N1  non d ame     -32.168  16.155  29.456  0.00  0.00    -0.123 NA
BRANCH  21  25
ATOM     25  C3  non d ame     -32.564  19.551  28.226  0.00  0.00    -0.029 C 
ATOM     26  H2  non d ame     -33.444  19.812  27.638  0.00  0.00     0.036 H 
ATOM     27  H3  non d ame     -32.587  20.095  29.171  0.00  0.00     0.036 H 
ATOM     28  H4  non d ame     -31.665  19.821  27.674  0.00  0.00     0.036 H 
ENDBRANCH  21  25
ENDBRANCH  16  19
ENDBRANCH  13  15
BRANCH  13  29
ATOM     29  C8  non d ame     -32.248  11.357  27.195  0.00  0.00    -0.049 C 
ATOM     30  H7  non d ame     -31.286  11.148  27.662  0.00  0.00     0.030 H 
ATOM     31  H8  non d ame     -32.658  10.436  26.782  0.00  0.00     0.030 H 
ATOM     32  H9  non d ame     -32.112  12.086  26.395  0.00  0.00     0.030 H 
ENDBRANCH  13  29
ENDBRANCH  10  13
ENDBRANCH   7   9
BRANCH   7  33
ATOM     33  C11 non d ame     -35.563   9.694  31.842  0.00  0.00    -0.033 C 
ATOM     34  H12 non d ame     -35.688   8.909  32.587  0.00  0.00     0.042 H 
BRANCH  33  35
ATOM     35  C12 non d ame     -35.243  11.018  32.604  0.00  0.00    -0.071 C 
ATOM     36  H13 non d ame     -34.982  11.796  31.887  0.00  0.00     0.028 H 
ATOM     37  H14 non d ame     -36.117  11.329  33.176  0.00  0.00     0.028 H 
ATOM     38  H15 non d ame     -34.405  10.854  33.281  0.00  0.00     0.028 H 
ENDBRANCH  33  35
BRANCH  33  39
ATOM     39  C13 non d ame     -36.896   9.812  31.036  0.00  0.00    -0.071 C 
ATOM     40  H16 non d ame     -37.462   8.885  31.132  0.00  0.00     0.028 H 
ATOM     41  H17 non d ame     -37.486  10.641  31.428  0.00  0.00     0.028 H 
ATOM     42  H18 non d ame     -36.671   9.993  29.985  0.00  0.00     0.028 H 
ENDBRANCH  33  39
ENDBRANCH   7  33
ENDBRANCH   4   7
ENDBRANCH   1   3
BRANCH   1  43
ATOM     43  C15 non d ame     -33.444   5.776  27.535  0.00  0.00     0.240 C 
ATOM     44  O5  non d ame     -32.514   5.101  27.840  0.00  0.00    -0.271 OA
ATOM     45  N6  non d ame     -33.557   6.296  26.143  0.00  0.00    -0.355 N 
ATOM     46  H46 non d ame     -34.346   6.866  25.870  0.00  0.00     0.162 HD
BRANCH  45  47
ATOM     47  C20 non d ame     -32.506   5.976  25.153  0.00  0.00     0.013 C 
ATOM     48  H30 non d ame     -31.873   5.196  25.578  0.00  0.00     0.072 H 
BRANCH  47  49
ATOM     49  C21 non d ame     -31.686   7.215  24.876  0.00  0.00    -0.038 C 
ATOM     50  H31 non d ame     -31.106   7.393  25.783  0.00  0.00     0.036 H 
ATOM     51  H32 non d ame     -31.175   7.025  23.932  0.00  0.00     0.036 H 
BRANCH  49  52
ATOM     52  C22 non d ame     -32.555   8.473  24.658  0.00  0.00     0.018 C 
ATOM     53  H33 non d ame     -33.527   8.107  24.333  0.00  0.00     0.048 H 
ATOM     54  H34 non d ame     -32.470   9.053  25.578  0.00  0.00     0.048 H 
BRANCH  52  55
ATOM     55  C23 non d ame     -32.042   9.398  23.520  0.00  0.00     0.259 C 
ATOM     56  O7  non d ame     -32.139   9.065  22.383  0.00  0.00    -0.265 OA
BRANCH  55  57
ATOM     57  O8  non d ame     -31.442  10.645  23.852  0.00  0.00    -0.317 OA
BRANCH  57  58
ATOM     58  C29 non d ame     -30.343  11.005  23.010  0.00  0.00     0.052 C 
ATOM     59  H47 non d ame     -29.455  10.599  23.493  0.00  0.00     0.082 H 
ATOM     60  H48 non d ame     -30.618  10.675  22.008  0.00  0.00     0.082 H 
BRANCH  58  61
ATOM     61  C35 non d ame     -30.234  12.553  23.002  0.00  0.00    -0.034 A 
ATOM     62  C30 non d ame     -30.887  13.302  23.977  0.00  0.00    -0.075 A 
ATOM     63  C31 non d ame     -30.790  14.693  23.970  0.00  0.00    -0.082 A 
ATOM     64  H49 non d ame     -31.476  12.800  24.744  0.00  0.00     0.084 H 
ATOM     65  C32 non d ame     -30.036  15.335  22.984  0.00  0.00    -0.083 A 
ATOM     66  H50 non d ame     -31.301  15.277  24.736  0.00  0.00     0.083 H 
ATOM     67  C33 non d ame     -29.390  14.584  22.012  0.00  0.00    -0.082 A 
ATOM     68  H51 non d ame     -29.954  16.422  22.972  0.00  0.00     0.083 H 
ATOM     69  C34 non d ame     -29.483  13.194  22.015  0.00  0.00    -0.075 A 
ATOM     70  H52 non d ame     -28.804  15.088  21.242  0.00  0.00     0.083 H 
ATOM     71  H53 non d ame     -28.971  12.611  21.250  0.00  0.00     0.084 H 
ENDBRANCH  58  61
ENDBRANCH  57  58
ENDBRANCH  55  57
ENDBRANCH  52  55
ENDBRANCH  49  52
ENDBRANCH  47  49
BRANCH  47  72
ATOM     72  C24 non d ame     -33.149   5.489  23.856  0.00  0.00    -0.039 C 
ATOM     73  H35 non d ame     -32.817   6.188  23.088  0.00  0.00     0.036 H 
ATOM     74  H36 non d ame     -32.888   4.433  23.781  0.00  0.00     0.036 H 
BRANCH  72  75
ATOM     75  C25 non d ame     -34.747   5.577  23.917  0.00  0.00    -0.001 C 
ATOM     76  C26 non d ame     -35.394   4.068  23.843  0.00  0.00    -0.035 C 
ATOM     77  C27 non d ame     -36.338   4.044  22.871  0.00  0.00     0.085 C 
ATOM     78  H38 non d ame     -34.648   3.357  23.491  0.00  0.00     0.036 H 
ATOM     79  H39 non d ame     -35.960   3.858  24.751  0.00  0.00     0.036 H 
ATOM     80  N5  non d ame     -36.163   5.304  22.056  0.00  0.00    -0.049 N 
ATOM     81  H40 non d ame     -36.093   3.182  22.250  0.00  0.00     0.075 H 
ATOM     82  H41 non d ame     -37.293   4.087  23.391  0.00  0.00     0.075 H 
ATOM     83  C28 non d ame     -35.214   6.272  22.934  0.00  0.00     0.193 C 
ATOM     84  H42 non d ame     -35.664   5.037  21.220  0.00  0.00     0.280 HD
ATOM     85  H43 non d ame     -37.078   5.727  21.986  0.00  0.00     0.280 HD
ATOM     86  H44 non d ame     -35.637   7.120  23.473  0.00  0.00     0.129 H 
ATOM     87  H37 non d ame     -35.094   6.227  24.720  0.00  0.00     0.046 H 
BRANCH  83  88
ATOM     88  O6  non d ame     -34.176   6.817  22.117  0.00  0.00    -0.369 OA
ATOM     89  H45 non d ame     -34.450   7.674  21.781  0.00  0.00     0.212 HD
ENDBRANCH  83  88
ENDBRANCH  72  75
ENDBRANCH  47  72
ENDBRANCH  45  47
ENDBRANCH   1  43
BRANCH   1  90
ATOM     90  C16 non d ame     -35.916   5.952  27.957  0.00  0.00    -0.035 C 
ATOM     91  H21 non d ame     -36.371   6.939  28.018  0.00  0.00     0.037 H 
ATOM     92  H22 non d ame     -35.739   5.491  26.985  0.00  0.00     0.037 H 
BRANCH  90  93
ATOM     93  C17 non d ame     -36.861   4.983  28.739  0.00  0.00    -0.059 C 
ATOM     94  H23 non d ame     -36.234   4.316  29.330  0.00  0.00     0.038 H 
BRANCH  93  95
ATOM     95  C18 non d ame     -37.804   5.746  29.722  0.00  0.00    -0.073 C 
ATOM     96  H24 non d ame     -37.355   5.767  30.715  0.00  0.00     0.028 H 
ATOM     97  H25 non d ame     -37.950   6.766  29.369  0.00  0.00     0.028 H 
ATOM     98  H26 non d ame     -38.767   5.237  29.771  0.00  0.00     0.028 H 
ENDBRANCH  93  95
BRANCH  93  99
ATOM     99  C19 non d ame     -37.670   4.112  27.774  0.00  0.00    -0.073 C 
ATOM    100  H27 non d ame     -37.149   3.167  27.615  0.00  0.00     0.028 H 
ATOM    101  H28 non d ame     -38.655   3.916  28.199  0.00  0.00     0.028 H 
ATOM    102  H29 non d ame     -37.782   4.631  26.822  0.00  0.00     0.028 H 
ENDBRANCH  93  99
ENDBRANCH  90  93
ENDBRANCH   1  90
TORSDOF 26
ENDMDL
MODEL 12
REMARK VINA RESULT:      -6.6      4.092     10.197
REMARK  26 active torsions:
REMARK  status: ('A' for Active; 'I' for Inactive)
REMARK    1  A    between atoms: C2_2  and  C3_3 
REMARK    2  A    between atoms: C4_6  and  C5_7 
REMARK       I    between atoms: C5_7  and  N2_9 
REMARK    3  A    between atoms: N2_9  and  C6_10 
REMARK    4  A    between atoms: C6_10  and  C7_11 
REMARK    5  A    between atoms: C6_10  and  C8_13 
REMARK       I    between atoms: C7_11  and  N3_14 
REMARK    6  A    between atoms: N3_14  and  C9_15 
REMARK    7  A    between atoms: C9_15  and  C10_16 
REMARK    8  A    between atoms: C9_15  and  C11_18 
REMARK       I    between atoms: C10_16  and  N4_21 
REMARK    9  A    between atoms: C11_18  and  C12_19 
REMARK   10  A    between atoms: C11_18  and  C13_20 
REMARK   11  A    between atoms: N4_21  and  C14_22 
REMARK   12  A    between atoms: C14_22  and  C15_23 
REMARK   13  A    between atoms: C14_22  and  C16_25 
REMARK       I    between atoms: C15_23  and  N6_40 
REMARK   14  A    between atoms: C16_25  and  C17_26 
REMARK   15  A    between atoms: C17_26  and  C18_27 
REMARK   16  A    between atoms: C17_26  and  C19_28 
REMARK   17  A    between atoms: C20_29  and  C21_30 
REMARK   18  A    between atoms: C20_29  and  C24_33 
REMARK   19  A    between atoms: C20_29  and  N6_40 
REMARK   20  A    between atoms: C21_30  and  C22_31 
REMARK   21  A    between atoms: C22_31  and  C23_32 
REMARK   22  A    between atoms: C23_32  and  O8_43 
REMARK   23  A    between atoms: C24_33  and  C25_34 
REMARK   24  A    between atoms: C28_38  and  O6_39 
REMARK   25  A    between atoms: C29_42  and  O8_43 
REMARK   26  A    between atoms: C29_42  and  C35_49 
ROOT
ATOM      1  C14 non d ame     -31.699  15.158  24.278  0.00  0.00     0.089 C 
ATOM      2  H20 non d ame     -32.441  14.730  23.604  0.00  0.00     0.087 H 
ENDROOT
BRANCH   1   3
ATOM      3  N4  non d ame     -32.188  16.463  24.698  0.00  0.00    -0.346 N 
ATOM      4  C10 non d ame     -33.644  16.657  25.037  0.00  0.00     0.241 C 
ATOM      5  O4  non d ame     -34.404  15.749  24.964  0.00  0.00    -0.271 OA
ATOM      6  H19 non d ame     -31.526  17.224  24.751  0.00  0.00     0.163 HD
BRANCH   4   7
ATOM      7  C9  non d ame     -34.133  18.013  25.474  0.00  0.00     0.092 C 
ATOM      8  H11 non d ame     -34.110  18.694  24.624  0.00  0.00     0.088 H 
BRANCH   7   9
ATOM      9  N3  non d ame     -35.529  17.913  25.911  0.00  0.00    -0.346 N 
ATOM     10  C7  non d ame     -36.515  18.826  25.388  0.00  0.00     0.240 C 
ATOM     11  O3  non d ame     -36.203  19.648  24.615  0.00  0.00    -0.271 OA
ATOM     12  H10 non d ame     -35.813  17.209  26.578  0.00  0.00     0.163 HD
BRANCH  10  13
ATOM     13  C6  non d ame     -37.999  18.716  25.858  0.00  0.00     0.086 C 
ATOM     14  H6  non d ame     -38.375  17.693  25.831  0.00  0.00     0.086 H 
BRANCH  13  15
ATOM     15  N2  non d ame     -38.089  19.155  27.241  0.00  0.00    -0.343 N 
ATOM     16  C5  non d ame     -37.960  18.173  28.320  0.00  0.00     0.273 C 
ATOM     17  O2  non d ame     -37.787  17.032  28.065  0.00  0.00    -0.266 OA
ATOM     18  H5  non d ame     -38.240  20.132  27.449  0.00  0.00     0.163 HD
BRANCH  16  19
ATOM     19  C4  non d ame     -38.053  18.624  29.786  0.00  0.00     0.154 A 
ATOM     20  C1  non d ame     -37.196  19.548  30.462  0.00  0.00    -0.017 A 
ATOM     21  C2  non d ame     -37.702  19.617  31.779  0.00  0.00     0.077 A 
ATOM     22  H1  non d ame     -36.338  20.087  30.059  0.00  0.00     0.091 H 
ATOM     23  O1  non d ame     -38.730  18.823  31.841  0.00  0.00    -0.218 OA
ATOM     24  N1  non d ame     -38.955  18.232  30.690  0.00  0.00    -0.123 NA
BRANCH  21  25
ATOM     25  C3  non d ame     -37.147  20.465  32.916  0.00  0.00    -0.029 C 
ATOM     26  H2  non d ame     -37.177  21.517  32.632  0.00  0.00     0.036 H 
ATOM     27  H3  non d ame     -37.752  20.315  33.810  0.00  0.00     0.036 H 
ATOM     28  H4  non d ame     -36.118  20.172  33.120  0.00  0.00     0.036 H 
ENDBRANCH  21  25
ENDBRANCH  16  19
ENDBRANCH  13  15
BRANCH  13  29
ATOM     29  C8  non d ame     -38.871  19.579  24.983  0.00  0.00    -0.049 C 
ATOM     30  H7  non d ame     -39.250  20.419  25.564  0.00  0.00     0.030 H 
ATOM     31  H8  non d ame     -38.287  19.953  24.143  0.00  0.00     0.030 H 
ATOM     32  H9  non d ame     -39.709  18.988  24.610  0.00  0.00     0.030 H 
ENDBRANCH  13  29
ENDBRANCH  10  13
ENDBRANCH   7   9
BRANCH   7  33
ATOM     33  C11 non d ame     -33.258  18.523  26.658  0.00  0.00    -0.033 C 
ATOM     34  H12 non d ame     -32.350  17.922  26.677  0.00  0.00     0.042 H 
BRANCH  33  35
ATOM     35  C12 non d ame     -32.833  20.010  26.450  0.00  0.00    -0.071 C 
ATOM     36  H13 non d ame     -33.287  20.393  25.535  0.00  0.00     0.028 H 
ATOM     37  H14 non d ame     -33.166  20.606  27.298  0.00  0.00     0.028 H 
ATOM     38  H15 non d ame     -31.748  20.069  26.366  0.00  0.00     0.028 H 
ENDBRANCH  33  35
BRANCH  33  39
ATOM     39  C13 non d ame     -33.995  18.330  28.021  0.00  0.00    -0.071 C 
ATOM     40  H16 non d ame     -35.071  18.298  27.852  0.00  0.00     0.028 H 
ATOM     41  H17 non d ame     -33.671  17.395  28.481  0.00  0.00     0.028 H 
ATOM     42  H18 non d ame     -33.757  19.161  28.685  0.00  0.00     0.028 H 
ENDBRANCH  33  39
ENDBRANCH   7  33
ENDBRANCH   4   7
ENDBRANCH   1   3
BRANCH   1  43
ATOM     43  C15 non d ame     -31.482  14.280  25.545  0.00  0.00     0.240 C 
ATOM     44  O5  non d ame     -30.881  14.718  26.472  0.00  0.00    -0.271 OA
ATOM     45  N6  non d ame     -32.032  12.896  25.606  0.00  0.00    -0.355 N 
ATOM     46  H46 non d ame     -32.548  12.515  24.826  0.00  0.00     0.162 HD
BRANCH  45  47
ATOM     47  C20 non d ame     -31.818  12.075  26.817  0.00  0.00     0.013 C 
ATOM     48  H30 non d ame     -30.851  12.348  27.239  0.00  0.00     0.072 H 
BRANCH  47  49
ATOM     49  C21 non d ame     -31.823  10.612  26.437  0.00  0.00    -0.038 C 
ATOM     50  H31 non d ame     -30.818  10.399  26.071  0.00  0.00     0.036 H 
ATOM     51  H32 non d ame     -32.209  10.083  27.308  0.00  0.00     0.036 H 
BRANCH  49  52
ATOM     52  C22 non d ame     -32.788  10.299  25.272  0.00  0.00     0.018 C 
ATOM     53  H33 non d ame     -33.565   9.663  25.696  0.00  0.00     0.048 H 
ATOM     54  H34 non d ame     -33.049  11.264  24.838  0.00  0.00     0.048 H 
BRANCH  52  55
ATOM     55  C23 non d ame     -32.139   9.475  24.126  0.00  0.00     0.259 C 
ATOM     56  O7  non d ame     -31.285   9.951  23.450  0.00  0.00    -0.265 OA
BRANCH  55  57
ATOM     57  O8  non d ame     -32.587   8.147  23.882  0.00  0.00    -0.317 OA
BRANCH  57  58
ATOM     58  C29 non d ame     -31.613   7.141  24.173  0.00  0.00     0.052 C 
ATOM     59  H47 non d ame     -31.466   6.593  23.243  0.00  0.00     0.082 H 
ATOM     60  H48 non d ame     -30.777   7.664  24.636  0.00  0.00     0.082 H 
BRANCH  58  61
ATOM     61  C35 non d ame     -32.224   6.173  25.222  0.00  0.00    -0.034 A 
ATOM     62  C30 non d ame     -32.052   6.419  26.580  0.00  0.00    -0.075 A 
ATOM     63  C31 non d ame     -32.601   5.549  27.522  0.00  0.00    -0.082 A 
ATOM     64  H49 non d ame     -31.487   7.292  26.908  0.00  0.00     0.084 H 
ATOM     65  C32 non d ame     -33.322   4.430  27.101  0.00  0.00    -0.083 A 
ATOM     66  H50 non d ame     -32.466   5.746  28.587  0.00  0.00     0.083 H 
ATOM     67  C33 non d ame     -33.488   4.186  25.744  0.00  0.00    -0.082 A 
ATOM     68  H51 non d ame     -33.756   3.745  27.831  0.00  0.00     0.083 H 
ATOM     69  C34 non d ame     -32.943   5.053  24.800  0.00  0.00    -0.075 A 
ATOM     70  H52 non d ame     -34.050   3.310  25.419  0.00  0.00     0.083 H 
ATOM     71  H53 non d ame     -33.079   4.856  23.736  0.00  0.00     0.084 H 
ENDBRANCH  58  61
ENDBRANCH  57  58
ENDBRANCH  55  57
ENDBRANCH  52  55
ENDBRANCH  49  52
ENDBRANCH  47  49
BRANCH  47  72
ATOM     72  C24 non d ame     -32.932  12.345  27.826  0.00  0.00    -0.039 C 
ATOM     73  H35 non d ame     -33.512  13.166  27.405  0.00  0.00     0.036 H 
ATOM     74  H36 non d ame     -33.404  11.378  28.002  0.00  0.00     0.036 H 
BRANCH  72  75
ATOM     75  C25 non d ame     -32.350  12.848  29.231  0.00  0.00    -0.001 C 
ATOM     76  C26 non d ame     -30.734  12.557  29.304  0.00  0.00    -0.035 C 
ATOM     77  C27 non d ame     -30.459  11.899  30.456  0.00  0.00     0.085 C 
ATOM     78  H38 non d ame     -30.446  11.847  28.530  0.00  0.00     0.036 H 
ATOM     79  H39 non d ame     -30.189  13.496  29.412  0.00  0.00     0.036 H 
ATOM     80  N5  non d ame     -31.779  11.426  31.017  0.00  0.00    -0.049 N 
ATOM     81  H40 non d ame     -29.866  11.033  30.162  0.00  0.00     0.075 H 
ATOM     82  H41 non d ame     -30.036  12.647  31.125  0.00  0.00     0.075 H 
ATOM     83  C28 non d ame     -32.920  12.240  30.218  0.00  0.00     0.193 C 
ATOM     84  H42 non d ame     -31.856  10.448  30.780  0.00  0.00     0.280 HD
ATOM     85  H43 non d ame     -31.796  11.714  31.986  0.00  0.00     0.280 HD
ATOM     86  H44 non d ame     -33.438  13.075  30.691  0.00  0.00     0.129 H 
ATOM     87  H37 non d ame     -32.684  13.855  29.479  0.00  0.00     0.046 H 
BRANCH  83  88
ATOM     88  O6  non d ame     -33.948  11.350  29.781  0.00  0.00    -0.369 OA
ATOM     89  H45 non d ame     -34.523  11.138  30.520  0.00  0.00     0.212 HD
ENDBRANCH  83  88
ENDBRANCH  72  75
ENDBRANCH  47  72
ENDBRANCH  45  47
ENDBRANCH   1  43
BRANCH   1  90
ATOM     90  C16 non d ame     -30.378  15.334  23.547  0.00  0.00    -0.035 C 
ATOM     91  H21 non d ame     -30.273  16.408  23.396  0.00  0.00     0.037 H 
ATOM     92  H22 non d ame     -29.644  14.792  24.143  0.00  0.00     0.037 H 
BRANCH  90  93
ATOM     93  C17 non d ame     -30.359  14.686  22.125  0.00  0.00    -0.059 C 
ATOM     94  H23 non d ame     -31.309  14.172  21.984  0.00  0.00     0.038 H 
BRANCH  93  95
ATOM     95  C18 non d ame     -30.222  15.753  20.993  0.00  0.00    -0.073 C 
ATOM     96  H24 non d ame     -31.138  16.341  20.934  0.00  0.00     0.028 H 
ATOM     97  H25 non d ame     -29.382  16.411  21.213  0.00  0.00     0.028 H 
ATOM     98  H26 non d ame     -30.051  15.251  20.040  0.00  0.00     0.028 H 
ENDBRANCH  93  95
BRANCH  93  99
ATOM     99  C19 non d ame     -29.251  13.634  22.019  0.00  0.00    -0.073 C 
ATOM    100  H27 non d ame     -28.951  13.527  20.976  0.00  0.00     0.028 H 
ATOM    101  H28 non d ame     -28.392  13.948  22.612  0.00  0.00     0.028 H 
ATOM    102  H29 non d ame     -29.620  12.679  22.391  0.00  0.00     0.028 H 
ENDBRANCH  93  99
ENDBRANCH  90  93
ENDBRANCH   1  90
TORSDOF 26
ENDMDL
MODEL 13
REMARK VINA RESULT:      -6.6      2.964      9.296
REMARK  26 active torsions:
REMARK  status: ('A' for Active; 'I' for Inactive)
REMARK    1  A    between atoms: C2_2  and  C3_3 
REMARK    2  A    between atoms: C4_6  and  C5_7 
REMARK       I    between atoms: C5_7  and  N2_9 
REMARK    3  A    between atoms: N2_9  and  C6_10 
REMARK    4  A    between atoms: C6_10  and  C7_11 
REMARK    5  A    between atoms: C6_10  and  C8_13 
REMARK       I    between atoms: C7_11  and  N3_14 
REMARK    6  A    between atoms: N3_14  and  C9_15 
REMARK    7  A    between atoms: C9_15  and  C10_16 
REMARK    8  A    between atoms: C9_15  and  C11_18 
REMARK       I    between atoms: C10_16  and  N4_21 
REMARK    9  A    between atoms: C11_18  and  C12_19 
REMARK   10  A    between atoms: C11_18  and  C13_20 
REMARK   11  A    between atoms: N4_21  and  C14_22 
REMARK   12  A    between atoms: C14_22  and  C15_23 
REMARK   13  A    between atoms: C14_22  and  C16_25 
REMARK       I    between atoms: C15_23  and  N6_40 
REMARK   14  A    between atoms: C16_25  and  C17_26 
REMARK   15  A    between atoms: C17_26  and  C18_27 
REMARK   16  A    between atoms: C17_26  and  C19_28 
REMARK   17  A    between atoms: C20_29  and  C21_30 
REMARK   18  A    between atoms: C20_29  and  C24_33 
REMARK   19  A    between atoms: C20_29  and  N6_40 
REMARK   20  A    between atoms: C21_30  and  C22_31 
REMARK   21  A    between atoms: C22_31  and  C23_32 
REMARK   22  A    between atoms: C23_32  and  O8_43 
REMARK   23  A    between atoms: C24_33  and  C25_34 
REMARK   24  A    between atoms: C28_38  and  O6_39 
REMARK   25  A    between atoms: C29_42  and  O8_43 
REMARK   26  A    between atoms: C29_42  and  C35_49 
ROOT
ATOM      1  C14 non d ame     -36.272  12.891  26.027  0.00  0.00     0.089 C 
ATOM      2  H20 non d ame     -36.887  13.449  26.733  0.00  0.00     0.087 H 
ENDROOT
BRANCH   1   3
ATOM      3  N4  non d ame     -35.254  13.799  25.520  0.00  0.00    -0.346 N 
ATOM      4  C10 non d ame     -34.677  14.870  26.409  0.00  0.00     0.241 C 
ATOM      5  O4  non d ame     -35.049  14.985  27.531  0.00  0.00    -0.271 OA
ATOM      6  H19 non d ame     -34.953  13.687  24.562  0.00  0.00     0.163 HD
BRANCH   4   7
ATOM      7  C9  non d ame     -33.621  15.799  25.869  0.00  0.00     0.092 C 
ATOM      8  H11 non d ame     -32.868  15.972  26.638  0.00  0.00     0.088 H 
BRANCH   7   9
ATOM      9  N3  non d ame     -32.943  15.162  24.736  0.00  0.00    -0.346 N 
ATOM     10  C7  non d ame     -31.537  15.394  24.514  0.00  0.00     0.240 C 
ATOM     11  O3  non d ame     -30.936  16.090  25.238  0.00  0.00    -0.271 OA
ATOM     12  H10 non d ame     -33.450  14.560  24.102  0.00  0.00     0.163 HD
BRANCH  10  13
ATOM     13  C6  non d ame     -30.822  14.716  23.304  0.00  0.00     0.086 C 
ATOM     14  H6  non d ame     -29.748  14.902  23.291  0.00  0.00     0.086 H 
BRANCH  13  15
ATOM     15  N2  non d ame     -30.993  13.276  23.401  0.00  0.00    -0.343 N 
ATOM     16  C5  non d ame     -30.084  12.391  22.671  0.00  0.00     0.273 C 
ATOM     17  O2  non d ame     -29.219  12.847  22.006  0.00  0.00    -0.266 OA
ATOM     18  H5  non d ame     -31.737  12.896  23.969  0.00  0.00     0.163 HD
BRANCH  16  19
ATOM     19  C4  non d ame     -30.253  10.866  22.765  0.00  0.00     0.154 A 
ATOM     20  C1  non d ame     -31.421  10.150  23.176  0.00  0.00    -0.017 A 
ATOM     21  C2  non d ame     -31.061   8.787  23.088  0.00  0.00     0.077 A 
ATOM     22  H1  non d ame     -32.383  10.557  23.489  0.00  0.00     0.091 H 
ATOM     23  O1  non d ame     -29.829   8.737  22.674  0.00  0.00    -0.218 OA
ATOM     24  N1  non d ame     -29.336   9.939  22.478  0.00  0.00    -0.123 NA
BRANCH  21  25
ATOM     25  C3  non d ame     -31.951   7.596  23.416  0.00  0.00    -0.029 C 
ATOM     26  H2  non d ame     -32.982   7.931  23.523  0.00  0.00     0.036 H 
ATOM     27  H3  non d ame     -31.891   6.864  22.611  0.00  0.00     0.036 H 
ATOM     28  H4  non d ame     -31.619   7.139  24.348  0.00  0.00     0.036 H 
ENDBRANCH  21  25
ENDBRANCH  16  19
ENDBRANCH  13  15
BRANCH  13  29
ATOM     29  C8  non d ame     -31.419  15.223  22.016  0.00  0.00    -0.049 C 
ATOM     30  H7  non d ame     -30.861  16.093  21.673  0.00  0.00     0.030 H 
ATOM     31  H8  non d ame     -31.370  14.440  21.260  0.00  0.00     0.030 H 
ATOM     32  H9  non d ame     -32.461  15.502  22.184  0.00  0.00     0.030 H 
ENDBRANCH  13  29
ENDBRANCH  10  13
ENDBRANCH   7   9
BRANCH   7  33
ATOM     33  C11 non d ame     -34.288  17.123  25.394  0.00  0.00    -0.033 C 
ATOM     34  H12 non d ame     -33.873  17.368  24.417  0.00  0.00     0.042 H 
BRANCH  33  35
ATOM     35  C12 non d ame     -35.829  16.949  25.217  0.00  0.00    -0.071 C 
ATOM     36  H13 non d ame     -36.240  17.832  24.726  0.00  0.00     0.028 H 
ATOM     37  H14 non d ame     -36.029  16.068  24.609  0.00  0.00     0.028 H 
ATOM     38  H15 non d ame     -36.296  16.830  26.195  0.00  0.00     0.028 H 
ENDBRANCH  33  35
BRANCH  33  39
ATOM     39  C13 non d ame     -33.958  18.298  26.368  0.00  0.00    -0.071 C 
ATOM     40  H16 non d ame     -33.278  18.995  25.879  0.00  0.00     0.028 H 
ATOM     41  H17 non d ame     -34.879  18.815  26.640  0.00  0.00     0.028 H 
ATOM     42  H18 non d ame     -33.487  17.902  27.268  0.00  0.00     0.028 H 
ENDBRANCH  33  39
ENDBRANCH   7  33
ENDBRANCH   4   7
ENDBRANCH   1   3
BRANCH   1  43
ATOM     43  C15 non d ame     -35.564  11.678  26.697  0.00  0.00     0.240 C 
ATOM     44  O5  non d ame     -35.527  10.632  26.136  0.00  0.00    -0.271 OA
ATOM     45  N6  non d ame     -34.924  11.825  28.035  0.00  0.00    -0.355 N 
ATOM     46  H46 non d ame     -34.945  12.711  28.520  0.00  0.00     0.162 HD
BRANCH  45  47
ATOM     47  C20 non d ame     -34.254  10.662  28.658  0.00  0.00     0.013 C 
ATOM     48  H30 non d ame     -34.194   9.871  27.911  0.00  0.00     0.072 H 
BRANCH  47  49
ATOM     49  C21 non d ame     -35.066  10.194  29.845  0.00  0.00    -0.038 C 
ATOM     50  H31 non d ame     -34.371  10.169  30.685  0.00  0.00     0.036 H 
ATOM     51  H32 non d ame     -35.939  10.846  29.879  0.00  0.00     0.036 H 
BRANCH  49  52
ATOM     52  C22 non d ame     -35.601   8.756  29.675  0.00  0.00     0.018 C 
ATOM     53  H33 non d ame     -36.685   8.835  29.742  0.00  0.00     0.048 H 
ATOM     54  H34 non d ame     -35.136   8.374  28.766  0.00  0.00     0.048 H 
BRANCH  52  55
ATOM     55  C23 non d ame     -35.171   7.790  30.813  0.00  0.00     0.259 C 
ATOM     56  O7  non d ame     -34.874   8.213  31.884  0.00  0.00    -0.265 OA
BRANCH  55  57
ATOM     57  O8  non d ame     -35.121   6.391  30.559  0.00  0.00    -0.317 OA
BRANCH  57  58
ATOM     58  C29 non d ame     -35.221   5.581  31.734  0.00  0.00     0.052 C 
ATOM     59  H47 non d ame     -35.099   6.264  32.574  0.00  0.00     0.082 H 
ATOM     60  H48 non d ame     -36.143   5.011  31.623  0.00  0.00     0.082 H 
BRANCH  58  61
ATOM     61  C35 non d ame     -34.028   4.587  31.732  0.00  0.00    -0.034 A 
ATOM     62  C30 non d ame     -33.691   3.903  32.896  0.00  0.00    -0.075 A 
ATOM     63  C31 non d ame     -32.620   3.010  32.895  0.00  0.00    -0.082 A 
ATOM     64  H49 non d ame     -34.264   4.066  33.809  0.00  0.00     0.084 H 
ATOM     65  C32 non d ame     -31.884   2.804  31.724  0.00  0.00    -0.083 A 
ATOM     66  H50 non d ame     -32.358   2.474  33.808  0.00  0.00     0.083 H 
ATOM     67  C33 non d ame     -32.223   3.492  30.567  0.00  0.00    -0.082 A 
ATOM     68  H51 non d ame     -31.046   2.107  31.715  0.00  0.00     0.083 H 
ATOM     69  C34 non d ame     -33.293   4.383  30.563  0.00  0.00    -0.075 A 
ATOM     70  H52 non d ame     -31.645   3.331  29.656  0.00  0.00     0.083 H 
ATOM     71  H53 non d ame     -33.554   4.918  29.650  0.00  0.00     0.084 H 
ENDBRANCH  58  61
ENDBRANCH  57  58
ENDBRANCH  55  57
ENDBRANCH  52  55
ENDBRANCH  49  52
ENDBRANCH  47  49
BRANCH  47  72
ATOM     72  C24 non d ame     -32.855  11.061  29.122  0.00  0.00    -0.039 C 
ATOM     73  H35 non d ame     -32.866  10.949  30.207  0.00  0.00     0.036 H 
ATOM     74  H36 non d ame     -32.169  10.464  28.520  0.00  0.00     0.036 H 
BRANCH  72  75
ATOM     75  C25 non d ame     -32.542  12.600  28.809  0.00  0.00    -0.001 C 
ATOM     76  C26 non d ame     -31.069  12.737  28.090  0.00  0.00    -0.035 C 
ATOM     77  C27 non d ame     -30.341  13.664  28.758  0.00  0.00     0.085 C 
ATOM     78  H38 non d ame     -30.499  11.818  28.227  0.00  0.00     0.036 H 
ATOM     79  H39 non d ame     -31.177  13.167  27.094  0.00  0.00     0.036 H 
ATOM     80  N5  non d ame     -31.059  13.933  30.060  0.00  0.00    -0.049 N 
ATOM     81  H40 non d ame     -29.386  13.185  28.971  0.00  0.00     0.075 H 
ATOM     82  H41 non d ame     -30.376  14.561  28.141  0.00  0.00     0.075 H 
ATOM     83  C28 non d ame     -32.536  13.305  29.891  0.00  0.00     0.193 C 
ATOM     84  H42 non d ame     -30.567  13.412  30.770  0.00  0.00     0.280 HD
ATOM     85  H43 non d ame     -31.142  14.937  30.136  0.00  0.00     0.280 HD
ATOM     86  H44 non d ame     -33.395  13.952  29.710  0.00  0.00     0.129 H 
ATOM     87  H37 non d ame     -33.379  13.101  28.324  0.00  0.00     0.046 H 
BRANCH  83  88
ATOM     88  O6  non d ame     -32.876  12.529  31.041  0.00  0.00    -0.369 OA
ATOM     89  H45 non d ame     -32.275  12.742  31.760  0.00  0.00     0.212 HD
ENDBRANCH  83  88
ENDBRANCH  72  75
ENDBRANCH  47  72
ENDBRANCH  45  47
ENDBRANCH   1  43
BRANCH   1  90
ATOM     90  C16 non d ame     -37.128  12.406  24.868  0.00  0.00    -0.035 C 
ATOM     91  H21 non d ame     -36.423  12.069  24.110  0.00  0.00     0.037 H 
ATOM     92  H22 non d ame     -37.836  11.703  25.307  0.00  0.00     0.037 H 
BRANCH  90  93
ATOM     93  C17 non d ame     -37.980  13.535  24.204  0.00  0.00    -0.059 C 
ATOM     94  H23 non d ame     -37.696  14.480  24.669  0.00  0.00     0.038 H 
BRANCH  93  95
ATOM     95  C18 non d ame     -37.706  13.657  22.671  0.00  0.00    -0.073 C 
ATOM     96  H24 non d ame     -36.696  14.037  22.511  0.00  0.00     0.028 H 
ATOM     97  H25 non d ame     -37.802  12.676  22.206  0.00  0.00     0.028 H 
ATOM     98  H26 non d ame     -38.426  14.343  22.227  0.00  0.00     0.028 H 
ENDBRANCH  93  95
BRANCH  93  99
ATOM     99  C19 non d ame     -39.472  13.325  24.475  0.00  0.00    -0.073 C 
ATOM    100  H27 non d ame     -39.812  12.426  23.959  0.00  0.00     0.028 H 
ATOM    101  H28 non d ame     -39.635  13.211  25.547  0.00  0.00     0.028 H 
ATOM    102  H29 non d ame     -40.032  14.186  24.112  0.00  0.00     0.028 H 
ENDBRANCH  93  99
ENDBRANCH  90  93
ENDBRANCH   1  90
TORSDOF 26
ENDMDL
MODEL 14
REMARK VINA RESULT:      -6.5      2.139      9.839
REMARK  26 active torsions:
REMARK  status: ('A' for Active; 'I' for Inactive)
REMARK    1  A    between atoms: C2_2  and  C3_3 
REMARK    2  A    between atoms: C4_6  and  C5_7 
REMARK       I    between atoms: C5_7  and  N2_9 
REMARK    3  A    between atoms: N2_9  and  C6_10 
REMARK    4  A    between atoms: C6_10  and  C7_11 
REMARK    5  A    between atoms: C6_10  and  C8_13 
REMARK       I    between atoms: C7_11  and  N3_14 
REMARK    6  A    between atoms: N3_14  and  C9_15 
REMARK    7  A    between atoms: C9_15  and  C10_16 
REMARK    8  A    between atoms: C9_15  and  C11_18 
REMARK       I    between atoms: C10_16  and  N4_21 
REMARK    9  A    between atoms: C11_18  and  C12_19 
REMARK   10  A    between atoms: C11_18  and  C13_20 
REMARK   11  A    between atoms: N4_21  and  C14_22 
REMARK   12  A    between atoms: C14_22  and  C15_23 
REMARK   13  A    between atoms: C14_22  and  C16_25 
REMARK       I    between atoms: C15_23  and  N6_40 
REMARK   14  A    between atoms: C16_25  and  C17_26 
REMARK   15  A    between atoms: C17_26  and  C18_27 
REMARK   16  A    between atoms: C17_26  and  C19_28 
REMARK   17  A    between atoms: C20_29  and  C21_30 
REMARK   18  A    between atoms: C20_29  and  C24_33 
REMARK   19  A    between atoms: C20_29  and  N6_40 
REMARK   20  A    between atoms: C21_30  and  C22_31 
REMARK   21  A    between atoms: C22_31  and  C23_32 
REMARK   22  A    between atoms: C23_32  and  O8_43 
REMARK   23  A    between atoms: C24_33  and  C25_34 
REMARK   24  A    between atoms: C28_38  and  O6_39 
REMARK   25  A    between atoms: C29_42  and  O8_43 
REMARK   26  A    between atoms: C29_42  and  C35_49 
ROOT
ATOM      1  C14 non d ame     -32.979  10.297  29.775  0.00  0.00     0.089 C 
ATOM      2  H20 non d ame     -32.095   9.708  29.529  0.00  0.00     0.087 H 
ENDROOT
BRANCH   1   3
ATOM      3  N4  non d ame     -33.634  10.649  28.523  0.00  0.00    -0.346 N 
ATOM      4  C10 non d ame     -33.130  10.090  27.217  0.00  0.00     0.241 C 
ATOM      5  O4  non d ame     -32.194   9.360  27.196  0.00  0.00    -0.271 OA
ATOM      6  H19 non d ame     -34.426  11.274  28.562  0.00  0.00     0.163 HD
BRANCH   4   7
ATOM      7  C9  non d ame     -33.822  10.462  25.932  0.00  0.00     0.092 C 
ATOM      8  H11 non d ame     -34.894  10.300  26.042  0.00  0.00     0.088 H 
BRANCH   7   9
ATOM      9  N3  non d ame     -33.624  11.890  25.664  0.00  0.00    -0.346 N 
ATOM     10  C7  non d ame     -34.557  12.857  26.187  0.00  0.00     0.240 C 
ATOM     11  O3  non d ame     -35.472  12.504  26.826  0.00  0.00    -0.271 OA
ATOM     12  H10 non d ame     -32.839  12.208  25.114  0.00  0.00     0.163 HD
BRANCH  10  13
ATOM     13  C6  non d ame     -34.342  14.375  25.897  0.00  0.00     0.086 C 
ATOM     14  H6  non d ame     -33.836  14.892  26.711  0.00  0.00     0.086 H 
BRANCH  13  15
ATOM     15  N2  non d ame     -33.495  14.516  24.724  0.00  0.00    -0.343 N 
ATOM     16  C5  non d ame     -32.178  15.142  24.857  0.00  0.00     0.273 C 
ATOM     17  O2  non d ame     -31.810  15.532  25.910  0.00  0.00    -0.266 OA
ATOM     18  H5  non d ame     -33.819  14.182  23.827  0.00  0.00     0.163 HD
BRANCH  16  19
ATOM     19  C4  non d ame     -31.272  15.296  23.625  0.00  0.00     0.154 A 
ATOM     20  C1  non d ame     -31.673  15.304  22.252  0.00  0.00    -0.017 A 
ATOM     21  C2  non d ame     -30.475  15.473  21.524  0.00  0.00     0.077 A 
ATOM     22  H1  non d ame     -32.680  15.203  21.846  0.00  0.00     0.091 H 
ATOM     23  O1  non d ame     -29.505  15.553  22.387  0.00  0.00    -0.218 OA
ATOM     24  N1  non d ame     -29.946  15.453  23.620  0.00  0.00    -0.123 NA
BRANCH  21  25
ATOM     25  C3  non d ame     -30.343  15.548  20.009  0.00  0.00    -0.029 C 
ATOM     26  H2  non d ame     -30.066  16.561  19.718  0.00  0.00     0.036 H 
ATOM     27  H3  non d ame     -29.571  14.853  19.676  0.00  0.00     0.036 H 
ATOM     28  H4  non d ame     -31.293  15.284  19.547  0.00  0.00     0.036 H 
ENDBRANCH  21  25
ENDBRANCH  16  19
ENDBRANCH  13  15
BRANCH  13  29
ATOM     29  C8  non d ame     -35.675  15.036  25.654  0.00  0.00    -0.049 C 
ATOM     30  H7  non d ame     -35.865  15.770  26.437  0.00  0.00     0.030 H 
ATOM     31  H8  non d ame     -35.663  15.534  24.685  0.00  0.00     0.030 H 
ATOM     32  H9  non d ame     -36.462  14.281  25.665  0.00  0.00     0.030 H 
ENDBRANCH  13  29
ENDBRANCH  10  13
ENDBRANCH   7   9
BRANCH   7  33
ATOM     33  C11 non d ame     -33.221   9.629  24.761  0.00  0.00    -0.033 C 
ATOM     34  H12 non d ame     -32.776   8.732  25.190  0.00  0.00     0.042 H 
BRANCH  33  35
ATOM     35  C12 non d ame     -34.330   9.172  23.762  0.00  0.00    -0.071 C 
ATOM     36  H13 non d ame     -35.261   9.691  23.991  0.00  0.00     0.028 H 
ATOM     37  H14 non d ame     -34.023   9.407  22.744  0.00  0.00     0.028 H 
ATOM     38  H15 non d ame     -34.483   8.097  23.857  0.00  0.00     0.028 H 
ENDBRANCH  33  35
BRANCH  33  39
ATOM     39  C13 non d ame     -32.094  10.426  24.030  0.00  0.00    -0.071 C 
ATOM     40  H16 non d ame     -32.537  11.238  23.453  0.00  0.00     0.028 H 
ATOM     41  H17 non d ame     -31.402  10.837  24.766  0.00  0.00     0.028 H 
ATOM     42  H18 non d ame     -31.553   9.758  23.359  0.00  0.00     0.028 H 
ENDBRANCH  33  39
ENDBRANCH   7  33
ENDBRANCH   4   7
ENDBRANCH   1   3
BRANCH   1  43
ATOM     43  C15 non d ame     -33.987   9.502  30.654  0.00  0.00     0.240 C 
ATOM     44  O5  non d ame     -34.319   9.935  31.710  0.00  0.00    -0.271 OA
ATOM     45  N6  non d ame     -34.546   8.206  30.175  0.00  0.00    -0.355 N 
ATOM     46  H46 non d ame     -34.275   7.830  29.277  0.00  0.00     0.162 HD
BRANCH  45  47
ATOM     47  C20 non d ame     -35.504   7.463  31.023  0.00  0.00     0.013 C 
ATOM     48  H30 non d ame     -35.309   7.731  32.061  0.00  0.00     0.072 H 
BRANCH  47  49
ATOM     49  C21 non d ame     -35.300   5.978  30.825  0.00  0.00    -0.038 C 
ATOM     50  H31 non d ame     -34.721   5.643  31.686  0.00  0.00     0.036 H 
ATOM     51  H32 non d ame     -36.293   5.567  30.642  0.00  0.00     0.036 H 
BRANCH  49  52
ATOM     52  C22 non d ame     -34.455   5.651  29.575  0.00  0.00     0.018 C 
ATOM     53  H33 non d ame     -33.896   6.558  29.351  0.00  0.00     0.048 H 
ATOM     54  H34 non d ame     -33.925   4.728  29.811  0.00  0.00     0.048 H 
BRANCH  52  55
ATOM     55  C23 non d ame     -35.302   5.346  28.309  0.00  0.00     0.259 C 
ATOM     56  O7  non d ame     -36.366   4.824  28.406  0.00  0.00    -0.265 OA
BRANCH  55  57
ATOM     57  O8  non d ame     -34.787   5.684  27.026  0.00  0.00    -0.317 OA
BRANCH  57  58
ATOM     58  C29 non d ame     -34.105   4.611  26.371  0.00  0.00     0.052 C 
ATOM     59  H47 non d ame     -33.398   4.220  27.103  0.00  0.00     0.082 H 
ATOM     60  H48 non d ame     -34.885   3.967  25.967  0.00  0.00     0.082 H 
BRANCH  58  61
ATOM     61  C35 non d ame     -33.301   5.209  25.185  0.00  0.00    -0.034 A 
ATOM     62  C30 non d ame     -32.166   5.975  25.429  0.00  0.00    -0.075 A 
ATOM     63  C31 non d ame     -31.445   6.513  24.364  0.00  0.00    -0.082 A 
ATOM     64  H49 non d ame     -31.842   6.156  26.454  0.00  0.00     0.084 H 
ATOM     65  C32 non d ame     -31.863   6.283  23.050  0.00  0.00    -0.083 A 
ATOM     66  H50 non d ame     -30.554   7.112  24.558  0.00  0.00     0.083 H 
ATOM     67  C33 non d ame     -32.999   5.520  22.812  0.00  0.00    -0.082 A 
ATOM     68  H51 non d ame     -31.304   6.699  22.212  0.00  0.00     0.083 H 
ATOM     69  C34 non d ame     -33.722   4.980  23.874  0.00  0.00    -0.075 A 
ATOM     70  H52 non d ame     -33.324   5.345  21.786  0.00  0.00     0.083 H 
ATOM     71  H53 non d ame     -34.611   4.381  23.679  0.00  0.00     0.084 H 
ENDBRANCH  58  61
ENDBRANCH  57  58
ENDBRANCH  55  57
ENDBRANCH  52  55
ENDBRANCH  49  52
ENDBRANCH  47  49
BRANCH  47  72
ATOM     72  C24 non d ame     -36.933   7.839  30.637  0.00  0.00    -0.039 C 
ATOM     73  H35 non d ame     -37.437   6.892  30.437  0.00  0.00     0.036 H 
ATOM     74  H36 non d ame     -37.289   8.486  31.439  0.00  0.00     0.036 H 
BRANCH  72  75
ATOM     75  C25 non d ame     -36.977   8.693  29.283  0.00  0.00    -0.001 C 
ATOM     76  C26 non d ame     -37.457  10.232  29.608  0.00  0.00    -0.035 C 
ATOM     77  C27 non d ame     -38.478  10.556  28.778  0.00  0.00     0.085 C 
ATOM     78  H38 non d ame     -37.909  10.282  30.599  0.00  0.00     0.036 H 
ATOM     79  H39 non d ame     -36.671  10.936  29.332  0.00  0.00     0.036 H 
ATOM     80  N5  non d ame     -38.953   9.271  28.142  0.00  0.00    -0.049 N 
ATOM     81  H40 non d ame     -39.265  10.947  29.423  0.00  0.00     0.075 H 
ATOM     82  H41 non d ame     -38.038  11.190  28.010  0.00  0.00     0.075 H 
ATOM     83  C28 non d ame     -37.801   8.179  28.433  0.00  0.00     0.193 C 
ATOM     84  H42 non d ame     -39.788   8.998  28.641  0.00  0.00     0.280 HD
ATOM     85  H43 non d ame     -38.992   9.443  27.148  0.00  0.00     0.280 HD
ATOM     86  H44 non d ame     -37.110   7.881  27.643  0.00  0.00     0.129 H 
ATOM     87  H37 non d ame     -36.072   8.571  28.689  0.00  0.00     0.046 H 
BRANCH  83  88
ATOM     88  O6  non d ame     -38.381   6.964  28.911  0.00  0.00    -0.369 OA
ATOM     89  H45 non d ame     -39.160   6.754  28.388  0.00  0.00     0.212 HD
ENDBRANCH  83  88
ENDBRANCH  72  75
ENDBRANCH  47  72
ENDBRANCH  45  47
ENDBRANCH   1  43
BRANCH   1  90
ATOM     90  C16 non d ame     -32.566  11.570  30.495  0.00  0.00    -0.035 C 
ATOM     91  H21 non d ame     -33.278  12.328  30.173  0.00  0.00     0.037 H 
ATOM     92  H22 non d ame     -32.499  11.297  31.548  0.00  0.00     0.037 H 
BRANCH  90  93
ATOM     93  C17 non d ame     -31.152  12.091  30.084  0.00  0.00    -0.059 C 
ATOM     94  H23 non d ame     -30.450  11.265  30.196  0.00  0.00     0.038 H 
BRANCH  93  95
ATOM     95  C18 non d ame     -31.105  12.556  28.593  0.00  0.00    -0.073 C 
ATOM     96  H24 non d ame     -31.405  13.602  28.528  0.00  0.00     0.028 H 
ATOM     97  H25 non d ame     -30.091  12.446  28.210  0.00  0.00     0.028 H 
ATOM     98  H26 non d ame     -31.786  11.945  28.001  0.00  0.00     0.028 H 
ENDBRANCH  93  95
BRANCH  93  99
ATOM     99  C19 non d ame     -30.689  13.213  31.018  0.00  0.00    -0.073 C 
ATOM    100  H27 non d ame     -29.804  12.886  31.567  0.00  0.00     0.028 H 
ATOM    101  H28 non d ame     -30.445  14.098  30.431  0.00  0.00     0.028 H 
ATOM    102  H29 non d ame     -31.486  13.451  31.722  0.00  0.00     0.028 H 
ENDBRANCH  93  99
ENDBRANCH  90  93
ENDBRANCH   1  90
TORSDOF 26
ENDMDL
MODEL 15
REMARK VINA RESULT:      -6.5      2.067      4.798
REMARK  26 active torsions:
REMARK  status: ('A' for Active; 'I' for Inactive)
REMARK    1  A    between atoms: C2_2  and  C3_3 
REMARK    2  A    between atoms: C4_6  and  C5_7 
REMARK       I    between atoms: C5_7  and  N2_9 
REMARK    3  A    between atoms: N2_9  and  C6_10 
REMARK    4  A    between atoms: C6_10  and  C7_11 
REMARK    5  A    between atoms: C6_10  and  C8_13 
REMARK       I    between atoms: C7_11  and  N3_14 
REMARK    6  A    between atoms: N3_14  and  C9_15 
REMARK    7  A    between atoms: C9_15  and  C10_16 
REMARK    8  A    between atoms: C9_15  and  C11_18 
REMARK       I    between atoms: C10_16  and  N4_21 
REMARK    9  A    between atoms: C11_18  and  C12_19 
REMARK   10  A    between atoms: C11_18  and  C13_20 
REMARK   11  A    between atoms: N4_21  and  C14_22 
REMARK   12  A    between atoms: C14_22  and  C15_23 
REMARK   13  A    between atoms: C14_22  and  C16_25 
REMARK       I    between atoms: C15_23  and  N6_40 
REMARK   14  A    between atoms: C16_25  and  C17_26 
REMARK   15  A    between atoms: C17_26  and  C18_27 
REMARK   16  A    between atoms: C17_26  and  C19_28 
REMARK   17  A    between atoms: C20_29  and  C21_30 
REMARK   18  A    between atoms: C20_29  and  C24_33 
REMARK   19  A    between atoms: C20_29  and  N6_40 
REMARK   20  A    between atoms: C21_30  and  C22_31 
REMARK   21  A    between atoms: C22_31  and  C23_32 
REMARK   22  A    between atoms: C23_32  and  O8_43 
REMARK   23  A    between atoms: C24_33  and  C25_34 
REMARK   24  A    between atoms: C28_38  and  O6_39 
REMARK   25  A    between atoms: C29_42  and  O8_43 
REMARK   26  A    between atoms: C29_42  and  C35_49 
ROOT
ATOM      1  C14 non d ame     -35.127  10.051  25.044  0.00  0.00     0.089 C 
ATOM      2  H20 non d ame     -34.894  10.544  24.100  0.00  0.00     0.087 H 
ENDROOT
BRANCH   1   3
ATOM      3  N4  non d ame     -34.416   8.782  25.063  0.00  0.00    -0.346 N 
ATOM      4  C10 non d ame     -32.921   8.743  24.867  0.00  0.00     0.241 C 
ATOM      5  O4  non d ame     -32.312   9.746  24.694  0.00  0.00    -0.271 OA
ATOM      6  H19 non d ame     -34.953   7.939  25.208  0.00  0.00     0.163 HD
BRANCH   4   7
ATOM      7  C9  non d ame     -32.201   7.420  24.894  0.00  0.00     0.092 C 
ATOM      8  H11 non d ame     -31.246   7.543  25.404  0.00  0.00     0.088 H 
BRANCH   7   9
ATOM      9  N3  non d ame     -32.984   6.452  25.667  0.00  0.00    -0.346 N 
ATOM     10  C7  non d ame     -32.687   6.233  27.061  0.00  0.00     0.240 C 
ATOM     11  O3  non d ame     -31.820   6.828  27.577  0.00  0.00    -0.271 OA
ATOM     12  H10 non d ame     -33.734   5.931  25.235  0.00  0.00     0.163 HD
BRANCH  10  13
ATOM     13  C6  non d ame     -33.522   5.199  27.878  0.00  0.00     0.086 C 
ATOM     14  H6  non d ame     -32.972   4.788  28.724  0.00  0.00     0.086 H 
BRANCH  13  15
ATOM     15  N2  non d ame     -34.691   5.865  28.426  0.00  0.00    -0.343 N 
ATOM     16  C5  non d ame     -35.044   5.662  29.833  0.00  0.00     0.273 C 
ATOM     17  O2  non d ame     -34.382   4.959  30.515  0.00  0.00    -0.266 OA
ATOM     18  H5  non d ame     -35.253   6.461  27.836  0.00  0.00     0.163 HD
BRANCH  16  19
ATOM     19  C4  non d ame     -36.278   6.361  30.426  0.00  0.00     0.154 A 
ATOM     20  C1  non d ame     -36.546   7.766  30.455  0.00  0.00    -0.017 A 
ATOM     21  C2  non d ame     -37.796   7.884  31.102  0.00  0.00     0.077 A 
ATOM     22  H1  non d ame     -35.928   8.575  30.065  0.00  0.00     0.091 H 
ATOM     23  O1  non d ame     -38.192   6.683  31.403  0.00  0.00    -0.218 OA
ATOM     24  N1  non d ame     -37.322   5.777  31.019  0.00  0.00    -0.123 NA
BRANCH  21  25
ATOM     25  C3  non d ame     -38.542   9.179  31.391  0.00  0.00    -0.029 C 
ATOM     26  H2  non d ame     -39.404   8.969  32.023  0.00  0.00     0.036 H 
ATOM     27  H3  non d ame     -37.878   9.875  31.905  0.00  0.00     0.036 H 
ATOM     28  H4  non d ame     -38.878   9.623  30.454  0.00  0.00     0.036 H 
ENDBRANCH  21  25
ENDBRANCH  16  19
ENDBRANCH  13  15
BRANCH  13  29
ATOM     29  C8  non d ame     -33.945   4.068  26.977  0.00  0.00    -0.049 C 
ATOM     30  H7  non d ame     -34.646   4.440  26.231  0.00  0.00     0.030 H 
ATOM     31  H8  non d ame     -33.070   3.653  26.477  0.00  0.00     0.030 H 
ATOM     32  H9  non d ame     -34.427   3.290  27.572  0.00  0.00     0.030 H 
ENDBRANCH  13  29
ENDBRANCH  10  13
ENDBRANCH   7   9
BRANCH   7  33
ATOM     33  C11 non d ame     -32.025   6.897  23.438  0.00  0.00    -0.033 C 
ATOM     34  H12 non d ame     -32.640   7.519  22.788  0.00  0.00     0.042 H 
BRANCH  33  35
ATOM     35  C12 non d ame     -30.546   7.037  22.959  0.00  0.00    -0.071 C 
ATOM     36  H13 non d ame     -30.234   8.078  23.046  0.00  0.00     0.028 H 
ATOM     37  H14 non d ame     -29.903   6.412  23.576  0.00  0.00     0.028 H 
ATOM     38  H15 non d ame     -30.470   6.723  21.918  0.00  0.00     0.028 H 
ENDBRANCH  33  35
BRANCH  33  39
ATOM     39  C13 non d ame     -32.525   5.422  23.310  0.00  0.00    -0.071 C 
ATOM     40  H16 non d ame     -32.525   4.952  24.293  0.00  0.00     0.028 H 
ATOM     41  H17 non d ame     -33.536   5.415  22.902  0.00  0.00     0.028 H 
ATOM     42  H18 non d ame     -31.862   4.870  22.644  0.00  0.00     0.028 H 
ENDBRANCH  33  39
ENDBRANCH   7  33
ENDBRANCH   4   7
ENDBRANCH   1   3
BRANCH   1  43
ATOM     43  C15 non d ame     -34.672  10.892  26.272  0.00  0.00     0.240 C 
ATOM     44  O5  non d ame     -35.082  10.626  27.355  0.00  0.00    -0.271 OA
ATOM     45  N6  non d ame     -33.716  12.023  26.099  0.00  0.00    -0.355 N 
ATOM     46  H46 non d ame     -33.357  12.256  25.183  0.00  0.00     0.162 HD
BRANCH  45  47
ATOM     47  C20 non d ame     -33.293  12.812  27.276  0.00  0.00     0.013 C 
ATOM     48  H30 non d ame     -33.867  12.464  28.135  0.00  0.00     0.072 H 
BRANCH  47  49
ATOM     49  C21 non d ame     -33.573  14.276  27.024  0.00  0.00    -0.038 C 
ATOM     50  H31 non d ame     -33.734  14.364  25.949  0.00  0.00     0.036 H 
ATOM     51  H32 non d ame     -34.368  14.547  27.719  0.00  0.00     0.036 H 
BRANCH  49  52
ATOM     52  C22 non d ame     -32.369  15.183  27.362  0.00  0.00     0.018 C 
ATOM     53  H33 non d ame     -32.517  15.496  28.395  0.00  0.00     0.048 H 
ATOM     54  H34 non d ame     -31.483  14.611  27.087  0.00  0.00     0.048 H 
BRANCH  52  55
ATOM     55  C23 non d ame     -32.314  16.489  26.522  0.00  0.00     0.259 C 
ATOM     56  O7  non d ame     -32.969  17.432  26.831  0.00  0.00    -0.265 OA
BRANCH  55  57
ATOM     57  O8  non d ame     -31.482  16.541  25.369  0.00  0.00    -0.317 OA
BRANCH  57  58
ATOM     58  C29 non d ame     -32.168  16.275  24.143  0.00  0.00     0.052 C 
ATOM     59  H47 non d ame     -33.035  15.673  24.415  0.00  0.00     0.082 H 
ATOM     60  H48 non d ame     -32.305  17.244  23.664  0.00  0.00     0.082 H 
BRANCH  58  61
ATOM     61  C35 non d ame     -31.234  15.415  23.249  0.00  0.00    -0.034 A 
ATOM     62  C30 non d ame     -30.804  15.905  22.019  0.00  0.00    -0.075 A 
ATOM     63  C31 non d ame     -29.965  15.132  21.216  0.00  0.00    -0.082 A 
ATOM     64  H49 non d ame     -31.123  16.891  21.684  0.00  0.00     0.084 H 
ATOM     65  C32 non d ame     -29.559  13.866  21.646  0.00  0.00    -0.083 A 
ATOM     66  H50 non d ame     -29.628  15.519  20.254  0.00  0.00     0.083 H 
ATOM     67  C33 non d ame     -29.994  13.382  22.872  0.00  0.00    -0.082 A 
ATOM     68  H51 non d ame     -28.902  13.257  21.024  0.00  0.00     0.083 H 
ATOM     69  C34 non d ame     -30.831  14.150  23.678  0.00  0.00    -0.075 A 
ATOM     70  H52 non d ame     -29.677  12.392  23.203  0.00  0.00     0.083 H 
ATOM     71  H53 non d ame     -31.167  13.763  24.640  0.00  0.00     0.084 H 
ENDBRANCH  58  61
ENDBRANCH  57  58
ENDBRANCH  55  57
ENDBRANCH  52  55
ENDBRANCH  49  52
ENDBRANCH  47  49
BRANCH  47  72
ATOM     72  C24 non d ame     -31.799  12.612  27.521  0.00  0.00    -0.039 C 
ATOM     73  H35 non d ame     -31.446  12.011  26.682  0.00  0.00     0.036 H 
ATOM     74  H36 non d ame     -31.395  13.611  27.683  0.00  0.00     0.036 H 
BRANCH  72  75
ATOM     75  C25 non d ame     -31.524  11.769  28.855  0.00  0.00    -0.001 C 
ATOM     76  C26 non d ame     -32.929  11.552  29.679  0.00  0.00    -0.035 C 
ATOM     77  C27 non d ame     -32.745  11.933  30.966  0.00  0.00     0.085 C 
ATOM     78  H38 non d ame     -33.688  12.244  29.315  0.00  0.00     0.036 H 
ATOM     79  H39 non d ame     -33.156  10.488  29.759  0.00  0.00     0.036 H 
ATOM     80  N5  non d ame     -31.442  12.696  31.017  0.00  0.00    -0.049 N 
ATOM     81  H40 non d ame     -33.566  12.615  31.188  0.00  0.00     0.075 H 
ATOM     82  H41 non d ame     -32.637  11.009  31.531  0.00  0.00     0.075 H 
ATOM     83  C28 non d ame     -30.686  12.377  29.627  0.00  0.00     0.193 C 
ATOM     84  H42 non d ame     -31.686  13.676  31.033  0.00  0.00     0.280 HD
ATOM     85  H43 non d ame     -30.908  12.296  31.774  0.00  0.00     0.280 HD
ATOM     86  H44 non d ame     -29.850  11.678  29.600  0.00  0.00     0.129 H 
ATOM     87  H37 non d ame     -30.918  10.883  28.666  0.00  0.00     0.046 H 
BRANCH  83  88
ATOM     88  O6  non d ame     -30.194  13.585  29.044  0.00  0.00    -0.369 OA
ATOM     89  H45 non d ame     -29.286  13.456  28.759  0.00  0.00     0.212 HD
ENDBRANCH  83  88
ENDBRANCH  72  75
ENDBRANCH  47  72
ENDBRANCH  45  47
ENDBRANCH   1  43
BRANCH   1  90
ATOM     90  C16 non d ame     -36.621   9.786  25.132  0.00  0.00    -0.035 C 
ATOM     91  H21 non d ame     -36.753   9.176  26.024  0.00  0.00     0.037 H 
ATOM     92  H22 non d ame     -37.092  10.767  25.067  0.00  0.00     0.037 H 
BRANCH  90  93
ATOM     93  C17 non d ame     -37.179   8.947  23.938  0.00  0.00    -0.059 C 
ATOM     94  H23 non d ame     -36.327   8.578  23.367  0.00  0.00     0.038 H 
BRANCH  93  95
ATOM     95  C18 non d ame     -38.001   7.709  24.421  0.00  0.00    -0.073 C 
ATOM     96  H24 non d ame     -38.417   7.189  23.557  0.00  0.00     0.028 H 
ATOM     97  H25 non d ame     -37.348   7.032  24.971  0.00  0.00     0.028 H 
ATOM     98  H26 non d ame     -38.811   8.041  25.070  0.00  0.00     0.028 H 
ENDBRANCH  93  95
BRANCH  93  99
ATOM     99  C19 non d ame     -38.014   9.821  22.998  0.00  0.00    -0.073 C 
ATOM    100  H27 non d ame     -37.656   9.698  21.975  0.00  0.00     0.028 H 
ATOM    101  H28 non d ame     -39.060   9.522  23.055  0.00  0.00     0.028 H 
ATOM    102  H29 non d ame     -37.918  10.866  23.294  0.00  0.00     0.028 H 
ENDBRANCH  93  99
ENDBRANCH  90  93
ENDBRANCH   1  90
TORSDOF 26
ENDMDL
MODEL 16
REMARK VINA RESULT:      -6.5      3.347      9.499
REMARK  26 active torsions:
REMARK  status: ('A' for Active; 'I' for Inactive)
REMARK    1  A    between atoms: C2_2  and  C3_3 
REMARK    2  A    between atoms: C4_6  and  C5_7 
REMARK       I    between atoms: C5_7  and  N2_9 
REMARK    3  A    between atoms: N2_9  and  C6_10 
REMARK    4  A    between atoms: C6_10  and  C7_11 
REMARK    5  A    between atoms: C6_10  and  C8_13 
REMARK       I    between atoms: C7_11  and  N3_14 
REMARK    6  A    between atoms: N3_14  and  C9_15 
REMARK    7  A    between atoms: C9_15  and  C10_16 
REMARK    8  A    between atoms: C9_15  and  C11_18 
REMARK       I    between atoms: C10_16  and  N4_21 
REMARK    9  A    between atoms: C11_18  and  C12_19 
REMARK   10  A    between atoms: C11_18  and  C13_20 
REMARK   11  A    between atoms: N4_21  and  C14_22 
REMARK   12  A    between atoms: C14_22  and  C15_23 
REMARK   13  A    between atoms: C14_22  and  C16_25 
REMARK       I    between atoms: C15_23  and  N6_40 
REMARK   14  A    between atoms: C16_25  and  C17_26 
REMARK   15  A    between atoms: C17_26  and  C18_27 
REMARK   16  A    between atoms: C17_26  and  C19_28 
REMARK   17  A    between atoms: C20_29  and  C21_30 
REMARK   18  A    between atoms: C20_29  and  C24_33 
REMARK   19  A    between atoms: C20_29  and  N6_40 
REMARK   20  A    between atoms: C21_30  and  C22_31 
REMARK   21  A    between atoms: C22_31  and  C23_32 
REMARK   22  A    between atoms: C23_32  and  O8_43 
REMARK   23  A    between atoms: C24_33  and  C25_34 
REMARK   24  A    between atoms: C28_38  and  O6_39 
REMARK   25  A    between atoms: C29_42  and  O8_43 
REMARK   26  A    between atoms: C29_42  and  C35_49 
ROOT
ATOM      1  C14 non d ame     -37.508  13.567  26.137  0.00  0.00     0.089 C 
ATOM      2  H20 non d ame     -38.262  13.709  26.912  0.00  0.00     0.087 H 
ENDROOT
BRANCH   1   3
ATOM      3  N4  non d ame     -36.886  14.859  25.888  0.00  0.00    -0.346 N 
ATOM      4  C10 non d ame     -37.424  16.103  26.547  0.00  0.00     0.241 C 
ATOM      5  O4  non d ame     -38.360  16.041  27.273  0.00  0.00    -0.271 OA
ATOM      6  H19 non d ame     -36.092  14.890  25.264  0.00  0.00     0.163 HD
BRANCH   4   7
ATOM      7  C9  non d ame     -36.764  17.431  26.281  0.00  0.00     0.092 C 
ATOM      8  H11 non d ame     -37.059  18.139  27.055  0.00  0.00     0.088 H 
BRANCH   7   9
ATOM      9  N3  non d ame     -35.308  17.280  26.364  0.00  0.00    -0.346 N 
ATOM     10  C7  non d ame     -34.607  17.701  27.551  0.00  0.00     0.240 C 
ATOM     11  O3  non d ame     -35.198  18.165  28.449  0.00  0.00    -0.271 OA
ATOM     12  H10 non d ame     -34.785  16.883  25.597  0.00  0.00     0.163 HD
BRANCH  10  13
ATOM     13  C6  non d ame     -33.057  17.541  27.632  0.00  0.00     0.086 C 
ATOM     14  H6  non d ame     -32.752  16.722  28.284  0.00  0.00     0.086 H 
BRANCH  13  15
ATOM     15  N2  non d ame     -32.544  17.231  26.308  0.00  0.00    -0.343 N 
ATOM     16  C5  non d ame     -31.895  15.941  26.069  0.00  0.00     0.273 C 
ATOM     17  O2  non d ame     -31.787  15.159  26.949  0.00  0.00    -0.266 OA
ATOM     18  H5  non d ame     -32.638  17.906  25.563  0.00  0.00     0.163 HD
BRANCH  16  19
ATOM     19  C4  non d ame     -31.350  15.601  24.673  0.00  0.00     0.154 A 
ATOM     20  C1  non d ame     -30.618  14.431  24.292  0.00  0.00    -0.017 A 
ATOM     21  C2  non d ame     -30.353  14.602  22.915  0.00  0.00     0.077 A 
ATOM     22  H1  non d ame     -30.326  13.589  24.918  0.00  0.00     0.091 H 
ATOM     23  O1  non d ame     -30.876  15.737  22.557  0.00  0.00    -0.218 OA
ATOM     24  N1  non d ame     -31.463  16.339  23.566  0.00  0.00    -0.123 NA
BRANCH  21  25
ATOM     25  C3  non d ame     -29.597  13.633  22.016  0.00  0.00    -0.029 C 
ATOM     26  H2  non d ame     -28.681  14.105  21.663  0.00  0.00     0.036 H 
ATOM     27  H3  non d ame     -29.346  12.734  22.579  0.00  0.00     0.036 H 
ATOM     28  H4  non d ame     -30.220  13.365  21.163  0.00  0.00     0.036 H 
ENDBRANCH  21  25
ENDBRANCH  16  19
ENDBRANCH  13  15
BRANCH  13  29
ATOM     29  C8  non d ame     -32.442  18.821  28.139  0.00  0.00    -0.049 C 
ATOM     30  H7  non d ame     -32.686  18.950  29.193  0.00  0.00     0.030 H 
ATOM     31  H8  non d ame     -31.360  18.777  28.020  0.00  0.00     0.030 H 
ATOM     32  H9  non d ame     -32.837  19.663  27.569  0.00  0.00     0.030 H 
ENDBRANCH  13  29
ENDBRANCH  10  13
ENDBRANCH   7   9
BRANCH   7  33
ATOM     33  C11 non d ame     -37.151  17.925  24.856  0.00  0.00    -0.033 C 
ATOM     34  H12 non d ame     -36.675  17.260  24.137  0.00  0.00     0.042 H 
BRANCH  33  35
ATOM     35  C12 non d ame     -38.692  17.841  24.625  0.00  0.00    -0.071 C 
ATOM     36  H13 non d ame     -39.183  17.548  25.553  0.00  0.00     0.028 H 
ATOM     37  H14 non d ame     -39.066  18.814  24.308  0.00  0.00     0.028 H 
ATOM     38  H15 non d ame     -38.904  17.100  23.854  0.00  0.00     0.028 H 
ENDBRANCH  33  35
BRANCH  33  39
ATOM     39  C13 non d ame     -36.618  19.372  24.602  0.00  0.00    -0.071 C 
ATOM     40  H16 non d ame     -35.608  19.320  24.194  0.00  0.00     0.028 H 
ATOM     41  H17 non d ame     -37.272  19.881  23.893  0.00  0.00     0.028 H 
ATOM     42  H18 non d ame     -36.602  19.924  25.541  0.00  0.00     0.028 H 
ENDBRANCH  33  39
ENDBRANCH   7  33
ENDBRANCH   4   7
ENDBRANCH   1   3
BRANCH   1  43
ATOM     43  C15 non d ame     -36.404  12.560  26.570  0.00  0.00     0.240 C 
ATOM     44  O5  non d ame     -36.707  11.547  27.111  0.00  0.00    -0.271 OA
ATOM     45  N6  non d ame     -34.968  12.855  26.301  0.00  0.00    -0.355 N 
ATOM     46  H46 non d ame     -34.698  13.712  25.838  0.00  0.00     0.162 HD
BRANCH  45  47
ATOM     47  C20 non d ame     -33.930  11.888  26.719  0.00  0.00     0.013 C 
ATOM     48  H30 non d ame     -34.377  10.894  26.711  0.00  0.00     0.072 H 
BRANCH  47  49
ATOM     49  C21 non d ame     -33.457  12.232  28.113  0.00  0.00    -0.038 C 
ATOM     50  H31 non d ame     -32.664  12.969  27.982  0.00  0.00     0.036 H 
ATOM     51  H32 non d ame     -34.356  12.492  28.672  0.00  0.00     0.036 H 
BRANCH  49  52
ATOM     52  C22 non d ame     -32.821  11.029  28.844  0.00  0.00     0.018 C 
ATOM     53  H33 non d ame     -33.521  10.205  28.720  0.00  0.00     0.048 H 
ATOM     54  H34 non d ame     -31.807  10.948  28.450  0.00  0.00     0.048 H 
BRANCH  52  55
ATOM     55  C23 non d ame     -32.670  11.237  30.376  0.00  0.00     0.259 C 
ATOM     56  O7  non d ame     -32.021  12.138  30.802  0.00  0.00    -0.265 OA
BRANCH  55  57
ATOM     57  O8  non d ame     -33.305  10.329  31.269  0.00  0.00    -0.317 OA
BRANCH  57  58
ATOM     58  C29 non d ame     -34.684  10.091  30.974  0.00  0.00     0.052 C 
ATOM     59  H47 non d ame     -35.224  10.305  31.896  0.00  0.00     0.082 H 
ATOM     60  H48 non d ame     -34.897  10.663  30.071  0.00  0.00     0.082 H 
BRANCH  58  61
ATOM     61  C35 non d ame     -34.850   8.582  30.646  0.00  0.00    -0.034 A 
ATOM     62  C30 non d ame     -34.881   8.157  29.321  0.00  0.00    -0.075 A 
ATOM     63  C31 non d ame     -35.030   6.803  29.027  0.00  0.00    -0.082 A 
ATOM     64  H49 non d ame     -34.790   8.884  28.514  0.00  0.00     0.084 H 
ATOM     65  C32 non d ame     -35.149   5.872  30.063  0.00  0.00    -0.083 A 
ATOM     66  H50 non d ame     -35.052   6.472  27.987  0.00  0.00     0.083 H 
ATOM     67  C33 non d ame     -35.121   6.302  31.382  0.00  0.00    -0.082 A 
ATOM     68  H51 non d ame     -35.265   4.811  29.841  0.00  0.00     0.083 H 
ATOM     69  C34 non d ame     -34.971   7.654  31.681  0.00  0.00    -0.075 A 
ATOM     70  H52 non d ame     -35.218   5.573  32.189  0.00  0.00     0.083 H 
ATOM     71  H53 non d ame     -34.948   7.984  32.720  0.00  0.00     0.084 H 
ENDBRANCH  58  61
ENDBRANCH  57  58
ENDBRANCH  55  57
ENDBRANCH  52  55
ENDBRANCH  49  52
ENDBRANCH  47  49
BRANCH  47  72
ATOM     72  C24 non d ame     -32.750  11.946  25.750  0.00  0.00    -0.039 C 
ATOM     73  H35 non d ame     -32.930  12.824  25.129  0.00  0.00     0.036 H 
ATOM     74  H36 non d ame     -31.859  11.895  26.376  0.00  0.00     0.036 H 
BRANCH  72  75
ATOM     75  C25 non d ame     -32.719  10.675  24.776  0.00  0.00    -0.001 C 
ATOM     76  C26 non d ame     -33.943   9.647  25.158  0.00  0.00    -0.035 C 
ATOM     77  C27 non d ame     -33.435   8.401  25.316  0.00  0.00     0.085 C 
ATOM     78  H38 non d ame     -34.340   9.887  26.144  0.00  0.00     0.036 H 
ATOM     79  H39 non d ame     -34.621   9.540  24.310  0.00  0.00     0.036 H 
ATOM     80  N5  non d ame     -31.934   8.545  25.400  0.00  0.00    -0.049 N 
ATOM     81  H40 non d ame     -33.814   8.053  26.277  0.00  0.00     0.075 H 
ATOM     82  H41 non d ame     -33.690   7.865  24.404  0.00  0.00     0.075 H 
ATOM     83  C28 non d ame     -31.601  10.036  24.878  0.00  0.00     0.193 C 
ATOM     84  H42 non d ame     -31.696   8.486  26.379  0.00  0.00     0.280 HD
ATOM     85  H43 non d ame     -31.548   7.881  24.744  0.00  0.00     0.280 HD
ATOM     86  H44 non d ame     -31.191  10.194  23.880  0.00  0.00     0.129 H 
ATOM     87  H37 non d ame     -32.619  10.960  23.729  0.00  0.00     0.046 H 
BRANCH  83  88
ATOM     88  O6  non d ame     -30.692  10.680  25.773  0.00  0.00    -0.369 OA
ATOM     89  H45 non d ame     -29.820  10.718  25.370  0.00  0.00     0.212 HD
ENDBRANCH  83  88
ENDBRANCH  72  75
ENDBRANCH  47  72
ENDBRANCH  45  47
ENDBRANCH   1  43
BRANCH   1  90
ATOM     90  C16 non d ame     -38.171  13.079  24.859  0.00  0.00    -0.035 C 
ATOM     91  H21 non d ame     -37.492  12.333  24.448  0.00  0.00     0.037 H 
ATOM     92  H22 non d ame     -39.183  12.795  25.149  0.00  0.00     0.037 H 
BRANCH  90  93
ATOM     93  C17 non d ame     -38.319  14.187  23.768  0.00  0.00    -0.059 C 
ATOM     94  H23 non d ame     -37.897  15.107  24.173  0.00  0.00     0.038 H 
BRANCH  93  95
ATOM     95  C18 non d ame     -37.536  13.838  22.462  0.00  0.00    -0.073 C 
ATOM     96  H24 non d ame     -37.761  12.814  22.165  0.00  0.00     0.028 H 
ATOM     97  H25 non d ame     -37.835  14.520  21.666  0.00  0.00     0.028 H 
ATOM     98  H26 non d ame     -36.465  13.938  22.643  0.00  0.00     0.028 H 
ENDBRANCH  93  95
BRANCH  93  99
ATOM     99  C19 non d ame     -39.794  14.460  23.461  0.00  0.00    -0.073 C 
ATOM    100  H27 non d ame     -40.393  14.256  24.350  0.00  0.00     0.028 H 
ATOM    101  H28 non d ame     -39.920  15.503  23.171  0.00  0.00     0.028 H 
ATOM    102  H29 non d ame     -40.121  13.814  22.646  0.00  0.00     0.028 H 
ENDBRANCH  93  99
ENDBRANCH  90  93
ENDBRANCH   1  90
TORSDOF 26
ENDMDL
MODEL 17
REMARK VINA RESULT:      -6.5      2.426     10.084
REMARK  26 active torsions:
REMARK  status: ('A' for Active; 'I' for Inactive)
REMARK    1  A    between atoms: C2_2  and  C3_3 
REMARK    2  A    between atoms: C4_6  and  C5_7 
REMARK       I    between atoms: C5_7  and  N2_9 
REMARK    3  A    between atoms: N2_9  and  C6_10 
REMARK    4  A    between atoms: C6_10  and  C7_11 
REMARK    5  A    between atoms: C6_10  and  C8_13 
REMARK       I    between atoms: C7_11  and  N3_14 
REMARK    6  A    between atoms: N3_14  and  C9_15 
REMARK    7  A    between atoms: C9_15  and  C10_16 
REMARK    8  A    between atoms: C9_15  and  C11_18 
REMARK       I    between atoms: C10_16  and  N4_21 
REMARK    9  A    between atoms: C11_18  and  C12_19 
REMARK   10  A    between atoms: C11_18  and  C13_20 
REMARK   11  A    between atoms: N4_21  and  C14_22 
REMARK   12  A    between atoms: C14_22  and  C15_23 
REMARK   13  A    between atoms: C14_22  and  C16_25 
REMARK       I    between atoms: C15_23  and  N6_40 
REMARK   14  A    between atoms: C16_25  and  C17_26 
REMARK   15  A    between atoms: C17_26  and  C18_27 
REMARK   16  A    between atoms: C17_26  and  C19_28 
REMARK   17  A    between atoms: C20_29  and  C21_30 
REMARK   18  A    between atoms: C20_29  and  C24_33 
REMARK   19  A    between atoms: C20_29  and  N6_40 
REMARK   20  A    between atoms: C21_30  and  C22_31 
REMARK   21  A    between atoms: C22_31  and  C23_32 
REMARK   22  A    between atoms: C23_32  and  O8_43 
REMARK   23  A    between atoms: C24_33  and  C25_34 
REMARK   24  A    between atoms: C28_38  and  O6_39 
REMARK   25  A    between atoms: C29_42  and  O8_43 
REMARK   26  A    between atoms: C29_42  and  C35_49 
ROOT
ATOM      1  C14 non d ame     -34.960   8.330  31.302  0.00  0.00     0.089 C 
ATOM      2  H20 non d ame     -34.536   8.350  32.306  0.00  0.00     0.087 H 
ENDROOT
BRANCH   1   3
ATOM      3  N4  non d ame     -34.034   9.026  30.421  0.00  0.00    -0.346 N 
ATOM      4  C10 non d ame     -33.446  10.353  30.830  0.00  0.00     0.241 C 
ATOM      5  O4  non d ame     -33.734  10.842  31.872  0.00  0.00    -0.271 OA
ATOM      6  H19 non d ame     -33.804   8.595  29.537  0.00  0.00     0.163 HD
BRANCH   4   7
ATOM      7  C9  non d ame     -32.486  11.058  29.908  0.00  0.00     0.092 C 
ATOM      8  H11 non d ame     -31.765  10.339  29.522  0.00  0.00     0.088 H 
BRANCH   7   9
ATOM      9  N3  non d ame     -33.219  11.597  28.758  0.00  0.00    -0.346 N 
ATOM     10  C7  non d ame     -33.308  10.832  27.538  0.00  0.00     0.240 C 
ATOM     11  O3  non d ame     -32.796   9.782  27.465  0.00  0.00    -0.271 OA
ATOM     12  H10 non d ame     -33.665  12.502  28.806  0.00  0.00     0.163 HD
BRANCH  10  13
ATOM     13  C6  non d ame     -34.086  11.411  26.317  0.00  0.00     0.086 C 
ATOM     14  H6  non d ame     -34.598  12.346  26.547  0.00  0.00     0.086 H 
BRANCH  13  15
ATOM     15  N2  non d ame     -33.142  11.707  25.252  0.00  0.00    -0.343 N 
ATOM     16  C5  non d ame     -32.232  12.845  25.390  0.00  0.00     0.273 C 
ATOM     17  O2  non d ame     -32.269  13.520  26.360  0.00  0.00    -0.266 OA
ATOM     18  H5  non d ame     -33.119  11.127  24.426  0.00  0.00     0.163 HD
BRANCH  16  19
ATOM     19  C4  non d ame     -31.227  13.168  24.272  0.00  0.00     0.154 A 
ATOM     20  C1  non d ame     -30.687  14.450  23.940  0.00  0.00    -0.017 A 
ATOM     21  C2  non d ame     -29.821  14.207  22.850  0.00  0.00     0.077 A 
ATOM     22  H1  non d ame     -30.890  15.409  24.416  0.00  0.00     0.091 H 
ATOM     23  O1  non d ame     -29.866  12.933  22.595  0.00  0.00    -0.218 OA
ATOM     24  N1  non d ame     -30.680  12.305  23.413  0.00  0.00    -0.123 NA
BRANCH  21  25
ATOM     25  C3  non d ame     -28.989  15.246  22.111  0.00  0.00    -0.029 C 
ATOM     26  H2  non d ame     -27.931  15.073  22.309  0.00  0.00     0.036 H 
ATOM     27  H3  non d ame     -29.174  15.166  21.040  0.00  0.00     0.036 H 
ATOM     28  H4  non d ame     -29.263  16.244  22.453  0.00  0.00     0.036 H 
ENDBRANCH  21  25
ENDBRANCH  16  19
ENDBRANCH  13  15
BRANCH  13  29
ATOM     29  C8  non d ame     -35.103  10.405  25.842  0.00  0.00    -0.049 C 
ATOM     30  H7  non d ame     -34.802   9.407  26.159  0.00  0.00     0.030 H 
ATOM     31  H8  non d ame     -36.077  10.642  26.268  0.00  0.00     0.030 H 
ATOM     32  H9  non d ame     -35.164  10.436  24.753  0.00  0.00     0.030 H 
ENDBRANCH  13  29
ENDBRANCH  10  13
ENDBRANCH   7   9
BRANCH   7  33
ATOM     33  C11 non d ame     -31.797  12.227  30.673  0.00  0.00    -0.033 C 
ATOM     34  H12 non d ame     -32.328  12.361  31.615  0.00  0.00     0.042 H 
BRANCH  33  35
ATOM     35  C12 non d ame     -30.314  11.884  31.016  0.00  0.00    -0.071 C 
ATOM     36  H13 non d ame     -29.649  12.483  30.393  0.00  0.00     0.028 H 
ATOM     37  H14 non d ame     -30.123  12.103  32.066  0.00  0.00     0.028 H 
ATOM     38  H15 non d ame     -30.132  10.826  30.826  0.00  0.00     0.028 H 
ENDBRANCH  33  35
BRANCH  33  39
ATOM     39  C13 non d ame     -31.899  13.560  29.866  0.00  0.00    -0.071 C 
ATOM     40  H16 non d ame     -32.804  14.094  30.158  0.00  0.00     0.028 H 
ATOM     41  H17 non d ame     -31.027  14.181  30.077  0.00  0.00     0.028 H 
ATOM     42  H18 non d ame     -31.936  13.338  28.800  0.00  0.00     0.028 H 
ENDBRANCH  33  39
ENDBRANCH   7  33
ENDBRANCH   4   7
ENDBRANCH   1   3
BRANCH   1  43
ATOM     43  C15 non d ame     -35.147   6.878  30.774  0.00  0.00     0.240 C 
ATOM     44  O5  non d ame     -35.857   6.124  31.357  0.00  0.00    -0.271 OA
ATOM     45  N6  non d ame     -34.450   6.430  29.535  0.00  0.00    -0.355 N 
ATOM     46  H46 non d ame     -33.848   7.064  29.028  0.00  0.00     0.162 HD
BRANCH  45  47
ATOM     47  C20 non d ame     -34.640   5.048  29.046  0.00  0.00     0.013 C 
ATOM     48  H30 non d ame     -35.136   4.480  29.833  0.00  0.00     0.072 H 
BRANCH  47  49
ATOM     49  C21 non d ame     -33.292   4.437  28.737  0.00  0.00    -0.038 C 
ATOM     50  H31 non d ame     -32.560   5.071  29.237  0.00  0.00     0.036 H 
ATOM     51  H32 non d ame     -33.377   3.384  29.008  0.00  0.00     0.036 H 
BRANCH  49  52
ATOM     52  C22 non d ame     -32.948   4.474  27.232  0.00  0.00     0.018 C 
ATOM     53  H33 non d ame     -32.231   3.670  27.073  0.00  0.00     0.048 H 
ATOM     54  H34 non d ame     -33.906   4.461  26.710  0.00  0.00     0.048 H 
BRANCH  52  55
ATOM     55  C23 non d ame     -32.235   5.779  26.785  0.00  0.00     0.259 C 
ATOM     56  O7  non d ame     -31.913   6.596  27.587  0.00  0.00    -0.265 OA
BRANCH  55  57
ATOM     57  O8  non d ame     -31.981   5.997  25.402  0.00  0.00    -0.317 OA
BRANCH  57  58
ATOM     58  C29 non d ame     -32.828   6.980  24.801  0.00  0.00     0.052 C 
ATOM     59  H47 non d ame     -33.070   7.686  25.596  0.00  0.00     0.082 H 
ATOM     60  H48 non d ame     -32.301   7.321  23.911  0.00  0.00     0.082 H 
BRANCH  58  61
ATOM     61  C35 non d ame     -34.137   6.275  24.355  0.00  0.00    -0.034 A 
ATOM     62  C30 non d ame     -34.079   5.052  23.695  0.00  0.00    -0.075 A 
ATOM     63  C31 non d ame     -35.255   4.419  23.294  0.00  0.00    -0.082 A 
ATOM     64  H49 non d ame     -33.113   4.589  23.491  0.00  0.00     0.084 H 
ATOM     65  C32 non d ame     -36.492   5.014  23.554  0.00  0.00    -0.083 A 
ATOM     66  H50 non d ame     -35.206   3.458  22.779  0.00  0.00     0.083 H 
ATOM     67  C33 non d ame     -36.544   6.237  24.209  0.00  0.00    -0.082 A 
ATOM     68  H51 non d ame     -37.416   4.525  23.244  0.00  0.00     0.083 H 
ATOM     69  C34 non d ame     -35.372   6.872  24.613  0.00  0.00    -0.075 A 
ATOM     70  H52 non d ame     -37.512   6.700  24.408  0.00  0.00     0.083 H 
ATOM     71  H53 non d ame     -35.422   7.831  25.129  0.00  0.00     0.084 H 
ENDBRANCH  58  61
ENDBRANCH  57  58
ENDBRANCH  55  57
ENDBRANCH  52  55
ENDBRANCH  49  52
ENDBRANCH  47  49
BRANCH  47  72
ATOM     72  C24 non d ame     -35.497   5.061  27.781  0.00  0.00    -0.039 C 
ATOM     73  H35 non d ame     -35.743   6.109  27.610  0.00  0.00     0.036 H 
ATOM     74  H36 non d ame     -34.925   4.507  27.037  0.00  0.00     0.036 H 
BRANCH  72  75
ATOM     75  C25 non d ame     -36.879   4.279  27.993  0.00  0.00    -0.001 C 
ATOM     76  C26 non d ame     -36.980   3.025  26.936  0.00  0.00    -0.035 C 
ATOM     77  C27 non d ame     -38.167   3.096  26.285  0.00  0.00     0.085 C 
ATOM     78  H38 non d ame     -36.246   3.146  26.140  0.00  0.00     0.036 H 
ATOM     79  H39 non d ame     -37.044   2.081  27.478  0.00  0.00     0.036 H 
ATOM     80  N5  non d ame     -38.741   4.464  26.565  0.00  0.00    -0.049 N 
ATOM     81  H40 non d ame     -37.922   3.022  25.226  0.00  0.00     0.075 H 
ATOM     82  H41 non d ame     -38.800   2.343  26.752  0.00  0.00     0.075 H 
ATOM     83  C28 non d ame     -37.890   5.058  27.802  0.00  0.00     0.193 C 
ATOM     84  H42 non d ame     -38.553   5.026  25.748  0.00  0.00     0.280 HD
ATOM     85  H43 non d ame     -39.693   4.317  26.870  0.00  0.00     0.280 HD
ATOM     86  H44 non d ame     -38.316   5.080  28.806  0.00  0.00     0.129 H 
ATOM     87  H37 non d ame     -37.072   4.059  29.043  0.00  0.00     0.046 H 
BRANCH  83  88
ATOM     88  O6  non d ame     -37.492   6.402  27.526  0.00  0.00    -0.369 OA
ATOM     89  H45 non d ame     -37.044   6.435  26.678  0.00  0.00     0.212 HD
ENDBRANCH  83  88
ENDBRANCH  72  75
ENDBRANCH  47  72
ENDBRANCH  45  47
ENDBRANCH   1  43
BRANCH   1  90
ATOM     90  C16 non d ame     -36.296   9.054  31.292  0.00  0.00    -0.035 C 
ATOM     91  H21 non d ame     -36.913   8.530  32.021  0.00  0.00     0.037 H 
ATOM     92  H22 non d ame     -36.055  10.107  31.438  0.00  0.00     0.037 H 
BRANCH  90  93
ATOM     93  C17 non d ame     -37.050   8.957  29.928  0.00  0.00    -0.059 C 
ATOM     94  H23 non d ame     -36.550   8.197  29.327  0.00  0.00     0.038 H 
BRANCH  93  95
ATOM     95  C18 non d ame     -38.539   8.519  30.106  0.00  0.00    -0.073 C 
ATOM     96  H24 non d ame     -39.142   8.941  29.302  0.00  0.00     0.028 H 
ATOM     97  H25 non d ame     -38.604   7.432  30.075  0.00  0.00     0.028 H 
ATOM     98  H26 non d ame     -38.911   8.878  31.066  0.00  0.00     0.028 H 
ENDBRANCH  93  95
BRANCH  93  99
ATOM     99  C19 non d ame     -36.960  10.278  29.158  0.00  0.00    -0.073 C 
ATOM    100  H27 non d ame     -37.695  10.280  28.353  0.00  0.00     0.028 H 
ATOM    101  H28 non d ame     -37.162  11.108  29.835  0.00  0.00     0.028 H 
ATOM    102  H29 non d ame     -35.960  10.387  28.739  0.00  0.00     0.028 H 
ENDBRANCH  93  99
ENDBRANCH  90  93
ENDBRANCH   1  90
TORSDOF 26
ENDMDL
MODEL 18
REMARK VINA RESULT:      -6.5      3.555      8.315
REMARK  26 active torsions:
REMARK  status: ('A' for Active; 'I' for Inactive)
REMARK    1  A    between atoms: C2_2  and  C3_3 
REMARK    2  A    between atoms: C4_6  and  C5_7 
REMARK       I    between atoms: C5_7  and  N2_9 
REMARK    3  A    between atoms: N2_9  and  C6_10 
REMARK    4  A    between atoms: C6_10  and  C7_11 
REMARK    5  A    between atoms: C6_10  and  C8_13 
REMARK       I    between atoms: C7_11  and  N3_14 
REMARK    6  A    between atoms: N3_14  and  C9_15 
REMARK    7  A    between atoms: C9_15  and  C10_16 
REMARK    8  A    between atoms: C9_15  and  C11_18 
REMARK       I    between atoms: C10_16  and  N4_21 
REMARK    9  A    between atoms: C11_18  and  C12_19 
REMARK   10  A    between atoms: C11_18  and  C13_20 
REMARK   11  A    between atoms: N4_21  and  C14_22 
REMARK   12  A    between atoms: C14_22  and  C15_23 
REMARK   13  A    between atoms: C14_22  and  C16_25 
REMARK       I    between atoms: C15_23  and  N6_40 
REMARK   14  A    between atoms: C16_25  and  C17_26 
REMARK   15  A    between atoms: C17_26  and  C18_27 
REMARK   16  A    between atoms: C17_26  and  C19_28 
REMARK   17  A    between atoms: C20_29  and  C21_30 
REMARK   18  A    between atoms: C20_29  and  C24_33 
REMARK   19  A    between atoms: C20_29  and  N6_40 
REMARK   20  A    between atoms: C21_30  and  C22_31 
REMARK   21  A    between atoms: C22_31  and  C23_32 
REMARK   22  A    between atoms: C23_32  and  O8_43 
REMARK   23  A    between atoms: C24_33  and  C25_34 
REMARK   24  A    between atoms: C28_38  and  O6_39 
REMARK   25  A    between atoms: C29_42  and  O8_43 
REMARK   26  A    between atoms: C29_42  and  C35_49 
ROOT
ATOM      1  C14 non d ame     -35.752   9.642  26.674  0.00  0.00     0.089 C 
ATOM      2  H20 non d ame     -36.709   9.208  26.963  0.00  0.00     0.087 H 
ENDROOT
BRANCH   1   3
ATOM      3  N4  non d ame     -34.904   9.662  27.856  0.00  0.00    -0.346 N 
ATOM      4  C10 non d ame     -35.487   9.996  29.206  0.00  0.00     0.241 C 
ATOM      5  O4  non d ame     -36.642  10.249  29.316  0.00  0.00    -0.271 OA
ATOM      6  H19 non d ame     -33.924   9.447  27.741  0.00  0.00     0.163 HD
BRANCH   4   7
ATOM      7  C9  non d ame     -34.596  10.008  30.420  0.00  0.00     0.092 C 
ATOM      8  H11 non d ame     -33.894   9.177  30.358  0.00  0.00     0.088 H 
BRANCH   7   9
ATOM      9  N3  non d ame     -33.806  11.243  30.436  0.00  0.00    -0.346 N 
ATOM     10  C7  non d ame     -32.595  11.333  29.660  0.00  0.00     0.240 C 
ATOM     11  O3  non d ame     -32.240  10.421  29.017  0.00  0.00    -0.271 OA
ATOM     12  H10 non d ame     -34.100  12.037  30.987  0.00  0.00     0.163 HD
BRANCH  10  13
ATOM     13  C6  non d ame     -31.756  12.648  29.683  0.00  0.00     0.086 C 
ATOM     14  H6  non d ame     -31.008  12.685  28.891  0.00  0.00     0.086 H 
BRANCH  13  15
ATOM     15  N2  non d ame     -32.645  13.778  29.467  0.00  0.00    -0.343 N 
ATOM     16  C5  non d ame     -32.203  14.894  28.629  0.00  0.00     0.273 C 
ATOM     17  O2  non d ame     -31.129  14.877  28.136  0.00  0.00    -0.266 OA
ATOM     18  H5  non d ame     -33.560  13.787  29.895  0.00  0.00     0.163 HD
BRANCH  16  19
ATOM     19  C4  non d ame     -33.133  16.095  28.393  0.00  0.00     0.154 A 
ATOM     20  C1  non d ame     -34.523  16.058  28.056  0.00  0.00    -0.017 A 
ATOM     21  C2  non d ame     -34.907  17.414  27.950  0.00  0.00     0.077 A 
ATOM     22  H1  non d ame     -35.156  15.183  27.912  0.00  0.00     0.091 H 
ATOM     23  O1  non d ame     -33.854  18.136  28.200  0.00  0.00    -0.218 OA
ATOM     24  N1  non d ame     -32.806  17.388  28.461  0.00  0.00    -0.123 NA
BRANCH  21  25
ATOM     25  C3  non d ame     -36.297  17.933  27.609  0.00  0.00    -0.029 C 
ATOM     26  H2  non d ame     -36.375  18.082  26.533  0.00  0.00     0.036 H 
ATOM     27  H3  non d ame     -37.045  17.208  27.929  0.00  0.00     0.036 H 
ATOM     28  H4  non d ame     -36.467  18.880  28.120  0.00  0.00     0.036 H 
ENDBRANCH  21  25
ENDBRANCH  16  19
ENDBRANCH  13  15
BRANCH  13  29
ATOM     29  C8  non d ame     -31.063  12.783  31.014  0.00  0.00    -0.049 C 
ATOM     30  H7  non d ame     -31.292  11.916  31.633  0.00  0.00     0.030 H 
ATOM     31  H8  non d ame     -29.986  12.843  30.859  0.00  0.00     0.030 H 
ATOM     32  H9  non d ame     -31.410  13.688  31.515  0.00  0.00     0.030 H 
ENDBRANCH  13  29
ENDBRANCH  10  13
ENDBRANCH   7   9
BRANCH   7  33
ATOM     33  C11 non d ame     -35.473   9.940  31.706  0.00  0.00    -0.033 C 
ATOM     34  H12 non d ame     -36.503  10.140  31.413  0.00  0.00     0.042 H 
BRANCH  33  35
ATOM     35  C12 non d ame     -35.435   8.516  32.344  0.00  0.00    -0.071 C 
ATOM     36  H13 non d ame     -34.489   8.033  32.097  0.00  0.00     0.028 H 
ATOM     37  H14 non d ame     -35.530   8.599  33.426  0.00  0.00     0.028 H 
ATOM     38  H15 non d ame     -36.259   7.920  31.951  0.00  0.00     0.028 H 
ENDBRANCH  33  35
BRANCH  33  39
ATOM     39  C13 non d ame     -35.042  11.033  32.735  0.00  0.00    -0.071 C 
ATOM     40  H16 non d ame     -35.894  11.301  33.360  0.00  0.00     0.028 H 
ATOM     41  H17 non d ame     -34.237  10.647  33.362  0.00  0.00     0.028 H 
ATOM     42  H18 non d ame     -34.691  11.917  32.201  0.00  0.00     0.028 H 
ENDBRANCH  33  39
ENDBRANCH   7  33
ENDBRANCH   4   7
ENDBRANCH   1   3
BRANCH   1  43
ATOM     43  C15 non d ame     -35.040   8.810  25.568  0.00  0.00     0.240 C 
ATOM     44  O5  non d ame     -35.671   8.364  24.665  0.00  0.00    -0.271 OA
ATOM     45  N6  non d ame     -33.569   8.577  25.630  0.00  0.00    -0.355 N 
ATOM     46  H46 non d ame     -33.021   8.955  26.390  0.00  0.00     0.162 HD
BRANCH  45  47
ATOM     47  C20 non d ame     -32.907   7.785  24.571  0.00  0.00     0.013 C 
ATOM     48  H30 non d ame     -33.642   7.592  23.789  0.00  0.00     0.072 H 
BRANCH  47  49
ATOM     49  C21 non d ame     -32.419   6.478  25.155  0.00  0.00    -0.038 C 
ATOM     50  H31 non d ame     -33.294   5.828  25.194  0.00  0.00     0.036 H 
ATOM     51  H32 non d ame     -31.554   6.193  24.555  0.00  0.00     0.036 H 
BRANCH  49  52
ATOM     52  C22 non d ame     -31.914   6.622  26.607  0.00  0.00     0.018 C 
ATOM     53  H33 non d ame     -30.957   6.105  26.639  0.00  0.00     0.048 H 
ATOM     54  H34 non d ame     -31.968   7.688  26.833  0.00  0.00     0.048 H 
BRANCH  52  55
ATOM     55  C23 non d ame     -32.818   5.917  27.656  0.00  0.00     0.259 C 
ATOM     56  O7  non d ame     -32.531   4.841  28.072  0.00  0.00    -0.265 OA
BRANCH  55  57
ATOM     57  O8  non d ame     -34.001   6.566  28.106  0.00  0.00    -0.317 OA
BRANCH  57  58
ATOM     58  C29 non d ame     -35.211   5.932  27.679  0.00  0.00     0.052 C 
ATOM     59  H47 non d ame     -35.526   6.469  26.785  0.00  0.00     0.082 H 
ATOM     60  H48 non d ame     -34.984   4.868  27.625  0.00  0.00     0.082 H 
BRANCH  58  61
ATOM     61  C35 non d ame     -36.280   6.148  28.784  0.00  0.00    -0.034 A 
ATOM     62  C30 non d ame     -36.095   5.597  30.049  0.00  0.00    -0.075 A 
ATOM     63  C31 non d ame     -37.055   5.791  31.041  0.00  0.00    -0.082 A 
ATOM     64  H49 non d ame     -35.200   5.013  30.262  0.00  0.00     0.084 H 
ATOM     65  C32 non d ame     -38.203   6.538  30.765  0.00  0.00    -0.083 A 
ATOM     66  H50 non d ame     -36.906   5.359  32.032  0.00  0.00     0.083 H 
ATOM     67  C33 non d ame     -38.385   7.082  29.501  0.00  0.00    -0.082 A 
ATOM     68  H51 non d ame     -38.958   6.694  31.536  0.00  0.00     0.083 H 
ATOM     69  C34 non d ame     -37.427   6.892  28.507  0.00  0.00    -0.075 A 
ATOM     70  H52 non d ame     -39.284   7.662  29.288  0.00  0.00     0.083 H 
ATOM     71  H53 non d ame     -37.576   7.325  27.517  0.00  0.00     0.084 H 
ENDBRANCH  58  61
ENDBRANCH  57  58
ENDBRANCH  55  57
ENDBRANCH  52  55
ENDBRANCH  49  52
ENDBRANCH  47  49
BRANCH  47  72
ATOM     72  C24 non d ame     -31.723   8.566  24.005  0.00  0.00    -0.039 C 
ATOM     73  H35 non d ame     -31.784   9.554  24.462  0.00  0.00     0.036 H 
ATOM     74  H36 non d ame     -30.850   7.937  24.182  0.00  0.00     0.036 H 
BRANCH  72  75
ATOM     75  C25 non d ame     -31.848   8.768  22.421  0.00  0.00    -0.001 C 
ATOM     76  C26 non d ame     -33.358   8.354  21.922  0.00  0.00    -0.035 C 
ATOM     77  C27 non d ame     -33.254   7.482  20.890  0.00  0.00     0.085 C 
ATOM     78  H38 non d ame     -33.863   7.774  22.694  0.00  0.00     0.036 H 
ATOM     79  H39 non d ame     -33.856   9.216  21.477  0.00  0.00     0.036 H 
ATOM     80  N5  non d ame     -31.819   7.012  20.854  0.00  0.00    -0.049 N 
ATOM     81  H40 non d ame     -33.897   6.642  21.152  0.00  0.00     0.075 H 
ATOM     82  H41 non d ame     -33.459   8.066  19.994  0.00  0.00     0.075 H 
ATOM     83  C28 non d ame     -30.993   8.037  21.789  0.00  0.00     0.193 C 
ATOM     84  H42 non d ame     -31.806   6.100  21.286  0.00  0.00     0.280 HD
ATOM     85  H43 non d ame     -31.507   7.124  19.899  0.00  0.00     0.280 HD
ATOM     86  H44 non d ame     -30.364   8.808  21.343  0.00  0.00     0.129 H 
ATOM     87  H37 non d ame     -31.467   9.736  22.098  0.00  0.00     0.046 H 
BRANCH  83  88
ATOM     88  O6  non d ame     -30.139   7.314  22.677  0.00  0.00    -0.369 OA
ATOM     89  H45 non d ame     -29.694   6.612  22.194  0.00  0.00     0.212 HD
ENDBRANCH  83  88
ENDBRANCH  72  75
ENDBRANCH  47  72
ENDBRANCH  45  47
ENDBRANCH   1  43
BRANCH   1  90
ATOM     90  C16 non d ame     -35.959  11.067  26.186  0.00  0.00    -0.035 C 
ATOM     91  H21 non d ame     -35.941  11.684  27.083  0.00  0.00     0.037 H 
ATOM     92  H22 non d ame     -35.213  11.216  25.405  0.00  0.00     0.037 H 
BRANCH  90  93
ATOM     93  C17 non d ame     -37.352  11.304  25.518  0.00  0.00    -0.059 C 
ATOM     94  H23 non d ame     -37.622  10.391  24.987  0.00  0.00     0.038 H 
BRANCH  93  95
ATOM     95  C18 non d ame     -38.469  11.591  26.571  0.00  0.00    -0.073 C 
ATOM     96  H24 non d ame     -39.312  12.081  26.082  0.00  0.00     0.028 H 
ATOM     97  H25 non d ame     -38.803  10.652  27.012  0.00  0.00     0.028 H 
ATOM     98  H26 non d ame     -38.075  12.240  27.352  0.00  0.00     0.028 H 
ENDBRANCH  93  95
BRANCH  93  99
ATOM     99  C19 non d ame     -37.277  12.429  24.482  0.00  0.00    -0.073 C 
ATOM    100  H27 non d ame     -37.047  12.006  23.503  0.00  0.00     0.028 H 
ATOM    101  H28 non d ame     -38.235  12.946  24.437  0.00  0.00     0.028 H 
ATOM    102  H29 non d ame     -36.496  13.134  24.767  0.00  0.00     0.028 H 
ENDBRANCH  93  99
ENDBRANCH  90  93
ENDBRANCH   1  90
TORSDOF 26
ENDMDL
MODEL 19
REMARK VINA RESULT:      -6.5      3.348      9.998
REMARK  26 active torsions:
REMARK  status: ('A' for Active; 'I' for Inactive)
REMARK    1  A    between atoms: C2_2  and  C3_3 
REMARK    2  A    between atoms: C4_6  and  C5_7 
REMARK       I    between atoms: C5_7  and  N2_9 
REMARK    3  A    between atoms: N2_9  and  C6_10 
REMARK    4  A    between atoms: C6_10  and  C7_11 
REMARK    5  A    between atoms: C6_10  and  C8_13 
REMARK       I    between atoms: C7_11  and  N3_14 
REMARK    6  A    between atoms: N3_14  and  C9_15 
REMARK    7  A    between atoms: C9_15  and  C10_16 
REMARK    8  A    between atoms: C9_15  and  C11_18 
REMARK       I    between atoms: C10_16  and  N4_21 
REMARK    9  A    between atoms: C11_18  and  C12_19 
REMARK   10  A    between atoms: C11_18  and  C13_20 
REMARK   11  A    between atoms: N4_21  and  C14_22 
REMARK   12  A    between atoms: C14_22  and  C15_23 
REMARK   13  A    between atoms: C14_22  and  C16_25 
REMARK       I    between atoms: C15_23  and  N6_40 
REMARK   14  A    between atoms: C16_25  and  C17_26 
REMARK   15  A    between atoms: C17_26  and  C18_27 
REMARK   16  A    between atoms: C17_26  and  C19_28 
REMARK   17  A    between atoms: C20_29  and  C21_30 
REMARK   18  A    between atoms: C20_29  and  C24_33 
REMARK   19  A    between atoms: C20_29  and  N6_40 
REMARK   20  A    between atoms: C21_30  and  C22_31 
REMARK   21  A    between atoms: C22_31  and  C23_32 
REMARK   22  A    between atoms: C23_32  and  O8_43 
REMARK   23  A    between atoms: C24_33  and  C25_34 
REMARK   24  A    between atoms: C28_38  and  O6_39 
REMARK   25  A    between atoms: C29_42  and  O8_43 
REMARK   26  A    between atoms: C29_42  and  C35_49 
ROOT
ATOM      1  C14 non d ame     -36.087  13.189  25.829  0.00  0.00     0.089 C 
ATOM      2  H20 non d ame     -36.736  13.106  26.701  0.00  0.00     0.087 H 
ENDROOT
BRANCH   1   3
ATOM      3  N4  non d ame     -36.001  14.599  25.479  0.00  0.00    -0.346 N 
ATOM      4  C10 non d ame     -36.858  15.614  26.191  0.00  0.00     0.241 C 
ATOM      5  O4  non d ame     -37.613  15.273  27.041  0.00  0.00    -0.271 OA
ATOM      6  H19 non d ame     -35.354  14.868  24.751  0.00  0.00     0.163 HD
BRANCH   4   7
ATOM      7  C9  non d ame     -36.752  17.070  25.820  0.00  0.00     0.092 C 
ATOM      8  H11 non d ame     -37.165  17.676  26.626  0.00  0.00     0.088 H 
BRANCH   7   9
ATOM      9  N3  non d ame     -35.340  17.438  25.680  0.00  0.00    -0.346 N 
ATOM     10  C7  non d ame     -34.585  17.848  26.838  0.00  0.00     0.240 C 
ATOM     11  O3  non d ame     -35.097  17.888  27.890  0.00  0.00    -0.271 OA
ATOM     12  H10 non d ame     -34.885  17.410  24.779  0.00  0.00     0.163 HD
BRANCH  10  13
ATOM     13  C6  non d ame     -33.083  18.241  26.683  0.00  0.00     0.086 C 
ATOM     14  H6  non d ame     -32.461  17.858  27.492  0.00  0.00     0.086 H 
BRANCH  13  15
ATOM     15  N2  non d ame     -32.568  17.663  25.454  0.00  0.00    -0.343 N 
ATOM     16  C5  non d ame     -31.872  16.375  25.498  0.00  0.00     0.273 C 
ATOM     17  O2  non d ame     -31.729  15.813  26.528  0.00  0.00    -0.266 OA
ATOM     18  H5  non d ame     -32.692  18.151  24.578  0.00  0.00     0.163 HD
BRANCH  16  19
ATOM     19  C4  non d ame     -31.324  15.752  24.204  0.00  0.00     0.154 A 
ATOM     20  C1  non d ame     -30.596  14.527  24.076  0.00  0.00    -0.017 A 
ATOM     21  C2  non d ame     -30.326  14.408  22.695  0.00  0.00     0.077 A 
ATOM     22  H1  non d ame     -30.308  13.831  24.864  0.00  0.00     0.091 H 
ATOM     23  O1  non d ame     -30.843  15.446  22.107  0.00  0.00    -0.218 OA
ATOM     24  N1  non d ame     -31.431  16.245  22.968  0.00  0.00    -0.123 NA
BRANCH  21  25
ATOM     25  C3  non d ame     -29.570  13.272  22.018  0.00  0.00    -0.029 C 
ATOM     26  H2  non d ame     -29.117  12.634  22.776  0.00  0.00     0.036 H 
ATOM     27  H3  non d ame     -30.262  12.683  21.416  0.00  0.00     0.036 H 
ATOM     28  H4  non d ame     -28.791  13.684  21.377  0.00  0.00     0.036 H 
ENDBRANCH  21  25
ENDBRANCH  16  19
ENDBRANCH  13  15
BRANCH  13  29
ATOM     29  C8  non d ame     -32.956  19.743  26.642  0.00  0.00    -0.049 C 
ATOM     30  H7  non d ame     -33.270  20.107  25.664  0.00  0.00     0.030 H 
ATOM     31  H8  non d ame     -33.587  20.183  27.413  0.00  0.00     0.030 H 
ATOM     32  H9  non d ame     -31.916  20.024  26.818  0.00  0.00     0.030 H 
ENDBRANCH  13  29
ENDBRANCH  10  13
ENDBRANCH   7   9
BRANCH   7  33
ATOM     33  C11 non d ame     -37.485  17.314  24.468  0.00  0.00    -0.033 C 
ATOM     34  H12 non d ame     -36.987  16.709  23.710  0.00  0.00     0.042 H 
BRANCH  33  35
ATOM     35  C12 non d ame     -38.973  16.850  24.536  0.00  0.00    -0.071 C 
ATOM     36  H13 non d ame     -39.089  16.118  25.336  0.00  0.00     0.028 H 
ATOM     37  H14 non d ame     -39.614  17.709  24.734  0.00  0.00     0.028 H 
ATOM     38  H15 non d ame     -39.256  16.395  23.587  0.00  0.00     0.028 H 
ENDBRANCH  33  35
BRANCH  33  39
ATOM     39  C13 non d ame     -37.378  18.812  24.036  0.00  0.00    -0.071 C 
ATOM     40  H16 non d ame     -37.062  19.414  24.888  0.00  0.00     0.028 H 
ATOM     41  H17 non d ame     -36.648  18.908  23.232  0.00  0.00     0.028 H 
ATOM     42  H18 non d ame     -38.349  19.160  23.686  0.00  0.00     0.028 H 
ENDBRANCH  33  39
ENDBRANCH   7  33
ENDBRANCH   4   7
ENDBRANCH   1   3
BRANCH   1  43
ATOM     43  C15 non d ame     -34.652  12.660  26.114  0.00  0.00     0.240 C 
ATOM     44  O5  non d ame     -33.712  13.355  25.898  0.00  0.00    -0.271 OA
ATOM     45  N6  non d ame     -34.449  11.290  26.665  0.00  0.00    -0.355 N 
ATOM     46  H46 non d ame     -35.240  10.692  26.857  0.00  0.00     0.162 HD
BRANCH  45  47
ATOM     47  C20 non d ame     -33.078  10.803  26.931  0.00  0.00     0.013 C 
ATOM     48  H30 non d ame     -32.385  11.612  26.699  0.00  0.00     0.072 H 
BRANCH  47  49
ATOM     49  C21 non d ame     -32.792   9.607  26.052  0.00  0.00    -0.038 C 
ATOM     50  H31 non d ame     -31.753   9.340  26.246  0.00  0.00     0.036 H 
ATOM     51  H32 non d ame     -33.588   8.892  26.261  0.00  0.00     0.036 H 
BRANCH  49  52
ATOM     52  C22 non d ame     -32.885   9.935  24.545  0.00  0.00     0.018 C 
ATOM     53  H33 non d ame     -33.285   9.040  24.073  0.00  0.00     0.048 H 
ATOM     54  H34 non d ame     -33.431  10.877  24.482  0.00  0.00     0.048 H 
BRANCH  52  55
ATOM     55  C23 non d ame     -31.507  10.194  23.875  0.00  0.00     0.259 C 
ATOM     56  O7  non d ame     -30.717  10.923  24.383  0.00  0.00    -0.265 OA
BRANCH  55  57
ATOM     57  O8  non d ame     -31.203   9.560  22.638  0.00  0.00    -0.317 OA
BRANCH  57  58
ATOM     58  C29 non d ame     -30.388   8.391  22.767  0.00  0.00     0.052 C 
ATOM     59  H47 non d ame     -29.852   8.300  21.823  0.00  0.00     0.082 H 
ATOM     60  H48 non d ame     -29.837   8.517  23.698  0.00  0.00     0.082 H 
BRANCH  58  61
ATOM     61  C35 non d ame     -31.330   7.166  22.919  0.00  0.00    -0.034 A 
ATOM     62  C30 non d ame     -32.062   6.712  21.825  0.00  0.00    -0.075 A 
ATOM     63  C31 non d ame     -32.909   5.613  21.961  0.00  0.00    -0.082 A 
ATOM     64  H49 non d ame     -31.974   7.218  20.864  0.00  0.00     0.084 H 
ATOM     65  C32 non d ame     -33.023   4.967  23.195  0.00  0.00    -0.083 A 
ATOM     66  H50 non d ame     -33.480   5.258  21.102  0.00  0.00     0.083 H 
ATOM     67  C33 non d ame     -32.293   5.427  24.283  0.00  0.00    -0.082 A 
ATOM     68  H51 non d ame     -33.682   4.106  23.309  0.00  0.00     0.083 H 
ATOM     69  C34 non d ame     -31.445   6.524  24.152  0.00  0.00    -0.075 A 
ATOM     70  H52 non d ame     -32.386   4.923  25.246  0.00  0.00     0.083 H 
ATOM     71  H53 non d ame     -30.874   6.878  25.011  0.00  0.00     0.084 H 
ENDBRANCH  58  61
ENDBRANCH  57  58
ENDBRANCH  55  57
ENDBRANCH  52  55
ENDBRANCH  49  52
ENDBRANCH  47  49
BRANCH  47  72
ATOM     72  C24 non d ame     -32.949  10.400  28.399  0.00  0.00    -0.039 C 
ATOM     73  H35 non d ame     -33.848   9.825  28.621  0.00  0.00     0.036 H 
ATOM     74  H36 non d ame     -31.968   9.933  28.487  0.00  0.00     0.036 H 
BRANCH  72  75
ATOM     75  C25 non d ame     -32.954  11.677  29.367  0.00  0.00    -0.001 C 
ATOM     76  C26 non d ame     -31.651  12.627  29.046  0.00  0.00    -0.035 C 
ATOM     77  C27 non d ame     -31.000  12.882  30.207  0.00  0.00     0.085 C 
ATOM     78  H38 non d ame     -30.919  12.073  28.460  0.00  0.00     0.036 H 
ATOM     79  H39 non d ame     -31.979  13.613  28.716  0.00  0.00     0.036 H 
ATOM     80  N5  non d ame     -31.549  11.926  31.239  0.00  0.00    -0.049 N 
ATOM     81  H40 non d ame     -29.956  12.636  30.014  0.00  0.00     0.075 H 
ATOM     82  H41 non d ame     -31.279  13.899  30.480  0.00  0.00     0.075 H 
ATOM     83  C28 non d ame     -32.906  11.322  30.607  0.00  0.00     0.193 C 
ATOM     84  H42 non d ame     -30.875  11.181  31.326  0.00  0.00     0.280 HD
ATOM     85  H43 non d ame     -31.790  12.486  32.045  0.00  0.00     0.280 HD
ATOM     86  H44 non d ame     -33.880  11.672  30.951  0.00  0.00     0.129 H 
ATOM     87  H37 non d ame     -33.927  12.165  29.401  0.00  0.00     0.046 H 
BRANCH  83  88
ATOM     88  O6  non d ame     -32.933   9.902  30.764  0.00  0.00    -0.369 OA
ATOM     89  H45 non d ame     -32.083   9.600  31.094  0.00  0.00     0.212 HD
ENDBRANCH  83  88
ENDBRANCH  72  75
ENDBRANCH  47  72
ENDBRANCH  45  47
ENDBRANCH   1  43
BRANCH   1  90
ATOM     90  C16 non d ame     -36.691  12.423  24.662  0.00  0.00    -0.035 C 
ATOM     91  H21 non d ame     -37.143  13.181  24.024  0.00  0.00     0.037 H 
ATOM     92  H22 non d ame     -35.885  11.797  24.280  0.00  0.00     0.037 H 
BRANCH  90  93
ATOM     93  C17 non d ame     -37.843  11.454  25.079  0.00  0.00    -0.059 C 
ATOM     94  H23 non d ame     -37.429  10.447  25.118  0.00  0.00     0.038 H 
BRANCH  93  95
ATOM     95  C18 non d ame     -38.413  11.789  26.494  0.00  0.00    -0.073 C 
ATOM     96  H24 non d ame     -38.888  12.770  26.473  0.00  0.00     0.028 H 
ATOM     97  H25 non d ame     -39.149  11.037  26.777  0.00  0.00     0.028 H 
ATOM     98  H26 non d ame     -37.601  11.795  27.221  0.00  0.00     0.028 H 
ENDBRANCH  93  95
BRANCH  93  99
ATOM     99  C19 non d ame     -38.959  11.448  24.031  0.00  0.00    -0.073 C 
ATOM    100  H27 non d ame     -38.762  12.220  23.286  0.00  0.00     0.028 H 
ATOM    101  H28 non d ame     -38.995  10.474  23.542  0.00  0.00     0.028 H 
ATOM    102  H29 non d ame     -39.914  11.646  24.516  0.00  0.00     0.028 H 
ENDBRANCH  93  99
ENDBRANCH  90  93
ENDBRANCH   1  90
TORSDOF 26
ENDMDL
MODEL 20
REMARK VINA RESULT:      -6.4      2.554      6.474
REMARK  26 active torsions:
REMARK  status: ('A' for Active; 'I' for Inactive)
REMARK    1  A    between atoms: C2_2  and  C3_3 
REMARK    2  A    between atoms: C4_6  and  C5_7 
REMARK       I    between atoms: C5_7  and  N2_9 
REMARK    3  A    between atoms: N2_9  and  C6_10 
REMARK    4  A    between atoms: C6_10  and  C7_11 
REMARK    5  A    between atoms: C6_10  and  C8_13 
REMARK       I    between atoms: C7_11  and  N3_14 
REMARK    6  A    between atoms: N3_14  and  C9_15 
REMARK    7  A    between atoms: C9_15  and  C10_16 
REMARK    8  A    between atoms: C9_15  and  C11_18 
REMARK       I    between atoms: C10_16  and  N4_21 
REMARK    9  A    between atoms: C11_18  and  C12_19 
REMARK   10  A    between atoms: C11_18  and  C13_20 
REMARK   11  A    between atoms: N4_21  and  C14_22 
REMARK   12  A    between atoms: C14_22  and  C15_23 
REMARK   13  A    between atoms: C14_22  and  C16_25 
REMARK       I    between atoms: C15_23  and  N6_40 
REMARK   14  A    between atoms: C16_25  and  C17_26 
REMARK   15  A    between atoms: C17_26  and  C18_27 
REMARK   16  A    between atoms: C17_26  and  C19_28 
REMARK   17  A    between atoms: C20_29  and  C21_30 
REMARK   18  A    between atoms: C20_29  and  C24_33 
REMARK   19  A    between atoms: C20_29  and  N6_40 
REMARK   20  A    between atoms: C21_30  and  C22_31 
REMARK   21  A    between atoms: C22_31  and  C23_32 
REMARK   22  A    between atoms: C23_32  and  O8_43 
REMARK   23  A    between atoms: C24_33  and  C25_34 
REMARK   24  A    between atoms: C28_38  and  O6_39 
REMARK   25  A    between atoms: C29_42  and  O8_43 
REMARK   26  A    between atoms: C29_42  and  C35_49 
ROOT
ATOM      1  C14 non d ame     -33.728   5.093  25.605  0.00  0.00     0.089 C 
ATOM      2  H20 non d ame     -33.201   4.241  26.035  0.00  0.00     0.087 H 
ENDROOT
BRANCH   1   3
ATOM      3  N4  non d ame     -34.762   5.491  26.549  0.00  0.00    -0.346 N 
ATOM      4  C10 non d ame     -34.700   5.032  27.984  0.00  0.00     0.241 C 
ATOM      5  O4  non d ame     -33.810   4.341  28.356  0.00  0.00    -0.271 OA
ATOM      6  H19 non d ame     -35.512   6.076  26.212  0.00  0.00     0.163 HD
BRANCH   4   7
ATOM      7  C9  non d ame     -35.776   5.457  28.949  0.00  0.00     0.092 C 
ATOM      8  H11 non d ame     -35.682   4.879  29.868  0.00  0.00     0.088 H 
BRANCH   7   9
ATOM      9  N3  non d ame     -35.587   6.868  29.302  0.00  0.00    -0.346 N 
ATOM     10  C7  non d ame     -35.110   7.224  30.615  0.00  0.00     0.240 C 
ATOM     11  O3  non d ame     -34.874   6.389  31.401  0.00  0.00    -0.271 OA
ATOM     12  H10 non d ame     -35.788   7.599  28.635  0.00  0.00     0.163 HD
BRANCH  10  13
ATOM     13  C6  non d ame     -34.914   8.726  30.987  0.00  0.00     0.086 C 
ATOM     14  H6  non d ame     -33.874   8.978  31.192  0.00  0.00     0.086 H 
BRANCH  13  15
ATOM     15  N2  non d ame     -35.326   9.548  29.861  0.00  0.00    -0.343 N 
ATOM     16  C5  non d ame     -34.313  10.255  29.075  0.00  0.00     0.273 C 
ATOM     17  O2  non d ame     -33.169  10.160  29.358  0.00  0.00    -0.266 OA
ATOM     18  H5  non d ame     -36.306   9.627  29.628  0.00  0.00     0.163 HD
BRANCH  16  19
ATOM     19  C4  non d ame     -34.735  11.127  27.881  0.00  0.00     0.154 A 
ATOM     20  C1  non d ame     -34.393  12.496  27.647  0.00  0.00    -0.017 A 
ATOM     21  C2  non d ame     -35.024  12.825  26.427  0.00  0.00     0.077 A 
ATOM     22  H1  non d ame     -33.780  13.151  28.268  0.00  0.00     0.091 H 
ATOM     23  O1  non d ame     -35.651  11.762  26.016  0.00  0.00    -0.218 OA
ATOM     24  N1  non d ame     -35.497  10.758  26.849  0.00  0.00    -0.123 NA
BRANCH  21  25
ATOM     25  C3  non d ame     -34.977  14.174  25.722  0.00  0.00    -0.029 C 
ATOM     26  H2  non d ame     -34.130  14.197  25.037  0.00  0.00     0.036 H 
ATOM     27  H3  non d ame     -35.900  14.323  25.161  0.00  0.00     0.036 H 
ATOM     28  H4  non d ame     -34.869  14.967  26.461  0.00  0.00     0.036 H 
ENDBRANCH  21  25
ENDBRANCH  16  19
ENDBRANCH  13  15
BRANCH  13  29
ATOM     29  C8  non d ame     -35.744   9.059  32.200  0.00  0.00    -0.049 C 
ATOM     30  H7  non d ame     -36.271   8.168  32.537  0.00  0.00     0.030 H 
ATOM     31  H8  non d ame     -35.093   9.418  32.998  0.00  0.00     0.030 H 
ATOM     32  H9  non d ame     -36.467   9.835  31.945  0.00  0.00     0.030 H 
ENDBRANCH  13  29
ENDBRANCH  10  13
ENDBRANCH   7   9
BRANCH   7  33
ATOM     33  C11 non d ame     -37.171   5.275  28.282  0.00  0.00    -0.033 C 
ATOM     34  H12 non d ame     -37.200   5.913  27.399  0.00  0.00     0.042 H 
BRANCH  33  35
ATOM     35  C12 non d ame     -37.385   3.805  27.805  0.00  0.00    -0.071 C 
ATOM     36  H13 non d ame     -37.285   3.756  26.720  0.00  0.00     0.028 H 
ATOM     37  H14 non d ame     -36.638   3.160  28.267  0.00  0.00     0.028 H 
ATOM     38  H15 non d ame     -38.382   3.470  28.092  0.00  0.00     0.028 H 
ENDBRANCH  33  35
BRANCH  33  39
ATOM     39  C13 non d ame     -38.315   5.730  29.244  0.00  0.00    -0.071 C 
ATOM     40  H16 non d ame     -39.271   5.361  28.873  0.00  0.00     0.028 H 
ATOM     41  H17 non d ame     -38.132   5.330  30.242  0.00  0.00     0.028 H 
ATOM     42  H18 non d ame     -38.339   6.819  29.290  0.00  0.00     0.028 H 
ENDBRANCH  33  39
ENDBRANCH   7  33
ENDBRANCH   4   7
ENDBRANCH   1   3
BRANCH   1  43
ATOM     43  C15 non d ame     -32.784   6.306  25.365  0.00  0.00     0.240 C 
ATOM     44  O5  non d ame     -31.764   6.390  25.969  0.00  0.00    -0.271 OA
ATOM     45  N6  non d ame     -33.146   7.358  24.372  0.00  0.00    -0.355 N 
ATOM     46  H46 non d ame     -34.007   7.294  23.849  0.00  0.00     0.162 HD
BRANCH  45  47
ATOM     47  C20 non d ame     -32.237   8.504  24.155  0.00  0.00     0.013 C 
ATOM     48  H30 non d ame     -31.246   8.216  24.505  0.00  0.00     0.072 H 
BRANCH  47  49
ATOM     49  C21 non d ame     -32.738   9.695  24.939  0.00  0.00    -0.038 C 
ATOM     50  H31 non d ame     -32.758  10.525  24.232  0.00  0.00     0.036 H 
ATOM     51  H32 non d ame     -33.659   9.365  25.419  0.00  0.00     0.036 H 
BRANCH  49  52
ATOM     52  C22 non d ame     -31.778  10.111  26.075  0.00  0.00     0.018 C 
ATOM     53  H33 non d ame     -32.329   9.949  27.001  0.00  0.00     0.048 H 
ATOM     54  H34 non d ame     -30.850   9.569  25.890  0.00  0.00     0.048 H 
BRANCH  52  55
ATOM     55  C23 non d ame     -31.404  11.619  26.058  0.00  0.00     0.259 C 
ATOM     56  O7  non d ame     -31.066  12.168  27.057  0.00  0.00    -0.265 OA
BRANCH  55  57
ATOM     57  O8  non d ame     -31.482  12.343  24.835  0.00  0.00    -0.317 OA
BRANCH  57  58
ATOM     58  C29 non d ame     -31.352  13.759  24.987  0.00  0.00     0.052 C 
ATOM     59  H47 non d ame     -32.354  14.126  25.206  0.00  0.00     0.082 H 
ATOM     60  H48 non d ame     -30.547  13.907  25.706  0.00  0.00     0.082 H 
BRANCH  58  61
ATOM     61  C35 non d ame     -30.902  14.347  23.622  0.00  0.00    -0.034 A 
ATOM     62  C30 non d ame     -31.470  15.527  23.152  0.00  0.00    -0.075 A 
ATOM     63  C31 non d ame     -31.066  16.055  21.926  0.00  0.00    -0.082 A 
ATOM     64  H49 non d ame     -32.230  16.038  23.742  0.00  0.00     0.084 H 
ATOM     65  C32 non d ame     -30.093  15.398  21.169  0.00  0.00    -0.083 A 
ATOM     66  H50 non d ame     -31.512  16.982  21.560  0.00  0.00     0.083 H 
ATOM     67  C33 non d ame     -29.533  14.218  21.641  0.00  0.00    -0.082 A 
ATOM     68  H51 non d ame     -29.771  15.804  20.209  0.00  0.00     0.083 H 
ATOM     69  C34 non d ame     -29.931  13.688  22.866  0.00  0.00    -0.075 A 
ATOM     70  H52 non d ame     -28.775  13.706  21.046  0.00  0.00     0.083 H 
ATOM     71  H53 non d ame     -29.485  12.763  23.231  0.00  0.00     0.084 H 
ENDBRANCH  58  61
ENDBRANCH  57  58
ENDBRANCH  55  57
ENDBRANCH  52  55
ENDBRANCH  49  52
ENDBRANCH  47  49
BRANCH  47  72
ATOM     72  C24 non d ame     -32.193   8.853  22.668  0.00  0.00    -0.039 C 
ATOM     73  H35 non d ame     -33.003   8.282  22.213  0.00  0.00     0.036 H 
ATOM     74  H36 non d ame     -32.203   9.942  22.626  0.00  0.00     0.036 H 
BRANCH  72  75
ATOM     75  C25 non d ame     -30.828   8.366  21.985  0.00  0.00    -0.001 C 
ATOM     76  C26 non d ame     -30.253   7.039  22.768  0.00  0.00    -0.035 C 
ATOM     77  C27 non d ame     -28.955   7.252  23.092  0.00  0.00     0.085 C 
ATOM     78  H38 non d ame     -30.743   6.933  23.735  0.00  0.00     0.036 H 
ATOM     79  H39 non d ame     -30.209   6.191  22.084  0.00  0.00     0.036 H 
ATOM     80  N5  non d ame     -28.687   8.725  22.894  0.00  0.00    -0.049 N 
ATOM     81  H40 non d ame     -28.878   7.015  24.153  0.00  0.00     0.075 H 
ATOM     82  H41 non d ame     -28.376   6.685  22.364  0.00  0.00     0.075 H 
ATOM     83  C28 non d ame     -29.928   9.290  22.030  0.00  0.00     0.193 C 
ATOM     84  H42 non d ame     -28.716   9.146  23.811  0.00  0.00     0.280 HD
ATOM     85  H43 non d ame     -27.849   8.789  22.335  0.00  0.00     0.280 HD
ATOM     86  H44 non d ame     -29.810   9.502  20.967  0.00  0.00     0.129 H 
ATOM     87  H37 non d ame     -30.909   8.305  20.900  0.00  0.00     0.046 H 
BRANCH  83  88
ATOM     88  O6  non d ame     -30.423  10.498  22.609  0.00  0.00    -0.369 OA
ATOM     89  H45 non d ame     -31.336  10.372  22.881  0.00  0.00     0.212 HD
ENDBRANCH  83  88
ENDBRANCH  72  75
ENDBRANCH  47  72
ENDBRANCH  45  47
ENDBRANCH   1  43
BRANCH   1  90
ATOM     90  C16 non d ame     -34.381   4.686  24.294  0.00  0.00    -0.035 C 
ATOM     91  H21 non d ame     -35.113   3.925  24.561  0.00  0.00     0.037 H 
ATOM     92  H22 non d ame     -34.707   5.619  23.833  0.00  0.00     0.037 H 
BRANCH  90  93
ATOM     93  C17 non d ame     -33.396   4.015  23.285  0.00  0.00    -0.059 C 
ATOM     94  H23 non d ame     -32.390   4.108  23.695  0.00  0.00     0.038 H 
BRANCH  93  95
ATOM     95  C18 non d ame     -33.692   2.494  23.094  0.00  0.00    -0.073 C 
ATOM     96  H24 non d ame     -34.679   2.262  23.496  0.00  0.00     0.028 H 
ATOM     97  H25 non d ame     -33.667   2.249  22.033  0.00  0.00     0.028 H 
ATOM     98  H26 non d ame     -32.939   1.907  23.621  0.00  0.00     0.028 H 
ENDBRANCH  93  95
BRANCH  93  99
ATOM     99  C19 non d ame     -33.409   4.745  21.940  0.00  0.00    -0.073 C 
ATOM    100  H27 non d ame     -32.665   5.543  21.952  0.00  0.00     0.028 H 
ATOM    101  H28 non d ame     -33.173   4.042  21.141  0.00  0.00     0.028 H 
ATOM    102  H29 non d ame     -34.396   5.172  21.768  0.00  0.00     0.028 H 
ENDBRANCH  93  99
ENDBRANCH  90  93
ENDBRANCH   1  90
TORSDOF 26
ENDMDL
