@<TRIPOS>MOLECULE
crystal_redock_e24_er3_1.pdbqt
 102 104 0 0 0
SMALL
GASTEIGER

@<TRIPOS>ATOM
      1 C         -11.9690   13.8700   69.7240 C.3     1  UNL11       0.0890
      2 H         -12.9380   13.3770   69.6380 H       1  UNL11       0.0870
      3 N         -10.9430   12.8550   69.5300 N.am    1  UNL11      -0.3460
      4 C         -11.2990   11.5160   68.9370 C.2     1  UNL11       0.2410
      5 O         -12.4200   11.2760   68.6260 O.2     1  UNL11      -0.2710
      6 H          -9.9960   13.0790   69.8030 H       1  UNL11       0.1630
      7 C         -10.2240   10.4800   68.7370 C.3     1  UNL11       0.0920
      8 H         -10.1100   10.2830   67.6710 H       1  UNL11       0.0880
      9 N          -8.9440   11.0050   69.2210 N.am    1  UNL11      -0.3460
     10 C          -7.8700   11.2550   68.2900 C.2     1  UNL11       0.2400
     11 O          -8.0200   11.0390   67.1500 O.2     1  UNL11      -0.2710
     12 H          -8.8000   11.1950   70.2020 H       1  UNL11       0.1630
     13 C          -6.5090   11.8110   68.8110 C.3     1  UNL11       0.0860
     14 H          -5.6770   11.5810   68.1450 H       1  UNL11       0.0860
     15 N          -6.5900   13.2600   68.8890 N.am    1  UNL11      -0.3430
     16 C          -5.7280   14.0780   68.0340 C.2     1  UNL11       0.2730
     17 O          -4.9700   13.5610   67.2890 O.2     1  UNL11      -0.2660
     18 H          -7.2390   13.6940   69.5310 H       1  UNL11       0.1630
     19 C          -5.8040   15.6120   68.1050 C.ar    1  UNL11       0.1540
     20 C          -5.1080   16.5510   67.2800 C.ar    1  UNL11      -0.0170
     21 C          -5.5210   17.8200   67.7470 C.ar    1  UNL11       0.0770
     22 H          -4.4110   16.3450   66.4680 H       1  UNL11       0.0910
     23 O          -6.3560   17.6200   68.7240 O.2     1  UNL11      -0.2180
     24 N          -6.5370   16.3400   68.9520 N.ar    1  UNL11      -0.1230
     25 C          -5.0710   19.1700   67.2050 C.3     1  UNL11      -0.0290
     26 H          -5.3220   19.2390   66.1460 H       1  UNL11       0.0360
     27 H          -5.5750   19.9670   67.7510 H       1  UNL11       0.0360
     28 H          -3.9920   19.2700   67.3290 H       1  UNL11       0.0360
     29 C          -6.2160   11.2360   70.1730 C.3     1  UNL11      -0.0490
     30 H          -6.7860   10.3160   70.3100 H       1  UNL11       0.0300
     31 H          -5.1510   11.0190   70.2550 H       1  UNL11       0.0300
     32 H          -6.5010   11.9560   70.9400 H       1  UNL11       0.0300
     33 C         -10.5890    9.1940   69.5350 C.3     1  UNL11      -0.0330
     34 H         -11.5650    8.8570   69.1870 H       1  UNL11       0.0420
     35 C          -9.5700    8.0450   69.2580 C.3     1  UNL11      -0.0710
     36 H          -9.9890    7.3570   68.5230 H       1  UNL11       0.0280
     37 H          -8.6430    8.4680   68.8710 H       1  UNL11       0.0280
     38 H          -9.3660    7.5090   70.1840 H       1  UNL11       0.0280
     39 C         -10.6990    9.4960   71.0640 C.3     1  UNL11      -0.0710
     40 H          -9.7440    9.8710   71.4300 H       1  UNL11       0.0280
     41 H         -11.4720   10.2480   71.2310 H       1  UNL11       0.0280
     42 H         -10.9600    8.5820   71.5970 H       1  UNL11       0.0280
     43 C         -11.7770   14.9800   68.6520 C.2     1  UNL11       0.2400
     44 O         -12.2500   16.0570   68.8250 O.2     1  UNL11      -0.2710
     45 N         -10.9950   14.7040   67.4130 N.am    1  UNL11      -0.3550
     46 H         -10.5840   13.7950   67.2580 H       1  UNL11       0.1620
     47 C         -10.8200   15.7710   66.4040 C.3     1  UNL11       0.0130
     48 H         -11.7150   16.3930   66.4150 H       1  UNL11       0.0720
     49 C         -10.6430   15.1440   65.0400 C.3     1  UNL11      -0.0380
     50 H         -10.5520   15.9770   64.3420 H       1  UNL11       0.0360
     51 H          -9.8250   14.4320   65.1480 H       1  UNL11       0.0360
     52 C         -11.8750   14.3300   64.5900 C.3     1  UNL11       0.0180
     53 H         -12.4690   14.1720   65.4900 H       1  UNL11       0.0480
     54 H         -12.2980   14.8760   63.7460 H       1  UNL11       0.0480
     55 C         -11.5270   12.9140   64.0520 C.2     1  UNL11       0.2590
     56 O         -12.2820   12.3380   63.3380 O.2     1  UNL11      -0.2650
     57 O         -10.2990   12.3060   64.4320 O.3     1  UNL11      -0.3170
     58 C         -10.3360   10.8760   64.4450 C.3     1  UNL11       0.0520
     59 H         -10.0280   10.5820   65.4480 H       1  UNL11       0.0820
     60 H         -11.3240   10.6040   64.0760 H       1  UNL11       0.0820
     61 C          -9.2760   10.3610   63.4350 C.ar    1  UNL11      -0.0340
     62 C          -8.8550   11.1770   62.3900 C.ar    1  UNL11      -0.0750
     63 C          -7.9030   10.7140   61.4830 C.ar    1  UNL11      -0.0820
     64 H          -9.2710   12.1780   62.2810 H       1  UNL11       0.0840
     65 C          -7.3730    9.4280   61.6230 C.ar    1  UNL11      -0.0830
     66 H          -7.5740   11.3560   60.6660 H       1  UNL11       0.0830
     67 C          -7.7980    8.6170   62.6660 C.ar    1  UNL11      -0.0820
     68 H          -6.6280    9.0590   60.9180 H       1  UNL11       0.0830
     69 C          -8.7480    9.0760   63.5760 C.ar    1  UNL11      -0.0750
     70 H          -7.3840    7.6140   62.7710 H       1  UNL11       0.0830
     71 H          -9.0760    8.4330   64.3930 H       1  UNL11       0.0840
     72 C          -9.5890   16.6080   66.7450 C.3     1  UNL11      -0.0390
     73 H          -9.1420   16.1260   67.6150 H       1  UNL11       0.0360
     74 H          -9.0240   16.6850   65.8160 H       1  UNL11       0.0360
     75 C          -9.9860   18.0970   67.1820 C.3     1  UNL11      -0.0010
     76 C          -9.0930   19.1870   66.3340 C.3     1  UNL11      -0.0350
     77 C          -8.5230   20.0550   67.2040 C.3     1  UNL11       0.0850
     78 H          -8.2400   18.6910   65.8710 H       1  UNL11       0.0360
     79 H          -9.7470   19.8200   65.7340 H       1  UNL11       0.0360
     80 N          -8.6780   19.4630   68.5840 N.4     1  UNL11      -0.0490
     81 H          -7.4640   20.0750   66.9430 H       1  UNL11       0.0750
     82 H          -9.1180   20.9650   67.1390 H       1  UNL11       0.0750
     83 C          -9.7750   18.2870   68.4420 C.3     1  UNL11       0.1930
     84 H          -7.7880   19.0460   68.8180 H       1  UNL11       0.2800
     85 H          -9.0630   20.1920   69.1660 H       1  UNL11       0.2800
     86 H         -10.7960   18.4360   68.7940 H       1  UNL11       0.1290
     87 H         -11.0660   18.2480   67.2010 H       1  UNL11       0.0460
     88 O          -9.3150   17.1020   69.0960 O.3     1  UNL11      -0.3690
     89 H          -8.3900   17.2050   69.3300 H       1  UNL11       0.2120
     90 C         -11.8170   14.4680   71.1140 C.3     1  UNL11      -0.0350
     91 H         -10.9800   13.9370   71.5670 H       1  UNL11       0.0370
     92 H         -11.7590   15.5460   70.9590 H       1  UNL11       0.0370
     93 C         -13.0500   14.2220   72.0400 C.3     1  UNL11      -0.0590
     94 H         -12.7590   14.4900   73.0560 H       1  UNL11       0.0380
     95 C         -14.2720   15.1100   71.6440 C.3     1  UNL11      -0.0730
     96 H         -14.0790   15.5860   70.6820 H       1  UNL11       0.0280
     97 H         -15.1640   14.4890   71.5690 H       1  UNL11       0.0280
     98 H         -14.4260   15.8760   72.4040 H       1  UNL11       0.0280
     99 C         -13.4360   12.7400   72.0540 C.3     1  UNL11      -0.0730
    100 H         -14.1810   12.5660   72.8300 H       1  UNL11       0.0280
    101 H         -13.8500   12.4640   71.0840 H       1  UNL11       0.0280
    102 H         -12.5520   12.1360   72.2560 H       1  UNL11       0.0280
@<TRIPOS>BOND
     1    66    63    1
     2    68    65    1
     3    63    65   ar
     4    63    62   ar
     5    65    67   ar
     6    64    62    1
     7    62    61   ar
     8    67    70    1
     9    67    69   ar
    10    56    55    2
    11    61    69   ar
    12    61    58    1
    13    69    71    1
    14    54    52    1
    15    55    57    1
    16    55    52    1
    17    60    58    1
    18    50    49    1
    19    57    58    1
    20    58    59    1
    21    52    49    1
    22    52    53    1
    23    49    51    1
    24    49    47    1
    25    79    76    1
    26    74    72    1
    27    78    76    1
    28    26    25    1
    29    76    75    1
    30    76    77    1
    31    47    48    1
    32    47    72    1
    33    47    45    1
    34    22    20    1
    35    72    75    1
    36    72    73    1
    37    81    77    1
    38    82    77    1
    39    11    10    2
    40    75    87    1
    41    75    83    1
    42    77    80    1
    43    25    28    1
    44    25    21    1
    45    25    27    1
    46    46    45    1
    47    20    21   ar
    48    20    19   ar
    49    17    16    2
    50    45    43   am
    51     8     7    1
    52    21    23   ar
    53    16    19    1
    54    16    15   am
    55    19    24   ar
    56    14    13    1
    57    10    13    1
    58    10     9   am
    59    83    80    1
    60    83    86    1
    61    83    88    1
    62    36    35    1
    63    80    84    1
    64    80    85    1
    65     5     4    2
    66    43    44    2
    67    43     1    1
    68    23    24   ar
    69     7     4    1
    70     7     9    1
    71     7    33    1
    72    13    15    1
    73    13    29    1
    74    37    35    1
    75    15    18    1
    76     4     3   am
    77    88    89    1
    78    34    33    1
    79     9    12    1
    80    35    33    1
    81    35    38    1
    82     3     1    1
    83     3     6    1
    84    33    39    1
    85     2     1    1
    86     1    90    1
    87    29    31    1
    88    29    30    1
    89    29    32    1
    90    96    95    1
    91    92    90    1
    92    39    41    1
    93    39    40    1
    94    39    42    1
    95   101    99    1
    96    90    91    1
    97    90    93    1
    98    97    95    1
    99    95    93    1
   100    95    98    1
   101    93    99    1
   102    93    94    1
   103    99   102    1
   104    99   100    1
@<TRIPOS>MOLECULE
crystal_redock_e24_er3_1.pdbqt
 102 104 0 0 0
SMALL
GASTEIGER

@<TRIPOS>ATOM
      1 C         -12.1580   13.9750   69.5080 C.3     1  UNL11       0.0890
      2 H         -13.1100   13.7560   69.0240 H       1  UNL11       0.0870
      3 N         -11.6660   12.7350   70.0890 N.am    1  UNL11      -0.3460
      4 C         -11.7110   11.4520   69.2980 C.2     1  UNL11       0.2410
      5 O         -12.1500   11.4420   68.1950 O.2     1  UNL11      -0.2710
      6 H         -11.2990   12.7640   71.0300 H       1  UNL11       0.1630
      7 C         -11.1930   10.1790   69.9130 C.3     1  UNL11       0.0920
      8 H         -11.3180    9.3610   69.2030 H       1  UNL11       0.0880
      9 N          -9.7570   10.3110   70.1740 N.am    1  UNL11      -0.3460
     10 C          -8.8040    9.9650   69.1480 C.2     1  UNL11       0.2400
     11 O          -9.1750    9.5780   68.1080 O.2     1  UNL11      -0.2710
     12 H          -9.4220   10.6410   71.0670 H       1  UNL11       0.1630
     13 C          -7.2760   10.1050   69.4330 C.3     1  UNL11       0.0860
     14 H          -6.6600    9.7990   68.5880 H       1  UNL11       0.0860
     15 N          -6.9700   11.5030   69.6870 N.am    1  UNL11      -0.3430
     16 C          -6.5250   12.3560   68.5830 C.2     1  UNL11       0.2730
     17 O          -6.4140   11.9080   67.4950 O.2     1  UNL11      -0.2660
     18 H          -7.0640   11.8770   70.6210 H       1  UNL11       0.1630
     19 C          -6.1990   13.8360   68.8360 C.ar    1  UNL11       0.1540
     20 C          -5.3710   14.6880   68.0390 C.ar    1  UNL11      -0.0170
     21 C          -5.3970   15.9390   68.6960 C.ar    1  UNL11       0.0770
     22 H          -4.8330   14.4370   67.1250 H       1  UNL11       0.0910
     23 O          -6.1560   15.8100   69.7450 O.2     1  UNL11      -0.2180
     24 N          -6.6350   14.5920   69.8480 N.ar    1  UNL11      -0.1230
     25 C          -4.6720   17.2040   68.2560 C.3     1  UNL11      -0.0290
     26 H          -4.6230   17.2350   67.1670 H       1  UNL11       0.0360
     27 H          -5.2110   18.0770   68.6210 H       1  UNL11       0.0360
     28 H          -3.6610   17.2040   68.6650 H       1  UNL11       0.0360
     29 C          -6.9070    9.2690   70.6330 C.3     1  UNL11      -0.0490
     30 H          -7.5770    9.5050   71.4600 H       1  UNL11       0.0300
     31 H          -6.9970    8.2130   70.3810 H       1  UNL11       0.0300
     32 H          -5.8800    9.4870   70.9250 H       1  UNL11       0.0300
     33 C         -11.9390    9.9100   71.2530 C.3     1  UNL11      -0.0330
     34 H         -11.8000   10.7850   71.8880 H       1  UNL11       0.0420
     35 C         -13.4730    9.7350   71.0250 C.3     1  UNL11      -0.0710
     36 H         -13.9700    9.6040   71.9870 H       1  UNL11       0.0280
     37 H         -13.8690   10.6200   70.5290 H       1  UNL11       0.0280
     38 H         -13.6490    8.8590   70.4020 H       1  UNL11       0.0280
     39 C         -11.3320    8.6750   71.9930 C.3     1  UNL11      -0.0710
     40 H         -10.3870    8.9570   72.4580 H       1  UNL11       0.0280
     41 H         -12.0260    8.3330   72.7610 H       1  UNL11       0.0280
     42 H         -11.1580    7.8720   71.2760 H       1  UNL11       0.0280
     43 C         -11.0960   14.5050   68.5020 C.2     1  UNL11       0.2400
     44 O         -10.0610   14.9290   68.9030 O.2     1  UNL11      -0.2710
     45 N         -11.3670   14.4760   67.0360 N.am    1  UNL11      -0.3550
     46 H         -12.2410   14.1140   66.6830 H       1  UNL11       0.1620
     47 C         -10.3470   14.9820   66.0920 C.3     1  UNL11       0.0130
     48 H          -9.3690   14.8500   66.5530 H       1  UNL11       0.0720
     49 C         -10.5980   16.4490   65.8250 C.3     1  UNL11      -0.0380
     50 H         -10.5130   16.5710   64.7450 H       1  UNL11       0.0360
     51 H         -11.5370   16.6840   66.3280 H       1  UNL11       0.0360
     52 C          -9.5260   17.3650   66.4540 C.3     1  UNL11       0.0180
     53 H          -8.8550   16.7020   67.0010 H       1  UNL11       0.0480
     54 H          -9.1410   17.9740   65.6360 H       1  UNL11       0.0480
     55 C         -10.0910   18.3630   67.5020 C.2     1  UNL11       0.2590
     56 O         -11.0090   18.0580   68.1920 O.2     1  UNL11      -0.2650
     57 O          -9.5060   19.6550   67.6210 O.3     1  UNL11      -0.3170
     58 C          -8.2950   19.8160   66.8760 C.3     1  UNL11       0.0520
     59 H          -8.0970   18.8450   66.4210 H       1  UNL11       0.0820
     60 H          -8.4510   20.6910   66.2460 H       1  UNL11       0.0820
     61 C          -7.1540   20.1300   67.8800 C.ar    1  UNL11      -0.0340
     62 C          -7.2440   19.6900   69.1970 C.ar    1  UNL11      -0.0750
     63 C          -6.2190   19.9720   70.0990 C.ar    1  UNL11      -0.0820
     64 H          -8.1170   19.1230   69.5220 H       1  UNL11       0.0840
     65 C          -5.1020   20.7000   69.6810 C.ar    1  UNL11      -0.0830
     66 H          -6.2920   19.6240   71.1290 H       1  UNL11       0.0830
     67 C          -5.0190   21.1410   68.3670 C.ar    1  UNL11      -0.0820
     68 H          -4.2960   20.9250   70.3790 H       1  UNL11       0.0830
     69 C          -6.0390   20.8590   67.4610 C.ar    1  UNL11      -0.0750
     70 H          -4.1470   21.7100   68.0440 H       1  UNL11       0.0830
     71 H          -5.9660   21.2070   66.4310 H       1  UNL11       0.0840
     72 C         -10.4260   14.2040   64.7810 C.3     1  UNL11      -0.0390
     73 H         -11.0830   14.7890   64.1360 H       1  UNL11       0.0360
     74 H          -9.3920   14.0260   64.4870 H       1  UNL11       0.0360
     75 C         -11.1140   12.7720   64.9820 C.3     1  UNL11      -0.0010
     76 C          -9.9690   11.5920   64.9540 C.3     1  UNL11      -0.0350
     77 C         -10.3450   10.6390   64.0670 C.3     1  UNL11       0.0850
     78 H          -9.0420   11.9800   64.5330 H       1  UNL11       0.0360
     79 H          -9.9550   11.0620   65.9070 H       1  UNL11       0.0360
     80 N         -11.4750   11.2180   63.2500 N.4     1  UNL11      -0.0490
     81 H          -9.4810   10.4850   63.4200 H       1  UNL11       0.0750
     82 H         -10.7290    9.8160   64.6700 H       1  UNL11       0.0750
     83 C         -11.9730   12.5300   64.0480 C.3     1  UNL11       0.1930
     84 H         -11.0720   11.5100   62.3710 H       1  UNL11       0.2800
     85 H         -12.2180   10.5340   63.2630 H       1  UNL11       0.2800
     86 H         -12.8960   12.5090   64.6280 H       1  UNL11       0.1290
     87 H         -11.8140   12.7640   65.8170 H       1  UNL11       0.0460
     88 O         -12.1140   13.6310   63.1480 O.3     1  UNL11      -0.3690
     89 H         -11.2620   13.8340   62.7560 H       1  UNL11       0.2120
     90 C         -12.3650   14.9940   70.6170 C.3     1  UNL11      -0.0350
     91 H         -11.3800   15.1440   71.0590 H       1  UNL11       0.0370
     92 H         -12.8840   15.8310   70.1470 H       1  UNL11       0.0370
     93 C         -13.2940   14.4900   71.7660 C.3     1  UNL11      -0.0590
     94 H         -13.3080   13.4010   71.7260 H       1  UNL11       0.0380
     95 C         -12.7660   14.9070   73.1760 C.3     1  UNL11      -0.0730
     96 H         -11.8140   15.4260   73.0690 H       1  UNL11       0.0280
     97 H         -13.4890   15.5700   73.6530 H       1  UNL11       0.0280
     98 H         -12.6290   14.0180   73.7910 H       1  UNL11       0.0280
     99 C         -14.7320   14.9710   71.5590 C.3     1  UNL11      -0.0730
    100 H         -15.0600   15.5280   72.4370 H       1  UNL11       0.0280
    101 H         -14.7760   15.6170   70.6810 H       1  UNL11       0.0280
    102 H         -15.3850   14.1110   71.4080 H       1  UNL11       0.0280
@<TRIPOS>BOND
     1    84    80    1
     2    89    88    1
     3    88    83    1
     4    80    85    1
     5    80    83    1
     6    80    77    1
     7    81    77    1
     8    83    86    1
     9    83    75    1
    10    77    82    1
    11    77    76    1
    12    73    72    1
    13    74    72    1
    14    78    76    1
    15    50    49    1
    16    72    75    1
    17    72    47    1
    18    76    75    1
    19    76    79    1
    20    75    87    1
    21    54    52    1
    22    49    47    1
    23    49    51    1
    24    49    52    1
    25    47    48    1
    26    47    45    1
    27    60    58    1
    28    59    58    1
    29    71    69    1
    30    52    53    1
    31    52    55    1
    32    46    45    1
    33    58    57    1
    34    58    61    1
    35    45    43   am
    36    22    20    1
    37    26    25    1
    38    69    61   ar
    39    69    67   ar
    40    17    16    2
    41    55    57    1
    42    55    56    2
    43    61    62   ar
    44    20    21   ar
    45    20    19   ar
    46    70    67    1
    47    11    10    2
    48     5     4    2
    49    25    27    1
    50    25    28    1
    51    25    21    1
    52    67    65   ar
    53    43    44    2
    54    43     1    1
    55    16    19    1
    56    16    15   am
    57    14    13    1
    58    21    23   ar
    59    19    24   ar
    60     2     1    1
    61    10    13    1
    62    10     9   am
    63    62    64    1
    64    62    63   ar
    65     8     7    1
    66     4     7    1
    67     4     3   am
    68    13    15    1
    69    13    29    1
    70     1     3    1
    71     1    90    1
    72    65    63   ar
    73    65    68    1
    74    15    18    1
    75    23    24   ar
    76     7     9    1
    77     7    33    1
    78     3     6    1
    79    63    66    1
    80    92    90    1
    81     9    12    1
    82    31    29    1
    83    38    35    1
    84    37    35    1
    85    90    91    1
    86    90    93    1
    87    29    32    1
    88    29    30    1
    89   101    99    1
    90    35    33    1
    91    35    36    1
    92    33    34    1
    93    33    39    1
    94    42    39    1
    95   102    99    1
    96    99    93    1
    97    99   100    1
    98    94    93    1
    99    93    95    1
   100    39    40    1
   101    39    41    1
   102    96    95    1
   103    95    97    1
   104    95    98    1
@<TRIPOS>MOLECULE
crystal_redock_e24_er3_1.pdbqt
 102 104 0 0 0
SMALL
GASTEIGER

@<TRIPOS>ATOM
      1 C          -6.7900   14.6690   67.8500 C.3     1  UNL11       0.0890
      2 H          -6.0800   15.0160   67.0980 H       1  UNL11       0.0870
      3 N          -8.0620   15.3270   67.5880 N.am    1  UNL11      -0.3460
      4 C          -8.1310   16.5040   66.6480 C.2     1  UNL11       0.2410
      5 O          -7.1490   16.9070   66.1170 O.2     1  UNL11      -0.2710
      6 H          -8.8850   14.9700   68.0520 H       1  UNL11       0.1630
      7 C          -9.4570   17.1690   66.3840 C.3     1  UNL11       0.0920
      8 H          -9.5610   17.3490   65.3140 H       1  UNL11       0.0880
      9 N         -10.5430   16.2670   66.7790 N.am    1  UNL11      -0.3460
     10 C         -10.6570   14.9660   66.1690 C.2     1  UNL11       0.2400
     11 O          -9.8850   14.6280   65.3570 O.2     1  UNL11      -0.2710
     12 H         -11.2180   16.5450   67.4770 H       1  UNL11       0.1630
     13 C         -11.8180   14.0120   66.5910 C.3     1  UNL11       0.0860
     14 H         -11.4770   12.9950   66.7870 H       1  UNL11       0.0860
     15 N         -12.4030   14.5010   67.8280 N.am    1  UNL11      -0.3430
     16 C         -11.6370   14.4100   69.0730 C.2     1  UNL11       0.2730
     17 O         -10.5530   13.9410   69.0700 O.2     1  UNL11      -0.2660
     18 H         -13.3320   14.8980   67.8230 H       1  UNL11       0.1630
     19 C         -12.2430   14.9250   70.3890 C.ar    1  UNL11       0.1540
     20 C         -11.5530   15.1850   71.6150 C.ar    1  UNL11      -0.0170
     21 C         -12.5520   15.6370   72.5060 C.ar    1  UNL11       0.0770
     22 H         -10.4900   15.0650   71.8260 H       1  UNL11       0.0910
     23 O         -13.6800   15.6340   71.8560 O.2     1  UNL11      -0.2180
     24 N         -13.5250   15.2220   70.6190 N.ar    1  UNL11      -0.1230
     25 C         -12.3470   16.0510   73.9560 C.3     1  UNL11      -0.0290
     26 H         -13.2950   16.3880   74.3770 H       1  UNL11       0.0360
     27 H         -11.9770   15.2000   74.5280 H       1  UNL11       0.0360
     28 H         -11.6200   16.8630   74.0030 H       1  UNL11       0.0360
     29 C         -12.8620   13.9750   65.5050 C.3     1  UNL11      -0.0490
     30 H         -12.4010   13.6640   64.5670 H       1  UNL11       0.0300
     31 H         -13.6450   13.2670   65.7770 H       1  UNL11       0.0300
     32 H         -13.2950   14.9670   65.3830 H       1  UNL11       0.0300
     33 C          -9.5510   18.4840   67.2120 C.3     1  UNL11      -0.0330
     34 H          -8.5590   18.9340   67.2290 H       1  UNL11       0.0420
     35 C         -10.5190   19.5090   66.5410 C.3     1  UNL11      -0.0710
     36 H         -11.4370   19.0010   66.2440 H       1  UNL11       0.0280
     37 H         -10.7560   20.3020   67.2510 H       1  UNL11       0.0280
     38 H         -10.0400   19.9390   65.6620 H       1  UNL11       0.0280
     39 C          -9.9730   18.1880   68.6870 C.3     1  UNL11      -0.0710
     40 H         -11.0590   18.2300   68.7690 H       1  UNL11       0.0280
     41 H          -9.6250   17.1950   68.9720 H       1  UNL11       0.0280
     42 H          -9.5300   18.9330   69.3480 H       1  UNL11       0.0280
     43 C          -7.0060   13.1300   67.7880 C.2     1  UNL11       0.2400
     44 O          -6.1370   12.3970   68.1330 O.2     1  UNL11      -0.2710
     45 N          -8.3010   12.5700   67.3060 N.am    1  UNL11      -0.3550
     46 H          -9.0480   13.1830   67.0140 H       1  UNL11       0.1620
     47 C          -8.4910   11.1040   67.2540 C.3     1  UNL11       0.0130
     48 H          -7.8140   10.6520   67.9790 H       1  UNL11       0.0720
     49 C          -8.1670   10.6070   65.8640 C.3     1  UNL11      -0.0380
     50 H          -7.8770   11.4900   65.2950 H       1  UNL11       0.0360
     51 H          -7.4580    9.7900   66.0010 H       1  UNL11       0.0360
     52 C          -9.3920   10.0040   65.1420 C.3     1  UNL11       0.0180
     53 H          -9.2060    8.9310   65.0910 H       1  UNL11       0.0480
     54 H         -10.2640   10.3820   65.6760 H       1  UNL11       0.0480
     55 C          -9.5500   10.4820   63.6720 C.2     1  UNL11       0.2590
     56 O         -10.0070   11.5530   63.4310 O.2     1  UNL11      -0.2650
     57 O          -9.1540    9.6200   62.6120 O.3     1  UNL11      -0.3170
     58 C          -7.7670    9.7140   62.2720 C.3     1  UNL11       0.0520
     59 H          -7.7370    9.8350   61.1900 H       1  UNL11       0.0820
     60 H          -7.3570   10.4900   62.9190 H       1  UNL11       0.0820
     61 C          -7.0920    8.3650   62.6350 C.ar    1  UNL11      -0.0340
     62 C          -7.8670    7.2220   62.8060 C.ar    1  UNL11      -0.0750
     63 C          -7.2610    6.0100   63.1320 C.ar    1  UNL11      -0.0820
     64 H          -8.9490    7.2760   62.6840 H       1  UNL11       0.0840
     65 C          -5.8740    5.9430   63.2910 C.ar    1  UNL11      -0.0830
     66 H          -7.8710    5.1160   63.2630 H       1  UNL11       0.0830
     67 C          -5.1050    7.0870   63.1220 C.ar    1  UNL11      -0.0820
     68 H          -5.3920    5.0000   63.5450 H       1  UNL11       0.0830
     69 C          -5.7070    8.3000   62.7940 C.ar    1  UNL11      -0.0750
     70 H          -4.0240    7.0330   63.2490 H       1  UNL11       0.0830
     71 H          -5.0960    9.1940   62.6630 H       1  UNL11       0.0840
     72 C          -9.9390   10.7590   67.5950 C.3     1  UNL11      -0.0390
     73 H         -10.5150   11.6540   67.3560 H       1  UNL11       0.0360
     74 H         -10.1450    9.8240   67.0730 H       1  UNL11       0.0360
     75 C         -10.1290   10.4780   69.1600 C.3     1  UNL11      -0.0010
     76 C          -9.4790    9.0190   69.5510 C.3     1  UNL11      -0.0350
     77 C         -10.4020    8.2990   70.2330 C.3     1  UNL11       0.0850
     78 H          -9.3130    8.4310   68.6490 H       1  UNL11       0.0360
     79 H          -8.6740    9.1500   70.2730 H       1  UNL11       0.0360
     80 N         -11.7270    9.0020   70.0600 N.4     1  UNL11      -0.0490
     81 H         -10.4450    7.3310   69.7330 H       1  UNL11       0.0750
     82 H         -10.1030    8.3590   71.2790 H       1  UNL11       0.0750
     83 C         -11.3790   10.4700   69.4860 C.3     1  UNL11       0.1930
     84 H         -12.2320    8.4900   69.3500 H       1  UNL11       0.2800
     85 H         -12.1200    9.1040   70.9850 H       1  UNL11       0.2800
     86 H         -11.4210   11.3430   70.1370 H       1  UNL11       0.1290
     87 H          -9.8350   11.3320   69.7720 H       1  UNL11       0.0460
     88 O         -12.2260   10.7790   68.3770 O.3     1  UNL11      -0.3690
     89 H         -13.1390   10.8110   68.6720 H       1  UNL11       0.2120
     90 C          -6.3050   15.0620   69.2360 C.3     1  UNL11      -0.0350
     91 H          -7.1960   15.3900   69.7720 H       1  UNL11       0.0370
     92 H          -5.7370   14.2040   69.5970 H       1  UNL11       0.0370
     93 C          -5.3200   16.2740   69.2350 C.3     1  UNL11      -0.0590
     94 H          -4.9130   16.3690   68.2280 H       1  UNL11       0.0380
     95 C          -6.0380   17.6170   69.5860 C.3     1  UNL11      -0.0730
     96 H          -7.1100   17.5080   69.4250 H       1  UNL11       0.0280
     97 H          -5.8500   17.8660   70.6310 H       1  UNL11       0.0280
     98 H          -5.6520   18.4130   68.9480 H       1  UNL11       0.0280
     99 C          -4.1420   16.0230   70.1800 C.3     1  UNL11      -0.0730
    100 H          -4.5140   15.8870   71.1960 H       1  UNL11       0.0280
    101 H          -3.6090   15.1250   69.8650 H       1  UNL11       0.0280
    102 H          -3.4650   16.8760   70.1510 H       1  UNL11       0.0280
@<TRIPOS>BOND
     1    59    58    1
     2    58    57    1
     3    58    61    1
     4    58    60    1
     5    57    55    1
     6    61    69   ar
     7    61    62   ar
     8    71    69    1
     9    64    62    1
    10    69    67   ar
    11    62    63   ar
    12    67    70    1
    13    67    65   ar
    14    63    66    1
    15    63    65   ar
    16    65    68    1
    17    56    55    2
    18    55    52    1
    19    30    29    1
    20    53    52    1
    21    52    54    1
    22    52    49    1
    23    50    49    1
    24     8     7    1
    25    11    10    2
    26    32    29    1
    27    29    31    1
    28    29    13    1
    29    38    35    1
    30    49    51    1
    31    49    47    1
    32     5     4    2
    33    10    13    1
    34    10     9   am
    35    36    35    1
    36     7     4    1
    37     7     9    1
    38     7    33    1
    39    35    33    1
    40    35    37    1
    41    13    14    1
    42    13    15    1
    43     4     3   am
    44     9    12    1
    45    46    45    1
    46    74    72    1
    47     2     1    1
    48    33    34    1
    49    33    39    1
    50    47    45    1
    51    47    72    1
    52    47    48    1
    53    45    43   am
    54    73    72    1
    55     3     1    1
    56     3     6    1
    57    72    75    1
    58    43     1    1
    59    43    44    2
    60    18    15    1
    61    15    16   am
    62     1    90    1
    63    94    93    1
    64    88    89    1
    65    88    83    1
    66    78    76    1
    67    39    40    1
    68    39    41    1
    69    39    42    1
    70    98    95    1
    71    17    16    2
    72    16    19    1
    73    75    83    1
    74    75    76    1
    75    75    87    1
    76    93    90    1
    77    93    95    1
    78    93    99    1
    79    90    92    1
    80    90    91    1
    81    84    80    1
    82    96    95    1
    83    83    80    1
    84    83    86    1
    85    76    77    1
    86    76    79    1
    87    95    97    1
    88    81    77    1
    89   101    99    1
    90    80    77    1
    91    80    85    1
    92   102    99    1
    93    99   100    1
    94    77    82    1
    95    19    24   ar
    96    19    20   ar
    97    24    23   ar
    98    20    22    1
    99    20    21   ar
   100    23    21   ar
   101    21    25    1
   102    25    28    1
   103    25    26    1
   104    25    27    1
@<TRIPOS>MOLECULE
crystal_redock_e24_er3_1.pdbqt
 102 104 0 0 0
SMALL
GASTEIGER

@<TRIPOS>ATOM
      1 C         -12.2010   13.8550   70.1820 C.3     1  UNL11       0.0890
      2 H         -13.2490   13.8130   69.8850 H       1  UNL11       0.0870
      3 N         -11.7600   12.4900   70.4280 N.am    1  UNL11      -0.3460
      4 C         -11.7950   11.4660   69.3210 C.2     1  UNL11       0.2410
      5 O         -12.1840   11.7640   68.2400 O.2     1  UNL11      -0.2710
      6 H         -11.4350   12.2560   71.3560 H       1  UNL11       0.1630
      7 C         -11.3300   10.0600   69.5930 C.3     1  UNL11       0.0920
      8 H         -11.9400    9.3630   69.0170 H       1  UNL11       0.0880
      9 N          -9.9460    9.9050   69.1360 N.am    1  UNL11      -0.3460
     10 C          -9.6670    9.1960   67.9110 C.2     1  UNL11       0.2400
     11 O         -10.5440    8.7410   67.2830 O.2     1  UNL11      -0.2710
     12 H          -9.1790   10.2900   69.6680 H       1  UNL11       0.1630
     13 C          -8.1910    9.0320   67.4310 C.3     1  UNL11       0.0860
     14 H          -8.1090    8.9240   66.3500 H       1  UNL11       0.0860
     15 N          -7.4440   10.2260   67.7880 N.am    1  UNL11      -0.3430
     16 C          -6.6400   10.9050   66.7700 C.2     1  UNL11       0.2730
     17 O          -6.5990   10.4820   65.6670 O.2     1  UNL11      -0.2660
     18 H          -7.4830   10.5800   68.7340 H       1  UNL11       0.1630
     19 C          -5.8460   12.1700   67.1330 C.ar    1  UNL11       0.1540
     20 C          -6.2940   13.2750   67.9250 C.ar    1  UNL11      -0.0170
     21 C          -5.1990   14.1660   67.9590 C.ar    1  UNL11       0.0770
     22 H          -7.2650   13.4090   68.4020 H       1  UNL11       0.0910
     23 O          -4.2390   13.6260   67.2660 O.2     1  UNL11      -0.2180
     24 N          -4.5930   12.4610   66.7740 N.ar    1  UNL11      -0.1230
     25 C          -5.1500   15.5090   68.6750 C.3     1  UNL11      -0.0290
     26 H          -4.5390   16.2060   68.1010 H       1  UNL11       0.0360
     27 H          -6.1610   15.9060   68.7710 H       1  UNL11       0.0360
     28 H          -4.7170   15.3770   69.6670 H       1  UNL11       0.0360
     29 C          -7.5770    7.8220   68.0890 C.3     1  UNL11      -0.0490
     30 H          -7.7910    7.8410   69.1580 H       1  UNL11       0.0300
     31 H          -7.9980    6.9170   67.6500 H       1  UNL11       0.0300
     32 H          -6.4990    7.8340   67.9350 H       1  UNL11       0.0300
     33 C         -11.4030    9.7760   71.1220 C.3     1  UNL11      -0.0330
     34 H         -11.2280   10.7180   71.6400 H       1  UNL11       0.0420
     35 C         -12.8180    9.2670   71.5390 C.3     1  UNL11      -0.0710
     36 H         -13.4280   10.1120   71.8600 H       1  UNL11       0.0280
     37 H         -13.2940    8.7790   70.6880 H       1  UNL11       0.0280
     38 H         -12.7220    8.5560   72.3590 H       1  UNL11       0.0280
     39 C         -10.2890    8.7710   71.5580 C.3     1  UNL11      -0.0710
     40 H          -9.7810    9.1520   72.4430 H       1  UNL11       0.0280
     41 H         -10.7400    7.8040   71.7860 H       1  UNL11       0.0280
     42 H          -9.5690    8.6530   70.7480 H       1  UNL11       0.0280
     43 C         -11.3010   14.4730   69.0730 C.2     1  UNL11       0.2400
     44 O         -10.1420   14.6380   69.2770 O.2     1  UNL11      -0.2710
     45 N         -11.8830   14.8520   67.7550 N.am    1  UNL11      -0.3550
     46 H         -12.8660   14.7130   67.5680 H       1  UNL11       0.1620
     47 C         -11.0140   15.4370   66.7110 C.3     1  UNL11       0.0130
     48 H         -11.6540   15.8070   65.9100 H       1  UNL11       0.0720
     49 C         -10.0840   14.3700   66.1790 C.3     1  UNL11      -0.0380
     50 H          -9.0980   14.8340   66.1350 H       1  UNL11       0.0360
     51 H         -10.2480   13.4960   66.8100 H       1  UNL11       0.0360
     52 C         -10.4290   13.9390   64.7370 C.3     1  UNL11       0.0180
     53 H         -10.8840   14.8120   64.2680 H       1  UNL11       0.0480
     54 H          -9.5110   13.5170   64.3280 H       1  UNL11       0.0480
     55 C         -11.4920   12.8080   64.6590 C.2     1  UNL11       0.2590
     56 O         -12.5370   12.9230   65.2130 O.2     1  UNL11      -0.2650
     57 O         -11.1970   11.6250   63.9270 O.3     1  UNL11      -0.3170
     58 C         -10.2190   10.7850   64.5470 C.3     1  UNL11       0.0520
     59 H          -9.6760   11.4270   65.2400 H       1  UNL11       0.0820
     60 H         -10.7680    9.9200   64.9210 H       1  UNL11       0.0820
     61 C          -9.2350   10.3030   63.4480 C.ar    1  UNL11      -0.0340
     62 C          -8.8070   11.1850   62.4610 C.ar    1  UNL11      -0.0750
     63 C          -7.9240   10.7530   61.4730 C.ar    1  UNL11      -0.0820
     64 H          -9.1640   12.2160   62.4620 H       1  UNL11       0.0840
     65 C          -7.4690    9.4310   61.4730 C.ar    1  UNL11      -0.0830
     66 H          -7.5880   11.4480   60.7030 H       1  UNL11       0.0830
     67 C          -7.9020    8.5540   62.4580 C.ar    1  UNL11      -0.0820
     68 H          -6.7780    9.0850   60.7050 H       1  UNL11       0.0830
     69 C          -8.7840    8.9820   63.4480 C.ar    1  UNL11      -0.0750
     70 H          -7.5480    7.5220   62.4540 H       1  UNL11       0.0830
     71 H          -9.1180    8.2870   64.2190 H       1  UNL11       0.0840
     72 C         -10.1930   16.5800   67.3040 C.3     1  UNL11      -0.0390
     73 H         -10.8790   17.1240   67.9540 H       1  UNL11       0.0360
     74 H          -9.3030   16.1110   67.7230 H       1  UNL11       0.0360
     75 C          -9.7000   17.6040   66.1740 C.3     1  UNL11      -0.0010
     76 C          -8.0600   17.7230   66.2020 C.3     1  UNL11      -0.0350
     77 C          -7.7190   19.0320   66.2590 C.3     1  UNL11       0.0850
     78 H          -7.6720   17.3180   67.1370 H       1  UNL11       0.0360
     79 H          -7.6450   17.3920   65.2500 H       1  UNL11       0.0360
     80 N          -8.9710   19.8010   66.6020 N.4     1  UNL11      -0.0490
     81 H          -7.0130   19.1140   67.0870 H       1  UNL11       0.0750
     82 H          -7.4060   19.2950   65.2490 H       1  UNL11       0.0750
     83 C         -10.1990   18.7810   66.3610 C.3     1  UNL11       0.1930
     84 H          -8.9170   20.0120   67.5880 H       1  UNL11       0.2800
     85 H          -9.0400   20.5510   65.9290 H       1  UNL11       0.2800
     86 H         -10.8290   18.8720   65.4760 H       1  UNL11       0.1290
     87 H         -10.1670   17.4100   65.2090 H       1  UNL11       0.0460
     88 O         -11.0950   18.8170   67.4730 O.3     1  UNL11      -0.3690
     89 H         -10.8280   19.5130   68.0770 H       1  UNL11       0.2120
     90 C         -12.0600   14.6610   71.4630 C.3     1  UNL11      -0.0350
     91 H         -11.9020   13.9240   72.2510 H       1  UNL11       0.0370
     92 H         -11.2940   15.4070   71.2520 H       1  UNL11       0.0370
     93 C         -13.3500   15.4510   71.8510 C.3     1  UNL11      -0.0590
     94 H         -13.4050   16.3300   71.2090 H       1  UNL11       0.0380
     95 C         -14.6480   14.6120   71.6200 C.3     1  UNL11      -0.0730
     96 H         -15.4560   15.0200   72.2260 H       1  UNL11       0.0280
     97 H         -14.9250   14.6540   70.5660 H       1  UNL11       0.0280
     98 H         -14.4650   13.5760   71.9070 H       1  UNL11       0.0280
     99 C         -13.2730   15.9480   73.2970 C.3     1  UNL11      -0.0730
    100 H         -12.2890   16.3810   73.4800 H       1  UNL11       0.0280
    101 H         -14.0400   16.7060   73.4610 H       1  UNL11       0.0280
    102 H         -13.4360   15.1130   73.9770 H       1  UNL11       0.0280
@<TRIPOS>BOND
     1    66    63    1
     2    68    65    1
     3    65    63   ar
     4    65    67   ar
     5    63    62   ar
     6    70    67    1
     7    67    69   ar
     8    62    64    1
     9    62    61   ar
    10    69    61   ar
    11    69    71    1
    12    61    58    1
    13    57    58    1
    14    57    55    1
    15    53    52    1
    16    54    52    1
    17    58    60    1
    18    58    59    1
    19    55    52    1
    20    55    56    2
    21    52    49    1
    22    87    75    1
    23    82    77    1
    24    79    76    1
    25    86    83    1
    26    17    16    2
    27    48    47    1
    28    85    80    1
    29    50    49    1
    30    75    76    1
    31    75    83    1
    32    75    72    1
    33    49    47    1
    34    49    51    1
    35    76    77    1
    36    76    78    1
    37    77    80    1
    38    77    81    1
    39    14    13    1
    40    83    80    1
    41    83    88    1
    42    80    84    1
    43    47    72    1
    44    47    45    1
    45    16    19    1
    46    16    15   am
    47    24    19   ar
    48    24    23   ar
    49    19    20   ar
    50    23    21   ar
    51    11    10    2
    52    72    74    1
    53    72    73    1
    54    13    15    1
    55    13    10    1
    56    13    29    1
    57    88    89    1
    58    46    45    1
    59    31    29    1
    60    45    43   am
    61    15    18    1
    62    10     9   am
    63    20    21   ar
    64    20    22    1
    65    32    29    1
    66    21    25    1
    67    29    30    1
    68    26    25    1
    69     5     4    2
    70    25    27    1
    71    25    28    1
    72     8     7    1
    73    43    44    2
    74    43     1    1
    75     9     7    1
    76     9    12    1
    77     4     7    1
    78     4     3   am
    79     7    33    1
    80     2     1    1
    81     1     3    1
    82     1    90    1
    83     3     6    1
    84    97    95    1
    85    37    35    1
    86    42    39    1
    87    33    35    1
    88    33    39    1
    89    33    34    1
    90    94    93    1
    91    92    90    1
    92    90    93    1
    93    90    91    1
    94    35    36    1
    95    35    38    1
    96    39    41    1
    97    39    40    1
    98    95    93    1
    99    95    98    1
   100    95    96    1
   101    93    99    1
   102    99   101    1
   103    99   100    1
   104    99   102    1
@<TRIPOS>MOLECULE
crystal_redock_e24_er3_1.pdbqt
 102 104 0 0 0
SMALL
GASTEIGER

@<TRIPOS>ATOM
      1 C         -12.3130   13.9210   70.1480 C.3     1  UNL11       0.0890
      2 H         -13.3870   13.7370   70.1210 H       1  UNL11       0.0870
      3 N         -11.6450   12.6420   69.9620 N.am    1  UNL11      -0.3460
      4 C         -12.2020   11.3920   70.5950 C.2     1  UNL11       0.2410
      5 O         -13.1890   11.4410   71.2520 O.2     1  UNL11      -0.2710
      6 H         -10.8050   12.6220   69.4010 H       1  UNL11       0.1630
      7 C         -11.5010   10.0750   70.3870 C.3     1  UNL11       0.0920
      8 H         -11.9240    9.5770   69.5140 H       1  UNL11       0.0880
      9 N         -10.0830   10.3160   70.1020 N.am    1  UNL11      -0.3460
     10 C          -9.5770   10.1390   68.7630 C.2     1  UNL11       0.2400
     11 O         -10.2960    9.8020   67.9030 O.2     1  UNL11      -0.2710
     12 H          -9.4500   10.6060   70.8340 H       1  UNL11       0.1630
     13 C          -8.0660   10.3950   68.4670 C.3     1  UNL11       0.0860
     14 H          -7.9060   10.9660   67.5530 H       1  UNL11       0.0860
     15 N          -7.4990   11.1770   69.5520 N.am    1  UNL11      -0.3430
     16 C          -6.3640   12.0640   69.2850 C.2     1  UNL11       0.2730
     17 O          -5.9140   12.1390   68.1950 O.2     1  UNL11      -0.2660
     18 H          -7.8880   11.1060   70.4810 H       1  UNL11       0.1630
     19 C          -5.7550   12.8990   70.4220 C.ar    1  UNL11       0.1540
     20 C          -4.7330   12.4960   71.3380 C.ar    1  UNL11      -0.0170
     21 C          -4.5330   13.6160   72.1760 C.ar    1  UNL11       0.0770
     22 H          -4.2140   11.5390   71.3880 H       1  UNL11       0.0910
     23 O          -5.3500   14.5480   71.7780 O.2     1  UNL11      -0.2180
     24 N          -6.0740   14.1530   70.7560 N.ar    1  UNL11      -0.1230
     25 C          -3.5450   13.7150   73.3300 C.3     1  UNL11      -0.0290
     26 H          -4.0850   13.6740   74.2770 H       1  UNL11       0.0360
     27 H          -2.8420   12.8830   73.2780 H       1  UNL11       0.0360
     28 H          -2.9990   14.6560   73.2630 H       1  UNL11       0.0360
     29 C          -7.3450    9.0760   68.3490 C.3     1  UNL11      -0.0490
     30 H          -6.3870    9.1380   68.8660 H       1  UNL11       0.0300
     31 H          -7.9500    8.2890   68.7980 H       1  UNL11       0.0300
     32 H          -7.1740    8.8490   67.2970 H       1  UNL11       0.0300
     33 C         -11.6280    9.2100   71.6750 C.3     1  UNL11      -0.0330
     34 H         -11.9510    9.8680   72.4820 H       1  UNL11       0.0420
     35 C         -12.7150    8.1020   71.5100 C.3     1  UNL11      -0.0710
     36 H         -12.2430    7.1210   71.5550 H       1  UNL11       0.0280
     37 H         -13.4470    8.1900   72.3130 H       1  UNL11       0.0280
     38 H         -13.2130    8.2230   70.5480 H       1  UNL11       0.0280
     39 C         -10.2490    8.5960   72.0750 C.3     1  UNL11      -0.0710
     40 H          -9.6880    8.3450   71.1750 H       1  UNL11       0.0280
     41 H          -9.6850    9.3200   72.6640 H       1  UNL11       0.0280
     42 H         -10.4110    7.6940   72.6650 H       1  UNL11       0.0280
     43 C         -11.8540   14.8890   69.0200 C.2     1  UNL11       0.2400
     44 O         -12.0320   16.0580   69.1360 O.2     1  UNL11      -0.2710
     45 N         -11.1850   14.3580   67.7980 N.am    1  UNL11      -0.3550
     46 H         -11.0250   13.3670   67.6910 H       1  UNL11       0.1620
     47 C         -10.7540   15.2910   66.7350 C.3     1  UNL11       0.0130
     48 H         -11.2290   16.2540   66.9210 H       1  UNL11       0.0720
     49 C         -11.1880   14.7520   65.3910 C.3     1  UNL11      -0.0380
     50 H         -12.1500   15.2210   65.1810 H       1  UNL11       0.0360
     51 H         -10.3440   14.9160   64.7210 H       1  UNL11       0.0360
     52 C         -11.4400   13.2280   65.4090 C.3     1  UNL11       0.0180
     53 H         -10.5000   12.7770   65.7280 H       1  UNL11       0.0480
     54 H         -12.3430   13.0850   66.0040 H       1  UNL11       0.0480
     55 C         -11.7510   12.6280   64.0090 C.2     1  UNL11       0.2590
     56 O         -12.2870   13.2850   63.1770 O.2     1  UNL11      -0.2650
     57 O         -11.3980   11.2770   63.7370 O.3     1  UNL11      -0.3170
     58 C         -10.2400   10.8240   64.4440 C.3     1  UNL11       0.0520
     59 H          -9.8280   11.7070   64.9320 H       1  UNL11       0.0820
     60 H         -10.5730    9.9760   65.0420 H       1  UNL11       0.0820
     61 C          -9.2110   10.3140   63.4000 C.ar    1  UNL11      -0.0340
     62 C          -8.7640   11.1620   62.3910 C.ar    1  UNL11      -0.0750
     63 C          -7.8400   10.7050   61.4530 C.ar    1  UNL11      -0.0820
     64 H          -9.1370   12.1850   62.3360 H       1  UNL11       0.0840
     65 C          -7.3640    9.3920   61.5240 C.ar    1  UNL11      -0.0830
     66 H          -7.4900   11.3720   60.6650 H       1  UNL11       0.0830
     67 C          -7.8150    8.5490   62.5310 C.ar    1  UNL11      -0.0820
     68 H          -6.6410    9.0270   60.7960 H       1  UNL11       0.0830
     69 C          -8.7370    9.0030   63.4720 C.ar    1  UNL11      -0.0750
     70 H          -7.4440    7.5250   62.5820 H       1  UNL11       0.0830
     71 H          -9.0860    8.3350   64.2600 H       1  UNL11       0.0840
     72 C          -9.2340   15.4350   66.7600 C.3     1  UNL11      -0.0390
     73 H          -8.8650   14.5310   67.2460 H       1  UNL11       0.0360
     74 H          -8.9460   15.6560   65.7320 H       1  UNL11       0.0360
     75 C          -8.7710   16.6780   67.6580 C.3     1  UNL11      -0.0010
     76 C          -7.5970   17.5260   66.8780 C.3     1  UNL11      -0.0350
     77 C          -6.5470   17.6900   67.7180 C.3     1  UNL11       0.0850
     78 H          -7.1820   16.9290   66.0660 H       1  UNL11       0.0360
     79 H          -7.9350   18.5450   66.6900 H       1  UNL11       0.0360
     80 N          -6.7620   16.7550   68.8830 N.4     1  UNL11      -0.0490
     81 H          -5.6710   17.3640   67.1570 H       1  UNL11       0.0750
     82 H          -6.6160   18.7190   68.0720 H       1  UNL11       0.0750
     83 C          -8.3040   16.2840   68.7960 C.3     1  UNL11       0.1930
     84 H          -6.1720   15.9520   68.7190 H       1  UNL11       0.2800
     85 H          -6.6420   17.3070   69.7200 H       1  UNL11       0.2800
     86 H          -9.0500   16.7030   69.4710 H       1  UNL11       0.1290
     87 H          -9.6170   17.2450   68.0460 H       1  UNL11       0.0460
     88 O          -8.3970   14.8680   68.9560 O.3     1  UNL11      -0.3690
     89 H          -7.6060   14.4540   68.6040 H       1  UNL11       0.2120
     90 C         -11.9220   14.4930   71.5020 C.3     1  UNL11      -0.0350
     91 H         -11.2250   13.7710   71.9300 H       1  UNL11       0.0370
     92 H         -11.5950   15.5130   71.3010 H       1  UNL11       0.0370
     93 C         -13.1150   14.6020   72.5040 C.3     1  UNL11      -0.0590
     94 H         -13.2490   13.6240   72.9660 H       1  UNL11       0.0380
     95 C         -12.8350   15.6330   73.6440 C.3     1  UNL11      -0.0730
     96 H         -12.6010   16.6030   73.2060 H       1  UNL11       0.0280
     97 H         -13.7180   15.7240   74.2770 H       1  UNL11       0.0280
     98 H         -11.9910   15.2920   74.2430 H       1  UNL11       0.0280
     99 C         -14.4160   14.9400   71.7710 C.3     1  UNL11      -0.0730
    100 H         -15.0320   15.5820   72.4010 H       1  UNL11       0.0280
    101 H         -14.1840   15.4580   70.8400 H       1  UNL11       0.0280
    102 H         -14.9570   14.0210   71.5490 H       1  UNL11       0.0280
@<TRIPOS>BOND
     1    66    63    1
     2    68    65    1
     3    63    65   ar
     4    63    62   ar
     5    65    67   ar
     6    64    62    1
     7    62    61   ar
     8    67    70    1
     9    67    69   ar
    10    56    55    2
    11    61    69   ar
    12    61    58    1
    13    69    71    1
    14    57    55    1
    15    57    58    1
    16    55    52    1
    17    58    59    1
    18    58    60    1
    19    51    49    1
    20    50    49    1
    21    49    52    1
    22    49    47    1
    23    52    53    1
    24    52    54    1
    25    74    72    1
    26    78    76    1
    27    79    76    1
    28    47    72    1
    29    47    48    1
    30    47    45    1
    31    72    73    1
    32    72    75    1
    33    76    75    1
    34    76    77    1
    35    81    77    1
    36    32    29    1
    37    14    13    1
    38    75    87    1
    39    75    83    1
    40    46    45    1
    41    77    82    1
    42    77    80    1
    43    45    43   am
    44    11    10    2
    45    17    16    2
    46    29    13    1
    47    29    31    1
    48    29    30    1
    49    13    10    1
    50    13    15    1
    51    89    88    1
    52    84    80    1
    53    10     9   am
    54    83    80    1
    55    83    88    1
    56    83    86    1
    57    80    85    1
    58    43    44    2
    59    43     1    1
    60    16    15   am
    61    16    19    1
    62     6     3    1
    63     8     7    1
    64    15    18    1
    65     3     1    1
    66     3     4   am
    67     9     7    1
    68     9    12    1
    69     2     1    1
    70     1    90    1
    71     7     4    1
    72     7    33    1
    73    19    24   ar
    74    19    20   ar
    75    38    35    1
    76     4     5    2
    77    24    23   ar
    78   101    99    1
    79    40    39    1
    80    92    90    1
    81    20    22    1
    82    20    21   ar
    83    90    91    1
    84    90    93    1
    85    35    36    1
    86    35    33    1
    87    35    37    1
    88   102    99    1
    89    33    39    1
    90    33    34    1
    91    99   100    1
    92    99    93    1
    93    23    21   ar
    94    39    41    1
    95    39    42    1
    96    21    25    1
    97    93    94    1
    98    93    95    1
    99    96    95    1
   100    28    25    1
   101    27    25    1
   102    25    26    1
   103    95    98    1
   104    95    97    1
@<TRIPOS>MOLECULE
crystal_redock_e24_er3_1.pdbqt
 102 104 0 0 0
SMALL
GASTEIGER

@<TRIPOS>ATOM
      1 C         -10.4290   10.8390   68.7760 C.3     1  UNL11       0.0890
      2 H          -9.5060   10.7350   69.3480 H       1  UNL11       0.0870
      3 N         -11.1460    9.5760   68.8670 N.am    1  UNL11      -0.3460
      4 C         -10.7870    8.5720   69.9340 C.2     1  UNL11       0.2410
      5 O          -9.9160    8.8020   70.7060 O.2     1  UNL11      -0.2710
      6 H         -11.8820    9.3980   68.1990 H       1  UNL11       0.1630
      7 C         -11.5440    7.2720   70.0170 C.3     1  UNL11       0.0920
      8 H         -12.4080    7.3170   69.3540 H       1  UNL11       0.0880
      9 N         -10.6900    6.1780   69.5430 N.am    1  UNL11      -0.3460
     10 C         -10.5990    5.8950   68.1320 C.2     1  UNL11       0.2400
     11 O         -11.2080    6.5350   67.3640 O.2     1  UNL11      -0.2710
     12 H         -10.1610    5.6160   70.1940 H       1  UNL11       0.1630
     13 C          -9.6920    4.7270   67.6340 C.3     1  UNL11       0.0860
     14 H         -10.1810    4.1010   66.8880 H       1  UNL11       0.0860
     15 N          -8.5110    5.2870   66.9970 N.am    1  UNL11      -0.3430
     16 C          -8.3950    5.2540   65.5380 C.2     1  UNL11       0.2730
     17 O          -9.2550    4.7730   64.8850 O.2     1  UNL11      -0.2660
     18 H          -7.7790    5.6940   67.5630 H       1  UNL11       0.1630
     19 C          -7.1530    5.8440   64.8510 C.ar    1  UNL11       0.1540
     20 C          -7.0920    7.0160   64.0320 C.ar    1  UNL11      -0.0170
     21 C          -5.7360    7.1230   63.6520 C.ar    1  UNL11       0.0770
     22 H          -7.9070    7.6850   63.7560 H       1  UNL11       0.0910
     23 O          -5.1010    6.1260   64.1950 O.2     1  UNL11      -0.2180
     24 N          -5.9060    5.3660   64.9000 N.ar    1  UNL11      -0.1230
     25 C          -5.1300    8.2070   62.7690 C.3     1  UNL11      -0.0290
     26 H          -5.4410    8.0510   61.7360 H       1  UNL11       0.0360
     27 H          -5.4720    9.1840   63.1080 H       1  UNL11       0.0360
     28 H          -4.0420    8.1610   62.8320 H       1  UNL11       0.0360
     29 C          -9.2880    3.8660   68.8040 C.3     1  UNL11      -0.0490
     30 H          -9.0490    4.5010   69.6570 H       1  UNL11       0.0300
     31 H         -10.1110    3.2010   69.0660 H       1  UNL11       0.0300
     32 H          -8.4130    3.2750   68.5350 H       1  UNL11       0.0300
     33 C         -11.9530    7.0040   71.4950 C.3     1  UNL11      -0.0330
     34 H         -11.5850    7.8360   72.0940 H       1  UNL11       0.0420
     35 C         -13.5050    6.9600   71.6560 C.3     1  UNL11      -0.0710
     36 H         -13.8400    7.8530   72.1850 H       1  UNL11       0.0280
     37 H         -13.9710    6.9250   70.6720 H       1  UNL11       0.0280
     38 H         -13.7860    6.0740   72.2240 H       1  UNL11       0.0280
     39 C         -11.2910    5.6930   72.0300 C.3     1  UNL11      -0.0710
     40 H         -11.3190    4.9290   71.2530 H       1  UNL11       0.0280
     41 H         -10.2550    5.8950   72.3040 H       1  UNL11       0.0280
     42 H         -11.8370    5.3420   72.9050 H       1  UNL11       0.0280
     43 C         -11.3420   11.9680   69.3350 C.2     1  UNL11       0.2400
     44 O         -12.3510   11.6880   69.8970 O.2     1  UNL11      -0.2710
     45 N         -10.9530   13.3980   69.1760 N.am    1  UNL11      -0.3550
     46 H         -10.0960   13.6480   68.7040 H       1  UNL11       0.1620
     47 C         -11.8310   14.4600   69.7140 C.3     1  UNL11       0.0130
     48 H         -12.8570   14.0910   69.6920 H       1  UNL11       0.0720
     49 C         -11.7090   15.6950   68.8500 C.3     1  UNL11      -0.0380
     50 H         -12.0290   15.3910   67.8540 H       1  UNL11       0.0360
     51 H         -12.2480   16.4800   69.3810 H       1  UNL11       0.0360
     52 C         -10.2510   16.1850   68.7090 C.3     1  UNL11       0.0180
     53 H         -10.1150   16.9350   69.4900 H       1  UNL11       0.0480
     54 H          -9.6360   15.2850   68.7050 H       1  UNL11       0.0480
     55 C          -9.9610   16.9090   67.3650 C.2     1  UNL11       0.2590
     56 O          -9.4330   17.9730   67.3550 O.2     1  UNL11      -0.2650
     57 O         -10.3460   16.2900   66.1440 O.3     1  UNL11      -0.3170
     58 C          -9.5690   15.1380   65.8040 C.3     1  UNL11       0.0520
     59 H          -8.8940   15.4610   65.0110 H       1  UNL11       0.0820
     60 H          -9.1660   14.7660   66.7460 H       1  UNL11       0.0820
     61 C         -10.5300   14.0660   65.2250 C.ar    1  UNL11      -0.0340
     62 C         -10.0710   13.1590   64.2750 C.ar    1  UNL11      -0.0750
     63 C         -10.9340   12.1960   63.7550 C.ar    1  UNL11      -0.0820
     64 H          -9.0350   13.2020   63.9390 H       1  UNL11       0.0840
     65 C         -12.2630   12.1430   64.1860 C.ar    1  UNL11      -0.0830
     66 H         -10.5710   11.4850   63.0120 H       1  UNL11       0.0830
     67 C         -12.7170   13.0520   65.1310 C.ar    1  UNL11      -0.0820
     68 H         -12.9440   11.3930   63.7840 H       1  UNL11       0.0830
     69 C         -11.8570   14.0150   65.6560 C.ar    1  UNL11      -0.0750
     70 H         -13.7550   13.0100   65.4640 H       1  UNL11       0.0830
     71 H         -12.2220   14.7250   66.3990 H       1  UNL11       0.0840
     72 C         -11.4190   14.7960   71.1450 C.3     1  UNL11      -0.0390
     73 H         -10.6110   14.1030   71.3840 H       1  UNL11       0.0360
     74 H         -11.2340   15.8700   71.1500 H       1  UNL11       0.0360
     75 C         -12.6050   14.5160   72.1850 C.3     1  UNL11      -0.0010
     76 C         -14.0020   14.2140   71.3730 C.3     1  UNL11      -0.0350
     77 C         -14.9760   15.0150   71.8670 C.3     1  UNL11       0.0850
     78 H         -13.9090   14.5370   70.3360 H       1  UNL11       0.0360
     79 H         -14.3580   13.2090   71.6010 H       1  UNL11       0.0360
     80 N         -14.2980   16.0630   72.7160 N.4     1  UNL11      -0.0490
     81 H         -15.4260   15.4970   70.9990 H       1  UNL11       0.0750
     82 H         -15.5810   14.3750   72.5100 H       1  UNL11       0.0750
     83 C         -12.7940   15.5290   72.9630 C.3     1  UNL11       0.1930
     84 H         -14.2530   16.9010   72.1540 H       1  UNL11       0.2800
     85 H         -14.7840   16.0740   73.6010 H       1  UNL11       0.2800
     86 H         -12.5100   15.0980   73.9230 H       1  UNL11       0.1290
     87 H         -12.3170   13.8030   72.9580 H       1  UNL11       0.0460
     88 O         -11.8530   16.5770   72.7210 O.3     1  UNL11      -0.3690
     89 H         -11.0300   16.2000   72.4040 H       1  UNL11       0.2120
     90 C         -10.1020   11.1200   67.3180 C.3     1  UNL11      -0.0350
     91 H         -11.0390   10.9730   66.7790 H       1  UNL11       0.0370
     92 H          -9.6190   12.0970   67.3140 H       1  UNL11       0.0370
     93 C          -9.0760   10.1170   66.7020 C.3     1  UNL11      -0.0590
     94 H          -8.7530    9.4440   67.4960 H       1  UNL11       0.0380
     95 C          -9.7100    9.2470   65.5690 C.3     1  UNL11      -0.0730
     96 H          -9.4470    8.2010   65.7240 H       1  UNL11       0.0280
     97 H         -10.7950    9.3570   65.5900 H       1  UNL11       0.0280
     98 H          -9.3310    9.5790   64.6020 H       1  UNL11       0.0280
     99 C          -7.8320   10.8500   66.1940 C.3     1  UNL11      -0.0730
    100 H          -7.9570   11.0900   65.1370 H       1  UNL11       0.0280
    101 H          -7.6960   11.7710   66.7620 H       1  UNL11       0.0280
    102 H          -6.9570   10.2130   66.3210 H       1  UNL11       0.0280
@<TRIPOS>BOND
     1    26    25    1
     2    25    28    1
     3    25    27    1
     4    25    21    1
     5    66    63    1
     6    21    20   ar
     7    21    23   ar
     8    63    65   ar
     9    63    62   ar
    10    22    20    1
    11    68    65    1
    12    64    62    1
    13    20    19   ar
    14    65    67   ar
    15    23    24   ar
    16    62    61   ar
    17    98    95    1
    18    19    24   ar
    19    19    16    1
    20    17    16    2
    21    59    58    1
    22    67    70    1
    23    67    69   ar
    24   100    99    1
    25    61    69   ar
    26    61    58    1
    27    16    15   am
    28    95    97    1
    29    95    96    1
    30    95    93    1
    31    69    71    1
    32    58    57    1
    33    58    60    1
    34    57    55    1
    35    99   102    1
    36    99    93    1
    37    99   101    1
    38    93    90    1
    39    93    94    1
    40    91    90    1
    41    14    13    1
    42    15    18    1
    43    15    13    1
    44    92    90    1
    45    90     1    1
    46    56    55    2
    47    11    10    2
    48    55    52    1
    49    13    10    1
    50    13    29    1
    51    50    49    1
    52    10     9   am
    53     6     3    1
    54    32    29    1
    55    46    45    1
    56    54    52    1
    57    52    49    1
    58    52    53    1
    59     1     3    1
    60     1    43    1
    61     1     2    1
    62    29    31    1
    63    29    30    1
    64    49    51    1
    65    49    47    1
    66     3     4   am
    67    45    43   am
    68    45    47    1
    69    43    44    2
    70     8     7    1
    71     9     7    1
    72     9    12    1
    73    48    47    1
    74    47    72    1
    75     4     7    1
    76     4     5    2
    77     7    33    1
    78    78    76    1
    79    37    35    1
    80    81    77    1
    81    72    74    1
    82    72    73    1
    83    72    75    1
    84    40    39    1
    85    76    79    1
    86    76    77    1
    87    76    75    1
    88    33    35    1
    89    33    39    1
    90    33    34    1
    91    35    36    1
    92    35    38    1
    93    77    82    1
    94    77    80    1
    95    39    41    1
    96    39    42    1
    97    84    80    1
    98    75    87    1
    99    75    83    1
   100    89    88    1
   101    80    83    1
   102    80    85    1
   103    88    83    1
   104    83    86    1
@<TRIPOS>MOLECULE
crystal_redock_e24_er3_1.pdbqt
 102 104 0 0 0
SMALL
GASTEIGER

@<TRIPOS>ATOM
      1 C          -8.2490    8.3560   62.8720 C.3     1  UNL11       0.0890
      2 H          -8.7130    8.3280   61.8860 H       1  UNL11       0.0870
      3 N          -9.1580    9.0600   63.7640 N.am    1  UNL11      -0.3460
      4 C          -9.6020   10.4650   63.4450 C.2     1  UNL11       0.2410
      5 O          -9.2120   11.0100   62.4650 O.2     1  UNL11      -0.2710
      6 H          -9.4760    8.5800   64.5940 H       1  UNL11       0.1630
      7 C         -10.5470   11.1770   64.3770 C.3     1  UNL11       0.0920
      8 H         -11.2510   10.4560   64.7920 H       1  UNL11       0.0880
      9 N          -9.7940   11.7440   65.4990 N.am    1  UNL11      -0.3460
     10 C          -9.8200   11.0930   66.7860 C.2     1  UNL11       0.2400
     11 O         -10.4430   10.1130   66.9360 O.2     1  UNL11      -0.2710
     12 H          -9.2530   12.5890   65.3860 H       1  UNL11       0.1630
     13 C          -9.0180   11.7020   67.9780 C.3     1  UNL11       0.0860
     14 H          -8.2730   12.4300   67.6570 H       1  UNL11       0.0860
     15 N          -9.9380   12.4080   68.8530 N.am    1  UNL11      -0.3430
     16 C         -10.3460   13.7750   68.5200 C.2     1  UNL11       0.2730
     17 O          -9.9260   14.2980   67.5460 O.2     1  UNL11      -0.2660
     18 H         -10.2910   11.9540   69.6840 H       1  UNL11       0.1630
     19 C         -11.3200   14.5330   69.4350 C.ar    1  UNL11       0.1540
     20 C         -12.2260   13.9690   70.3890 C.ar    1  UNL11      -0.0170
     21 C         -12.8860   15.0790   70.9630 C.ar    1  UNL11       0.0770
     22 H         -12.3800   12.9170   70.6290 H       1  UNL11       0.0910
     23 O         -12.4080   16.1490   70.3980 O.2     1  UNL11      -0.2180
     24 N         -11.4930   15.8560   69.5030 N.ar    1  UNL11      -0.1230
     25 C         -13.9590   15.0300   72.0420 C.3     1  UNL11      -0.0290
     26 H         -13.7120   14.2530   72.7660 H       1  UNL11       0.0360
     27 H         -14.0090   15.9940   72.5480 H       1  UNL11       0.0360
     28 H         -14.9250   14.8090   71.5870 H       1  UNL11       0.0360
     29 C          -8.3260   10.5990   68.7380 C.3     1  UNL11      -0.0490
     30 H          -8.9700    9.7200   68.7700 H       1  UNL11       0.0300
     31 H          -7.3900   10.3460   68.2400 H       1  UNL11       0.0300
     32 H          -8.1180   10.9330   69.7540 H       1  UNL11       0.0300
     33 C         -11.2680   12.3230   63.6080 C.3     1  UNL11      -0.0330
     34 H         -10.7150   12.4980   62.6850 H       1  UNL11       0.0420
     35 C         -12.7220   11.9170   63.2150 C.3     1  UNL11      -0.0710
     36 H         -13.1310   12.6550   62.5230 H       1  UNL11       0.0280
     37 H         -12.7090   10.9390   62.7350 H       1  UNL11       0.0280
     38 H         -13.3420   11.8760   64.1100 H       1  UNL11       0.0280
     39 C         -11.2540   13.6480   64.4380 C.3     1  UNL11      -0.0710
     40 H         -11.2770   14.5010   63.7600 H       1  UNL11       0.0280
     41 H         -12.1280   13.6770   65.0890 H       1  UNL11       0.0280
     42 H         -10.3480   13.6880   65.0420 H       1  UNL11       0.0280
     43 C          -7.9990    6.9310   63.4430 C.2     1  UNL11       0.2400
     44 O          -7.3890    6.1360   62.8040 O.2     1  UNL11      -0.2710
     45 N          -8.5120    6.5600   64.7930 N.am    1  UNL11      -0.3550
     46 H          -9.0280    7.2280   65.3470 H       1  UNL11       0.1620
     47 C          -8.2650    5.2010   65.3220 C.3     1  UNL11       0.0130
     48 H          -7.9470    4.5700   64.4930 H       1  UNL11       0.0720
     49 C          -9.5420    4.6590   65.9240 C.3     1  UNL11      -0.0380
     50 H         -10.1550    4.3440   65.0790 H       1  UNL11       0.0360
     51 H          -9.2290    3.9310   66.6720 H       1  UNL11       0.0360
     52 C         -10.3550    5.7360   66.6750 C.3     1  UNL11       0.0180
     53 H          -9.7820    6.6590   66.5790 H       1  UNL11       0.0480
     54 H         -11.3660    5.6780   66.2710 H       1  UNL11       0.0480
     55 C         -10.4870    5.4700   68.2000 C.2     1  UNL11       0.2590
     56 O          -9.8000    4.6600   68.7330 O.2     1  UNL11      -0.2650
     57 O         -11.4500    6.1970   68.9540 O.3     1  UNL11      -0.3170
     58 C         -11.1090    6.3580   70.3330 C.3     1  UNL11       0.0520
     59 H         -11.5950    5.5350   70.8560 H       1  UNL11       0.0820
     60 H         -10.0230    6.4550   70.3600 H       1  UNL11       0.0820
     61 C         -11.7320    7.6910   70.8280 C.ar    1  UNL11      -0.0340
     62 C         -12.8090    7.6720   71.7090 C.ar    1  UNL11      -0.0750
     63 C         -13.3690    8.8680   72.1530 C.ar    1  UNL11      -0.0820
     64 H         -13.2140    6.7190   72.0500 H       1  UNL11       0.0840
     65 C         -12.8490   10.0880   71.7120 C.ar    1  UNL11      -0.0830
     66 H         -14.2110    8.8500   72.8450 H       1  UNL11       0.0830
     67 C         -11.7760   10.1020   70.8310 C.ar    1  UNL11      -0.0820
     68 H         -13.2800   11.0280   72.0550 H       1  UNL11       0.0830
     69 C         -11.2120    8.9090   70.3860 C.ar    1  UNL11      -0.0750
     70 H         -11.3740   11.0560   70.4870 H       1  UNL11       0.0830
     71 H         -10.3690    8.9280   69.6950 H       1  UNL11       0.0840
     72 C          -7.1790    5.2550   66.3950 C.3     1  UNL11      -0.0390
     73 H          -7.1940    6.2780   66.7720 H       1  UNL11       0.0360
     74 H          -7.3940    4.4240   67.0670 H       1  UNL11       0.0360
     75 C          -5.7230    5.0000   65.7770 C.3     1  UNL11      -0.0010
     76 C          -5.1450    3.5470   66.2870 C.3     1  UNL11      -0.0350
     77 C          -3.9040    3.7260   66.7990 C.3     1  UNL11       0.0850
     78 H          -5.7240    3.1930   67.1400 H       1  UNL11       0.0360
     79 H          -4.9760    2.8910   65.4330 H       1  UNL11       0.0360
     80 N          -3.7140    5.2120   66.9850 N.4     1  UNL11      -0.0490
     81 H          -3.9200    3.2450   67.7770 H       1  UNL11       0.0750
     82 H          -3.2180    3.3740   66.0290 H       1  UNL11       0.0750
     83 C          -4.8930    5.9200   66.1400 C.3     1  UNL11       0.1930
     84 H          -3.8630    5.3990   67.9660 H       1  UNL11       0.2800
     85 H          -2.8290    5.4430   66.5560 H       1  UNL11       0.2800
     86 H          -4.6820    6.3870   65.1780 H       1  UNL11       0.1290
     87 H          -5.6880    5.1990   64.7060 H       1  UNL11       0.0460
     88 O          -5.5230    6.9330   66.9270 O.3     1  UNL11      -0.3690
     89 H          -6.2230    6.5410   67.4530 H       1  UNL11       0.2120
     90 C          -6.9340    9.1160   62.8010 C.3     1  UNL11      -0.0350
     91 H          -6.4440    8.7610   61.8950 H       1  UNL11       0.0370
     92 H          -7.2040   10.1680   62.8980 H       1  UNL11       0.0370
     93 C          -5.9630    8.7990   63.9820 C.3     1  UNL11      -0.0590
     94 H          -6.3610    7.9360   64.5150 H       1  UNL11       0.0380
     95 C          -4.5290    8.4320   63.4830 C.3     1  UNL11      -0.0730
     96 H          -4.5400    8.3160   62.4000 H       1  UNL11       0.0280
     97 H          -3.8340    9.2260   63.7570 H       1  UNL11       0.0280
     98 H          -4.2120    7.4970   63.9460 H       1  UNL11       0.0280
     99 C          -5.9120    9.9630   64.9760 C.3     1  UNL11      -0.0730
    100 H          -4.8980   10.3620   65.0170 H       1  UNL11       0.0280
    101 H          -6.5980   10.7460   64.6530 H       1  UNL11       0.0280
    102 H          -6.2040    9.6090   65.9650 H       1  UNL11       0.0280
@<TRIPOS>BOND
     1     2     1    1
     2    91    90    1
     3    96    95    1
     4     5     4    2
     5    36    35    1
     6    34    33    1
     7    37    35    1
     8    90     1    1
     9    90    92    1
    10    90    93    1
    11    44    43    2
    12     1    43    1
    13     1     3    1
    14    35    33    1
    15    35    38    1
    16    43    45   am
    17     4     3   am
    18     4     7    1
    19    95    97    1
    20    95    98    1
    21    95    93    1
    22    33     7    1
    23    33    39    1
    24    40    39    1
    25     3     6    1
    26    93    94    1
    27    93    99    1
    28     7     8    1
    29     7     9    1
    30    39    42    1
    31    39    41    1
    32    48    47    1
    33   101    99    1
    34    87    75    1
    35    45    47    1
    36    45    46    1
    37    99   100    1
    38    99   102    1
    39    50    49    1
    40    86    83    1
    41    47    49    1
    42    47    72    1
    43    12     9    1
    44    79    76    1
    45     9    10   am
    46    75    83    1
    47    75    76    1
    48    75    72    1
    49    49    51    1
    50    49    52    1
    51    82    77    1
    52    83    88    1
    53    83    80    1
    54    54    52    1
    55    76    77    1
    56    76    78    1
    57    72    73    1
    58    72    74    1
    59    85    80    1
    60    53    52    1
    61    52    55    1
    62    10    11    2
    63    10    13    1
    64    77    80    1
    65    77    81    1
    66    88    89    1
    67    80    84    1
    68    17    16    2
    69    14    13    1
    70    13    29    1
    71    13    15    1
    72    55    56    2
    73    55    57    1
    74    31    29    1
    75    16    15   am
    76    16    19    1
    77    29    30    1
    78    29    32    1
    79    15    18    1
    80    57    58    1
    81    19    24   ar
    82    19    20   ar
    83    24    23   ar
    84    71    69    1
    85    58    60    1
    86    58    61    1
    87    58    59    1
    88    69    61   ar
    89    69    67   ar
    90    20    22    1
    91    20    21   ar
    92    23    21   ar
    93    70    67    1
    94    61    62   ar
    95    67    65   ar
    96    21    25    1
    97    28    25    1
    98    62    64    1
    99    62    63   ar
   100    65    68    1
   101    65    63   ar
   102    25    27    1
   103    25    26    1
   104    63    66    1
@<TRIPOS>MOLECULE
crystal_redock_e24_er3_1.pdbqt
 102 104 0 0 0
SMALL
GASTEIGER

@<TRIPOS>ATOM
      1 C         -11.7360   14.9580   70.1280 C.3     1  UNL11       0.0890
      2 H         -12.7710   14.8840   69.7920 H       1  UNL11       0.0870
      3 N         -11.2020   13.6060   70.2030 N.am    1  UNL11      -0.3460
      4 C         -11.4660   12.6200   69.0920 C.2     1  UNL11       0.2410
      5 O         -12.1130   12.9370   68.1500 O.2     1  UNL11      -0.2710
      6 H         -10.6550   13.3550   71.0150 H       1  UNL11       0.1630
      7 C         -10.9000   11.2270   69.1830 C.3     1  UNL11       0.0920
      8 H         -10.0700   11.2230   69.8900 H       1  UNL11       0.0880
      9 N         -11.9220   10.3180   69.7090 N.am    1  UNL11      -0.3460
     10 C         -11.6370    9.5030   70.8650 C.2     1  UNL11       0.2400
     11 O         -10.5890    9.5660   71.3830 O.2     1  UNL11      -0.2710
     12 H         -12.8300   10.2510   69.2720 H       1  UNL11       0.1630
     13 C         -12.7280    8.5350   71.4180 C.3     1  UNL11       0.0860
     14 H         -13.2760    8.0220   70.6280 H       1  UNL11       0.0860
     15 N         -12.0830    7.5030   72.2140 N.am    1  UNL11      -0.3430
     16 C         -11.5440    6.3130   71.5520 C.2     1  UNL11       0.2730
     17 O         -11.6360    6.1940   70.3790 O.2     1  UNL11      -0.2660
     18 H         -12.0110    7.6120   73.2150 H       1  UNL11       0.1630
     19 C         -10.8580    5.2160   72.3800 C.ar    1  UNL11       0.1540
     20 C         -10.8520    5.0850   73.8050 C.ar    1  UNL11      -0.0170
     21 C         -10.0910    3.9220   74.0610 C.ar    1  UNL11       0.0770
     22 H         -11.3270    5.7340   74.5420 H       1  UNL11       0.0910
     23 O          -9.7110    3.4480   72.9100 O.2     1  UNL11      -0.2180
     24 N         -10.1460    4.1860   71.9150 N.ar    1  UNL11      -0.1230
     25 C          -9.7760    3.3340   75.4290 C.3     1  UNL11      -0.0290
     26 H          -8.7220    3.4950   75.6610 H       1  UNL11       0.0360
     27 H         -10.3920    3.8200   76.1850 H       1  UNL11       0.0360
     28 H          -9.9870    2.2640   75.4220 H       1  UNL11       0.0360
     29 C         -13.7050    9.3070   72.2670 C.3     1  UNL11      -0.0490
     30 H         -13.7660    8.8520   73.2560 H       1  UNL11       0.0300
     31 H         -13.3680   10.3390   72.3610 H       1  UNL11       0.0300
     32 H         -14.6880    9.2870   71.7980 H       1  UNL11       0.0300
     33 C         -10.4650   10.7510   67.7670 C.3     1  UNL11      -0.0330
     34 H         -11.0260   11.3340   67.0370 H       1  UNL11       0.0420
     35 C          -8.9480   11.0210   67.5170 C.3     1  UNL11      -0.0710
     36 H          -8.3630   10.5830   68.3260 H       1  UNL11       0.0280
     37 H          -8.6510   10.5720   66.5700 H       1  UNL11       0.0280
     38 H          -8.7720   12.0960   67.4810 H       1  UNL11       0.0280
     39 C         -10.8140    9.2430   67.5520 C.3     1  UNL11      -0.0710
     40 H         -10.3300    8.8840   66.6440 H       1  UNL11       0.0280
     41 H         -10.4630    8.6630   68.4060 H       1  UNL11       0.0280
     42 H         -11.8940    9.1310   67.4560 H       1  UNL11       0.0280
     43 C         -10.8570   15.7840   69.1470 C.2     1  UNL11       0.2400
     44 O          -9.9250   16.3960   69.5590 O.2     1  UNL11      -0.2710
     45 N         -11.1730   15.8070   67.6900 N.am    1  UNL11      -0.3550
     46 H         -11.9590   15.2880   67.3270 H       1  UNL11       0.1620
     47 C         -10.3270   16.5960   66.7690 C.3     1  UNL11       0.0130
     48 H          -9.3310   16.6690   67.2070 H       1  UNL11       0.0720
     49 C         -10.9210   17.9770   66.6040 C.3     1  UNL11      -0.0380
     50 H         -11.4190   17.9700   65.6350 H       1  UNL11       0.0360
     51 H         -11.4960   18.1590   67.5120 H       1  UNL11       0.0360
     52 C          -9.8490   19.0870   66.5370 C.3     1  UNL11       0.0180
     53 H          -9.8720   19.4570   65.5120 H       1  UNL11       0.0480
     54 H         -10.0690   19.7610   67.3650 H       1  UNL11       0.0480
     55 C          -8.4010   18.5740   66.7750 C.2     1  UNL11       0.2590
     56 O          -7.6930   18.3200   65.8550 O.2     1  UNL11      -0.2650
     57 O          -7.9340   18.4000   68.1070 O.3     1  UNL11      -0.3170
     58 C          -7.6030   19.6220   68.7720 C.3     1  UNL11       0.0520
     59 H          -7.8270   20.4160   68.0600 H       1  UNL11       0.0820
     60 H          -8.1220   19.5860   69.7300 H       1  UNL11       0.0820
     61 C          -6.0740   19.6210   69.0420 C.ar    1  UNL11      -0.0340
     62 C          -5.4470   18.4640   69.4920 C.ar    1  UNL11      -0.0750
     63 C          -4.0740   18.4630   69.7340 C.ar    1  UNL11      -0.0820
     64 H          -6.0300   17.5580   69.6540 H       1  UNL11       0.0840
     65 C          -3.3280   19.6270   69.5280 C.ar    1  UNL11      -0.0830
     66 H          -3.5850   17.5540   70.0850 H       1  UNL11       0.0830
     67 C          -3.9600   20.7800   69.0820 C.ar    1  UNL11      -0.0820
     68 H          -2.2550   19.6350   69.7140 H       1  UNL11       0.0830
     69 C          -5.3310   20.7850   68.8360 C.ar    1  UNL11      -0.0750
     70 H          -3.3760   21.6870   68.9240 H       1  UNL11       0.0830
     71 H          -5.8200   21.6940   68.4850 H       1  UNL11       0.0840
     72 C         -10.2580   15.9050   65.4090 C.3     1  UNL11      -0.0390
     73 H         -10.5610   16.6610   64.6840 H       1  UNL11       0.0360
     74 H          -9.2620   15.4670   65.3560 H       1  UNL11       0.0360
     75 C         -11.3100   14.7010   65.3030 C.3     1  UNL11      -0.0010
     76 C         -10.5200   13.2940   64.9870 C.3     1  UNL11      -0.0350
     77 C         -11.1030   12.6960   63.9200 C.3     1  UNL11       0.0850
     78 H          -9.5080   13.5030   64.6410 H       1  UNL11       0.0360
     79 H         -10.6840   12.5830   65.7980 H       1  UNL11       0.0360
     80 N         -12.0060   13.7220   63.2780 N.4     1  UNL11      -0.0490
     81 H         -10.2860   12.4630   63.2350 H       1  UNL11       0.0750
     82 H         -11.7140   11.8940   64.3330 H       1  UNL11       0.0750
     83 C         -12.1660   14.9100   64.3590 C.3     1  UNL11       0.1930
     84 H         -11.5070   14.0810   62.4770 H       1  UNL11       0.2800
     85 H         -12.9040   13.2760   63.1560 H       1  UNL11       0.2800
     86 H         -13.0830   15.0090   64.9410 H       1  UNL11       0.1290
     87 H         -12.0180   14.6970   66.1310 H       1  UNL11       0.0460
     88 O         -11.9750   16.1780   63.7290 O.3     1  UNL11      -0.3690
     89 H         -11.0540   16.2740   63.4760 H       1  UNL11       0.2120
     90 C         -11.6880   15.5870   71.5110 C.3     1  UNL11      -0.0350
     91 H         -10.7290   15.2840   71.9330 H       1  UNL11       0.0370
     92 H         -11.9050   16.6440   71.3550 H       1  UNL11       0.0370
     93 C         -12.7870   15.0500   72.4830 C.3     1  UNL11      -0.0590
     94 H         -12.7810   13.9620   72.4190 H       1  UNL11       0.0380
     95 C         -12.5030   15.4420   73.9680 C.3     1  UNL11      -0.0730
     96 H         -12.7270   14.5950   74.6160 H       1  UNL11       0.0280
     97 H         -11.4530   15.7150   74.0770 H       1  UNL11       0.0280
     98 H         -13.1300   16.2890   74.2470 H       1  UNL11       0.0280
     99 C         -14.1770   15.5230   72.0510 C.3     1  UNL11      -0.0730
    100 H         -14.1200   16.5590   71.7150 H       1  UNL11       0.0280
    101 H         -14.5380   14.8950   71.2360 H       1  UNL11       0.0280
    102 H         -14.8630   15.4520   72.8950 H       1  UNL11       0.0280
@<TRIPOS>BOND
     1    84    80    1
     2    85    80    1
     3    81    77    1
     4    80    77    1
     5    80    83    1
     6    89    88    1
     7    88    83    1
     8    77    82    1
     9    77    76    1
    10    83    86    1
    11    83    75    1
    12    78    76    1
    13    73    72    1
    14    76    75    1
    15    76    79    1
    16    75    72    1
    17    75    87    1
    18    74    72    1
    19    72    47    1
    20    53    52    1
    21    50    49    1
    22    56    55    2
    23    52    49    1
    24    52    55    1
    25    52    54    1
    26    37    35    1
    27    49    47    1
    28    49    51    1
    29    40    39    1
    30    47    48    1
    31    47    45    1
    32    55    57    1
    33    34    33    1
    34    46    45    1
    35    42    39    1
    36    38    35    1
    37    35    33    1
    38    35    36    1
    39    39    33    1
    40    39    41    1
    41    45    43   am
    42    33     7    1
    43    59    58    1
    44    57    58    1
    45     5     4    2
    46    71    69    1
    47    58    61    1
    48    58    60    1
    49    69    61   ar
    50    69    67   ar
    51    70    67    1
    52    61    62   ar
    53    67    65   ar
    54     4     7    1
    55     4     3   am
    56    43    44    2
    57    43     1    1
    58     7     9    1
    59     7     8    1
    60    12     9    1
    61    62    64    1
    62    62    63   ar
    63    65    68    1
    64    65    63   ar
    65     9    10   am
    66    63    66    1
    67     2     1    1
    68     1     3    1
    69     1    90    1
    70     3     6    1
    71    17    16    2
    72    14    13    1
    73    10    11    2
    74    10    13    1
    75   101    99    1
    76    92    90    1
    77    13    15    1
    78    13    29    1
    79    90    91    1
    80    90    93    1
    81    16    15   am
    82    16    19    1
    83   100    99    1
    84    32    29    1
    85    24    19   ar
    86    24    23   ar
    87    99    93    1
    88    99   102    1
    89    15    18    1
    90    29    31    1
    91    29    30    1
    92    19    20   ar
    93    94    93    1
    94    93    95    1
    95    23    21   ar
    96    20    21   ar
    97    20    22    1
    98    95    97    1
    99    95    98    1
   100    95    96    1
   101    21    25    1
   102    28    25    1
   103    25    26    1
   104    25    27    1
@<TRIPOS>MOLECULE
crystal_redock_e24_er3_1.pdbqt
 102 104 0 0 0
SMALL
GASTEIGER

@<TRIPOS>ATOM
      1 C         -11.6710   12.9820   68.8620 C.3     1  UNL11       0.0890
      2 H         -12.7450   12.8810   68.7040 H       1  UNL11       0.0870
      3 N         -11.2450   11.8710   69.7000 N.am    1  UNL11      -0.3460
      4 C         -11.4180   10.4500   69.2270 C.2     1  UNL11       0.2410
      5 O         -11.9050   10.2250   68.1680 O.2     1  UNL11      -0.2710
      6 H         -10.8350   12.0830   70.5990 H       1  UNL11       0.1630
      7 C         -10.9670    9.3120   70.1050 C.3     1  UNL11       0.0920
      8 H         -11.2600    8.3680   69.6470 H       1  UNL11       0.0880
      9 N          -9.5030    9.3140   70.1940 N.am    1  UNL11      -0.3460
     10 C          -8.7270    8.4790   69.3110 C.2     1  UNL11       0.2400
     11 O          -9.2630    7.7980   68.5250 O.2     1  UNL11      -0.2710
     12 H          -9.0270    9.8950   70.8690 H       1  UNL11       0.1630
     13 C          -7.1700    8.4830   69.4130 C.3     1  UNL11       0.0860
     14 H          -6.7460    7.4790   69.4410 H       1  UNL11       0.0860
     15 N          -6.6220    9.1330   68.2350 N.am    1  UNL11      -0.3430
     16 C          -6.0420    8.3170   67.1650 C.2     1  UNL11       0.2730
     17 O          -6.0190    7.1400   67.2640 O.2     1  UNL11      -0.2660
     18 H          -6.6430   10.1400   68.1600 H       1  UNL11       0.1630
     19 C          -5.4610    8.9910   65.9120 C.ar    1  UNL11       0.1540
     20 C          -4.6920    8.3730   64.8760 C.ar    1  UNL11      -0.0170
     21 C          -4.4050    9.4140   63.9660 C.ar    1  UNL11       0.0770
     22 H          -4.3880    7.3290   64.7970 H       1  UNL11       0.0910
     23 O          -4.9510   10.4990   64.4330 O.2     1  UNL11      -0.2180
     24 N          -5.5720   10.2770   65.5680 N.ar    1  UNL11      -0.1230
     25 C          -3.6050    9.2890   62.6750 C.3     1  UNL11      -0.0290
     26 H          -4.0140    8.4800   62.0710 H       1  UNL11       0.0360
     27 H          -3.6650   10.2250   62.1190 H       1  UNL11       0.0360
     28 H          -2.5630    9.0750   62.9130 H       1  UNL11       0.0360
     29 C          -6.7470    9.2240   70.6560 C.3     1  UNL11      -0.0490
     30 H          -7.6250    9.6450   71.1450 H       1  UNL11       0.0300
     31 H          -6.2460    8.5360   71.3370 H       1  UNL11       0.0300
     32 H          -6.0640   10.0290   70.3840 H       1  UNL11       0.0300
     33 C         -11.5710    9.4850   71.5290 C.3     1  UNL11      -0.0330
     34 H         -11.1460   10.3930   71.9580 H       1  UNL11       0.0420
     35 C         -13.1190    9.6740   71.4710 C.3     1  UNL11      -0.0710
     36 H         -13.3620   10.4610   70.7560 H       1  UNL11       0.0280
     37 H         -13.5870    8.7410   71.1570 H       1  UNL11       0.0280
     38 H         -13.4880    9.9520   72.4570 H       1  UNL11       0.0280
     39 C         -11.1810    8.2860   72.4520 C.3     1  UNL11      -0.0710
     40 H         -11.1170    8.6280   73.4840 H       1  UNL11       0.0280
     41 H         -11.9380    7.5060   72.3740 H       1  UNL11       0.0280
     42 H         -10.2150    7.8880   72.1400 H       1  UNL11       0.0280
     43 C         -10.8730   12.9300   67.5280 C.2     1  UNL11       0.2400
     44 O          -9.7350   13.2710   67.5060 O.2     1  UNL11      -0.2710
     45 N         -11.5260   12.4460   66.2780 N.am    1  UNL11      -0.3550
     46 H         -12.4900   12.1480   66.2850 H       1  UNL11       0.1620
     47 C         -10.7530   12.4010   65.0180 C.3     1  UNL11       0.0130
     48 H          -9.7610   12.8040   65.2180 H       1  UNL11       0.0720
     49 C         -11.4520   13.2410   63.9730 C.3     1  UNL11      -0.0380
     50 H         -10.6570   13.7260   63.4050 H       1  UNL11       0.0360
     51 H         -12.1480   12.5690   63.4720 H       1  UNL11       0.0360
     52 C         -12.3030   14.3740   64.5870 C.3     1  UNL11       0.0180
     53 H         -13.0920   14.5770   63.8620 H       1  UNL11       0.0480
     54 H         -12.5600   14.0390   65.5920 H       1  UNL11       0.0480
     55 C         -11.5320   15.7110   64.7650 C.2     1  UNL11       0.2590
     56 O         -11.4760   16.4990   63.8770 O.2     1  UNL11      -0.2650
     57 O         -10.8790   15.9790   66.0010 O.3     1  UNL11      -0.3170
     58 C          -9.5060   16.3540   65.8640 C.3     1  UNL11       0.0520
     59 H          -8.9450   15.6520   66.4810 H       1  UNL11       0.0820
     60 H          -9.3190   16.4060   64.7920 H       1  UNL11       0.0820
     61 C          -9.3360   17.7770   66.4610 C.ar    1  UNL11      -0.0340
     62 C         -10.3240   18.7370   66.2650 C.ar    1  UNL11      -0.0750
     63 C         -10.1720   20.0150   66.8010 C.ar    1  UNL11      -0.0820
     64 H         -11.2170   18.4880   65.6920 H       1  UNL11       0.0840
     65 C          -9.0250   20.3320   67.5330 C.ar    1  UNL11      -0.0830
     66 H         -10.9490   20.7640   66.6480 H       1  UNL11       0.0830
     67 C          -8.0400   19.3720   67.7230 C.ar    1  UNL11      -0.0820
     68 H          -8.8980   21.3290   67.9560 H       1  UNL11       0.0830
     69 C          -8.1890   18.0930   67.1910 C.ar    1  UNL11      -0.0750
     70 H          -7.1450   19.6240   68.2930 H       1  UNL11       0.0830
     71 H          -7.4120   17.3440   67.3460 H       1  UNL11       0.0840
     72 C         -10.6500   10.9580   64.5260 C.3     1  UNL11      -0.0390
     73 H         -11.2730   10.3750   65.2050 H       1  UNL11       0.0360
     74 H         -10.8900   10.9960   63.4640 H       1  UNL11       0.0360
     75 C          -9.1560   10.3940   64.6530 C.3     1  UNL11      -0.0010
     76 C          -8.5660   10.0300   63.1620 C.3     1  UNL11      -0.0350
     77 C          -8.0770    8.7670   63.1830 C.3     1  UNL11       0.0850
     78 H          -9.3810    9.9760   62.4410 H       1  UNL11       0.0360
     79 H          -7.6880   10.6390   62.9480 H       1  UNL11       0.0360
     80 N          -8.5740    8.1220   64.4550 N.4     1  UNL11      -0.0490
     81 H          -8.5320    8.2640   62.3290 H       1  UNL11       0.0750
     82 H          -6.9950    8.8740   63.2390 H       1  UNL11       0.0750
     83 C          -9.1190    9.3270   65.3800 C.3     1  UNL11       0.1930
     84 H          -9.3560    7.5380   64.1930 H       1  UNL11       0.2800
     85 H          -7.7660    7.7130   64.9030 H       1  UNL11       0.2800
     86 H          -8.5330    9.6840   66.2270 H       1  UNL11       0.1290
     87 H          -8.5320   11.0180   65.2950 H       1  UNL11       0.0460
     88 O         -10.4010    8.9960   65.9160 O.3     1  UNL11      -0.3690
     89 H         -10.9390    9.7890   65.9720 H       1  UNL11       0.2120
     90 C         -11.3770   14.2880   69.5830 C.3     1  UNL11      -0.0350
     91 H         -10.2930   14.3180   69.6970 H       1  UNL11       0.0370
     92 H         -11.8850   15.0590   69.0020 H       1  UNL11       0.0370
     93 C         -11.9740   14.3560   71.0240 C.3     1  UNL11      -0.0590
     94 H         -11.5530   13.5290   71.5960 H       1  UNL11       0.0380
     95 C         -11.5940   15.6830   71.7570 C.3     1  UNL11      -0.0730
     96 H         -12.4550   16.3520   71.7650 H       1  UNL11       0.0280
     97 H         -11.2980   15.4600   72.7820 H       1  UNL11       0.0280
     98 H         -10.7660   16.1620   71.2350 H       1  UNL11       0.0280
     99 C         -13.4920   14.1640   70.9970 C.3     1  UNL11      -0.0730
    100 H         -13.9650   15.0590   70.5890 H       1  UNL11       0.0280
    101 H         -13.7390   13.3060   70.3710 H       1  UNL11       0.0280
    102 H         -13.8550   13.9910   72.0100 H       1  UNL11       0.0280
@<TRIPOS>BOND
     1    26    25    1
     2    27    25    1
     3    81    77    1
     4    78    76    1
     5    25    28    1
     6    25    21    1
     7    79    76    1
     8    76    77    1
     9    76    75    1
    10    77    82    1
    11    77    80    1
    12    50    49    1
    13    74    72    1
    14    51    49    1
    15    53    52    1
    16    56    55    2
    17    21    23   ar
    18    21    20   ar
    19    49    52    1
    20    49    47    1
    21    84    80    1
    22    23    24   ar
    23    80    85    1
    24    80    83    1
    25    72    75    1
    26    72    47    1
    27    72    73    1
    28    52    55    1
    29    52    54    1
    30    75    87    1
    31    75    83    1
    32    55    57    1
    33    60    58    1
    34    22    20    1
    35    20    19   ar
    36    47    48    1
    37    47    45    1
    38    83    88    1
    39    83    86    1
    40    24    19   ar
    41    64    62    1
    42    58    57    1
    43    58    61    1
    44    58    59    1
    45    19    16    1
    46    88    89    1
    47    62    61   ar
    48    62    63   ar
    49    45    46    1
    50    45    43   am
    51    61    69   ar
    52    66    63    1
    53    63    65   ar
    54    16    17    2
    55    16    15   am
    56    69    71    1
    57    69    67   ar
    58    44    43    2
    59    43     1    1
    60    65    67   ar
    61    65    68    1
    62    67    70    1
    63    18    15    1
    64     5     4    2
    65    15    13    1
    66    11    10    2
    67     2     1    1
    68     1    90    1
    69     1     3    1
    70    92    90    1
    71     4     3   am
    72     4     7    1
    73    10    13    1
    74    10     9   am
    75    13    14    1
    76    13    29    1
    77    90    91    1
    78    90    93    1
    79     8     7    1
    80     3     6    1
    81     7     9    1
    82     7    33    1
    83     9    12    1
    84   101    99    1
    85    32    29    1
    86   100    99    1
    87    29    30    1
    88    29    31    1
    89    36    35    1
    90    99    93    1
    91    99   102    1
    92    93    94    1
    93    93    95    1
    94    37    35    1
    95    98    95    1
    96    35    33    1
    97    35    38    1
    98    33    34    1
    99    33    39    1
   100    95    96    1
   101    95    97    1
   102    42    39    1
   103    41    39    1
   104    39    40    1
@<TRIPOS>MOLECULE
crystal_redock_e24_er3_1.pdbqt
 102 104 0 0 0
SMALL
GASTEIGER

@<TRIPOS>ATOM
      1 C         -10.1400    8.5010   68.8800 C.3     1  UNL11       0.0890
      2 H         -11.1940    8.2790   68.7110 H       1  UNL11       0.0870
      3 N          -9.3650    7.6510   67.9900 N.am    1  UNL11      -0.3460
      4 C         -10.0600    6.7580   66.9920 C.2     1  UNL11       0.2410
      5 O         -11.2450    6.7400   66.9260 O.2     1  UNL11      -0.2710
      6 H          -8.3580    7.6790   68.0630 H       1  UNL11       0.1630
      7 C          -9.2410    5.8890   66.0740 C.3     1  UNL11       0.0920
      8 H          -9.8540    5.5870   65.2250 H       1  UNL11       0.0880
      9 N          -8.1150    6.6620   65.5420 N.am    1  UNL11      -0.3460
     10 C          -7.7350    6.5230   64.1580 C.2     1  UNL11       0.2400
     11 O          -8.3240    5.7910   63.4590 O.2     1  UNL11      -0.2710
     12 H          -7.5970    7.2960   66.1340 H       1  UNL11       0.1630
     13 C          -6.5340    7.3470   63.5980 C.3     1  UNL11       0.0860
     14 H          -6.7960    7.9230   62.7110 H       1  UNL11       0.0860
     15 N          -6.1090    8.3040   64.6060 N.am    1  UNL11      -0.3430
     16 C          -5.7860    9.6750   64.2070 C.2     1  UNL11       0.2730
     17 O          -5.8690    9.9980   63.0730 O.2     1  UNL11      -0.2660
     18 H          -6.0380    8.0180   65.5730 H       1  UNL11       0.1630
     19 C          -5.3360   10.6980   65.2620 C.ar    1  UNL11       0.1540
     20 C          -6.0040   11.0310   66.4840 C.ar    1  UNL11      -0.0170
     21 C          -5.1890   12.0140   67.0870 C.ar    1  UNL11       0.0770
     22 H          -6.9360   10.6210   66.8730 H       1  UNL11       0.0910
     23 O          -4.1750   12.2150   66.2980 O.2     1  UNL11      -0.2180
     24 N          -4.2390   11.4590   65.2260 N.ar    1  UNL11      -0.1230
     25 C          -5.4500   12.7100   68.4170 C.3     1  UNL11      -0.0290
     26 H          -4.5830   12.5880   69.0670 H       1  UNL11       0.0360
     27 H          -5.6270   13.7710   68.2430 H       1  UNL11       0.0360
     28 H          -6.3260   12.2690   68.8920 H       1  UNL11       0.0360
     29 C          -5.3980    6.4160   63.2570 C.3     1  UNL11      -0.0490
     30 H          -5.6520    5.8450   62.3640 H       1  UNL11       0.0300
     31 H          -4.4950    6.9980   63.0730 H       1  UNL11       0.0300
     32 H          -5.2280    5.7320   64.0880 H       1  UNL11       0.0300
     33 C          -8.6970    4.6650   66.8680 C.3     1  UNL11      -0.0330
     34 H          -8.6330    3.8260   66.1760 H       1  UNL11       0.0420
     35 C          -7.2590    4.9350   67.4130 C.3     1  UNL11      -0.0710
     36 H          -6.9130    4.0650   67.9710 H       1  UNL11       0.0280
     37 H          -6.5840    5.1220   66.5780 H       1  UNL11       0.0280
     38 H          -7.2770    5.8050   68.0690 H       1  UNL11       0.0280
     39 C          -9.6740    4.2670   68.0210 C.3     1  UNL11      -0.0710
     40 H          -9.2740    4.6160   68.9730 H       1  UNL11       0.0280
     41 H         -10.6480    4.7240   67.8460 H       1  UNL11       0.0280
     42 H          -9.7810    3.1830   68.0470 H       1  UNL11       0.0280
     43 C          -9.7970    9.9860   68.5700 C.2     1  UNL11       0.2400
     44 O          -8.7790   10.4540   68.9690 O.2     1  UNL11      -0.2710
     45 N         -10.7320   10.8240   67.7670 N.am    1  UNL11      -0.3550
     46 H         -11.5970   10.4370   67.4180 H       1  UNL11       0.1620
     47 C         -10.3900   12.2340   67.4800 C.3     1  UNL11       0.0130
     48 H          -9.7410   12.5920   68.2790 H       1  UNL11       0.0720
     49 C         -11.6580   13.0570   67.4370 C.3     1  UNL11      -0.0380
     50 H         -12.2900   12.5870   66.6830 H       1  UNL11       0.0360
     51 H         -12.0000   13.1250   68.4700 H       1  UNL11       0.0360
     52 C         -11.4160   14.5060   66.9610 C.3     1  UNL11       0.0180
     53 H         -11.0670   14.4250   65.9320 H       1  UNL11       0.0480
     54 H         -12.3360   15.0470   67.1840 H       1  UNL11       0.0480
     55 C         -10.2890   15.2410   67.7390 C.2     1  UNL11       0.2590
     56 O          -9.4220   15.8050   67.1540 O.2     1  UNL11      -0.2650
     57 O         -10.2970   15.2210   69.1610 O.3     1  UNL11      -0.3170
     58 C         -11.1140   16.2340   69.7540 C.3     1  UNL11       0.0520
     59 H         -10.4220   16.9740   70.1550 H       1  UNL11       0.0820
     60 H         -11.8330   16.5190   68.9860 H       1  UNL11       0.0820
     61 C         -11.8890   15.5930   70.9360 C.ar    1  UNL11      -0.0340
     62 C         -11.9300   16.2340   72.1700 C.ar    1  UNL11      -0.0750
     63 C         -12.6250   15.6590   73.2330 C.ar    1  UNL11      -0.0820
     64 H         -11.4170   17.1870   72.3050 H       1  UNL11       0.0840
     65 C         -13.2800   14.4360   73.0580 C.ar    1  UNL11      -0.0830
     66 H         -12.6570   16.1640   74.1980 H       1  UNL11       0.0830
     67 C         -13.2330   13.7990   71.8260 C.ar    1  UNL11      -0.0820
     68 H         -13.8260   13.9800   73.8840 H       1  UNL11       0.0830
     69 C         -12.5410   14.3710   70.7610 C.ar    1  UNL11      -0.0750
     70 H         -13.7430   12.8440   71.6940 H       1  UNL11       0.0830
     71 H         -12.5100   13.8650   69.7950 H       1  UNL11       0.0840
     72 C          -9.6760   12.3280   66.1330 C.3     1  UNL11      -0.0390
     73 H          -9.7580   13.3730   65.8330 H       1  UNL11       0.0360
     74 H          -8.6940   11.8840   66.2940 H       1  UNL11       0.0360
     75 C         -10.4110   11.4550   65.0090 C.3     1  UNL11      -0.0010
     76 C          -9.5460   10.0910   64.7050 C.3     1  UNL11      -0.0350
     77 C          -9.3480    9.9880   63.3690 C.3     1  UNL11       0.0850
     78 H          -8.5370   10.1910   65.1050 H       1  UNL11       0.0360
     79 H         -10.1410    9.2090   64.9420 H       1  UNL11       0.0360
     80 N          -9.7150   11.3220   62.7650 N.4     1  UNL11      -0.0490
     81 H          -8.2770    9.8240   63.2440 H       1  UNL11       0.0750
     82 H         -10.0580    9.2370   63.0260 H       1  UNL11       0.0750
     83 C         -10.5320   12.1180   63.9080 C.3     1  UNL11       0.1930
     84 H          -8.8460   11.8080   62.5940 H       1  UNL11       0.2800
     85 H         -10.3430   11.1270   61.9980 H       1  UNL11       0.2800
     86 H         -11.6170   12.2100   63.8500 H       1  UNL11       0.1290
     87 H         -11.4750   11.3330   65.2130 H       1  UNL11       0.0460
     88 O         -10.0410   13.4540   64.0250 O.3     1  UNL11      -0.3690
     89 H         -10.3010   13.8170   64.8750 H       1  UNL11       0.2120
     90 C          -9.7700    8.1810   70.3190 C.3     1  UNL11      -0.0350
     91 H          -9.1030    7.3200   70.2610 H       1  UNL11       0.0370
     92 H          -9.4120    9.1200   70.7410 H       1  UNL11       0.0370
     93 C         -10.9860    7.7380   71.1950 C.3     1  UNL11      -0.0590
     94 H         -10.5930    7.3640   72.1400 H       1  UNL11       0.0380
     95 C         -11.9450    8.9290   71.5160 C.3     1  UNL11      -0.0730
     96 H         -12.4650    9.2310   70.6070 H       1  UNL11       0.0280
     97 H         -12.6740    8.6170   72.2640 H       1  UNL11       0.0280
     98 H         -11.3660    9.7690   71.9000 H       1  UNL11       0.0280
     99 C         -11.7480    6.5880   70.5320 C.3     1  UNL11      -0.0730
    100 H         -12.3050    6.0370   71.2890 H       1  UNL11       0.0280
    101 H         -12.4400    6.9910   69.7910 H       1  UNL11       0.0280
    102 H         -11.0410    5.9190   70.0410 H       1  UNL11       0.0280
@<TRIPOS>BOND
     1    85    80    1
     2    30    29    1
     3    84    80    1
     4    14    13    1
     5    80    77    1
     6    80    83    1
     7    82    77    1
     8    17    16    2
     9    31    29    1
    10    81    77    1
    11    29    13    1
    12    29    32    1
    13    77    76    1
    14    11    10    2
    15    13    10    1
    16    13    15    1
    17    86    83    1
    18    83    88    1
    19    83    75    1
    20    88    89    1
    21    10     9   am
    22    16    15   am
    23    16    19    1
    24    15    18    1
    25    76    79    1
    26    76    75    1
    27    76    78    1
    28    75    87    1
    29    75    72    1
    30     8     7    1
    31    24    19   ar
    32    24    23   ar
    33    19    20   ar
    34     9     7    1
    35     9    12    1
    36    73    72    1
    37    53    52    1
    38     7    33    1
    39     7     4    1
    40    72    74    1
    41    72    47    1
    42    34    33    1
    43    23    21   ar
    44    20    22    1
    45    20    21   ar
    46    37    35    1
    47    50    49    1
    48    33    35    1
    49    33    39    1
    50     5     4    2
    51    52    54    1
    52    52    49    1
    53    52    55    1
    54     4     3   am
    55    21    25    1
    56    56    55    2
    57    35    36    1
    58    35    38    1
    59    46    45    1
    60    49    47    1
    61    49    51    1
    62    47    45    1
    63    47    48    1
    64    55    57    1
    65    45    43   am
    66    41    39    1
    67     3     6    1
    68     3     1    1
    69    39    42    1
    70    39    40    1
    71    27    25    1
    72    25    28    1
    73    25    26    1
    74    43     1    1
    75    43    44    2
    76     2     1    1
    77     1    90    1
    78    60    58    1
    79    57    58    1
    80    58    59    1
    81    58    61    1
    82   101    99    1
    83    71    69    1
    84   102    99    1
    85    91    90    1
    86    90    92    1
    87    90    93    1
    88    99    93    1
    89    99   100    1
    90    96    95    1
    91    69    61   ar
    92    69    67   ar
    93    61    62   ar
    94    93    95    1
    95    93    94    1
    96    95    98    1
    97    95    97    1
    98    70    67    1
    99    67    65   ar
   100    62    64    1
   101    62    63   ar
   102    65    63   ar
   103    65    68    1
   104    63    66    1
@<TRIPOS>MOLECULE
crystal_redock_e24_er3_1.pdbqt
 102 104 0 0 0
SMALL
GASTEIGER

@<TRIPOS>ATOM
      1 C          -6.8300   13.6380   68.1670 C.3     1  UNL11       0.0890
      2 H          -6.0530   13.4860   67.4180 H       1  UNL11       0.0870
      3 N          -7.0720   15.0700   68.2650 N.am    1  UNL11      -0.3460
      4 C          -6.0750   16.0500   67.7020 C.2     1  UNL11       0.2410
      5 O          -5.0830   15.6640   67.1760 O.2     1  UNL11      -0.2710
      6 H          -7.9200   15.3780   68.7180 H       1  UNL11       0.1630
      7 C          -6.3440   17.5290   67.8070 C.3     1  UNL11       0.0920
      8 H          -6.0940   18.0070   66.8590 H       1  UNL11       0.0880
      9 N          -7.7740   17.7500   68.0400 N.am    1  UNL11      -0.3460
     10 C          -8.6630   17.9520   66.9230 C.2     1  UNL11       0.2400
     11 O          -8.2450   17.9400   65.8300 O.2     1  UNL11      -0.2710
     12 H          -8.1490   17.7650   68.9780 H       1  UNL11       0.1630
     13 C         -10.1840   18.1900   67.1780 C.3     1  UNL11       0.0860
     14 H         -10.8160   17.7340   66.4160 H       1  UNL11       0.0860
     15 N         -10.5510   17.5780   68.4440 N.am    1  UNL11      -0.3430
     16 C         -11.2080   16.2690   68.4480 C.2     1  UNL11       0.2730
     17 O         -11.4380   15.7180   67.4280 O.2     1  UNL11      -0.2660
     18 H         -10.3530   18.0570   69.3110 H       1  UNL11       0.1630
     19 C         -11.6000   15.6090   69.7790 C.ar    1  UNL11       0.1540
     20 C         -11.6530   16.2280   71.0690 C.ar    1  UNL11      -0.0170
     21 C         -12.0660   15.2010   71.9480 C.ar    1  UNL11       0.0770
     22 H         -11.4260   17.2620   71.3270 H       1  UNL11       0.0910
     23 O         -12.2300   14.1250   71.2360 O.2     1  UNL11      -0.2180
     24 N         -11.9640   14.3370   69.9680 N.ar    1  UNL11      -0.1230
     25 C         -12.2810   15.3330   73.4490 C.3     1  UNL11      -0.0290
     26 H         -13.0820   16.0480   73.6410 H       1  UNL11       0.0360
     27 H         -12.5530   14.3620   73.8640 H       1  UNL11       0.0360
     28 H         -11.3610   15.6830   73.9190 H       1  UNL11       0.0360
     29 C         -10.4630   19.6710   67.2200 C.3     1  UNL11      -0.0490
     30 H         -10.7800   20.0100   66.2340 H       1  UNL11       0.0300
     31 H         -11.2530   19.8720   67.9440 H       1  UNL11       0.0300
     32 H          -9.5580   20.2030   67.5120 H       1  UNL11       0.0300
     33 C          -5.5290   18.1210   68.9940 C.3     1  UNL11      -0.0330
     34 H          -4.4880   18.1850   68.6790 H       1  UNL11       0.0420
     35 C          -6.0030   19.5660   69.3440 C.3     1  UNL11      -0.0710
     36 H          -5.3780   19.9710   70.1400 H       1  UNL11       0.0280
     37 H          -5.9200   20.1990   68.4610 H       1  UNL11       0.0280
     38 H          -7.0400   19.5370   69.6750 H       1  UNL11       0.0280
     39 C          -5.5990   17.1840   70.2430 C.3     1  UNL11      -0.0710
     40 H          -5.9000   16.1840   69.9300 H       1  UNL11       0.0280
     41 H          -4.6180   17.1360   70.7170 H       1  UNL11       0.0280
     42 H          -6.3270   17.5780   70.9520 H       1  UNL11       0.0280
     43 C          -8.1640   12.9360   67.7800 C.2     1  UNL11       0.2400
     44 O          -9.1990   13.4830   67.9800 O.2     1  UNL11      -0.2710
     45 N          -8.1480   11.5840   67.1510 N.am    1  UNL11      -0.3550
     46 H          -7.2750   11.1120   66.9720 H       1  UNL11       0.1620
     47 C          -9.4250   10.9310   66.7880 C.3     1  UNL11       0.0130
     48 H         -10.2340   11.6250   67.0160 H       1  UNL11       0.0720
     49 C          -9.5860    9.6650   67.5980 C.3     1  UNL11      -0.0380
     50 H         -10.4000    9.1140   67.1250 H       1  UNL11       0.0360
     51 H          -8.5910    9.2240   67.6560 H       1  UNL11       0.0360
     52 C         -10.0290    9.9360   69.0520 C.3     1  UNL11       0.0180
     53 H         -10.1590    8.9550   69.5100 H       1  UNL11       0.0480
     54 H          -9.2970   10.6350   69.4580 H       1  UNL11       0.0480
     55 C         -11.4070   10.6470   69.1650 C.2     1  UNL11       0.2590
     56 O         -11.9820   11.0060   68.1890 O.2     1  UNL11      -0.2650
     57 O         -11.9700   10.8750   70.4510 O.3     1  UNL11      -0.3170
     58 C         -11.5430    9.9420   71.4470 C.3     1  UNL11       0.0520
     59 H         -10.6430    9.4750   71.0480 H       1  UNL11       0.0820
     60 H         -11.4970   10.5060   72.3790 H       1  UNL11       0.0820
     61 C         -12.6410    8.8540   71.5860 C.ar    1  UNL11      -0.0340
     62 C         -12.2980    7.5070   71.5280 C.ar    1  UNL11      -0.0750
     63 C         -13.2840    6.5290   71.6520 C.ar    1  UNL11      -0.0820
     64 H         -11.2570    7.2170   71.3860 H       1  UNL11       0.0840
     65 C         -14.6180    6.9030   71.8320 C.ar    1  UNL11      -0.0830
     66 H         -13.0110    5.4740   71.6090 H       1  UNL11       0.0830
     67 C         -14.9560    8.2480   71.8860 C.ar    1  UNL11      -0.0820
     68 H         -15.3950    6.1450   71.9310 H       1  UNL11       0.0830
     69 C         -13.9740    9.2290   71.7650 C.ar    1  UNL11      -0.0750
     70 H         -15.9990    8.5360   72.0250 H       1  UNL11       0.0830
     71 H         -14.2470   10.2830   71.8090 H       1  UNL11       0.0840
     72 C          -9.4230   10.5870   65.3000 C.3     1  UNL11      -0.0390
     73 H          -8.3730   10.4830   65.0270 H       1  UNL11       0.0360
     74 H         -10.1000    9.7390   65.1970 H       1  UNL11       0.0360
     75 C         -10.0250   11.7800   64.4150 C.3     1  UNL11      -0.0010
     76 C         -11.3300   12.4350   65.1720 C.3     1  UNL11      -0.0350
     77 C         -12.3640   12.4780   64.2990 C.3     1  UNL11       0.0850
     78 H         -11.6840   11.7640   65.9540 H       1  UNL11       0.0360
     79 H         -11.1430   13.4850   65.3980 H       1  UNL11       0.0360
     80 N         -11.9830   11.6150   63.1200 N.4     1  UNL11      -0.0490
     81 H         -13.2050   12.0180   64.8200 H       1  UNL11       0.0750
     82 H         -12.4280   13.5160   63.9730 H       1  UNL11       0.0750
     83 C         -10.3950   11.3590   63.2520 C.3     1  UNL11       0.1930
     84 H         -12.4620   10.7340   63.2440 H       1  UNL11       0.2800
     85 H         -12.1520   12.1700   62.2930 H       1  UNL11       0.2800
     86 H          -9.6930   11.8970   62.6140 H       1  UNL11       0.1290
     87 H          -9.2530   12.4700   64.0720 H       1  UNL11       0.0460
     88 O         -10.1010    9.9740   63.0620 O.3     1  UNL11      -0.3690
     89 H          -9.2520    9.7700   63.4590 H       1  UNL11       0.2120
     90 C          -6.3540   13.1220   69.5150 C.3     1  UNL11      -0.0350
     91 H          -6.4390   13.9700   70.1960 H       1  UNL11       0.0370
     92 H          -6.9320   12.2160   69.6990 H       1  UNL11       0.0370
     93 C          -4.8510   12.6950   69.5270 C.3     1  UNL11      -0.0590
     94 H          -4.7650   11.8050   70.1500 H       1  UNL11       0.0380
     95 C          -4.3310   12.3310   68.1000 C.3     1  UNL11      -0.0730
     96 H          -4.8620   12.9250   67.3570 H       1  UNL11       0.0280
     97 H          -3.2630   12.5420   68.0380 H       1  UNL11       0.0280
     98 H          -4.5030   11.2710   67.9110 H       1  UNL11       0.0280
     99 C          -3.9800   13.7810   70.1640 C.3     1  UNL11      -0.0730
    100 H          -4.6170   14.5660   70.5730 H       1  UNL11       0.0280
    101 H          -3.3820   13.3450   70.9640 H       1  UNL11       0.0280
    102 H          -3.3190   14.2060   69.4080 H       1  UNL11       0.0280
@<TRIPOS>BOND
     1    85    80    1
     2    86    83    1
     3    88    83    1
     4    88    89    1
     5    80    84    1
     6    80    83    1
     7    80    77    1
     8    83    75    1
     9    82    77    1
    10    87    75    1
    11    77    81    1
    12    77    76    1
    13    75    76    1
    14    75    72    1
    15    73    72    1
    16    76    79    1
    17    76    78    1
    18    74    72    1
    19    72    47    1
    20    11    10    2
    21    30    29    1
    22    14    13    1
    23    47    48    1
    24    47    45    1
    25    47    49    1
    26     8     7    1
    27    10    13    1
    28    10     9   am
    29    46    45    1
    30    50    49    1
    31    45    43   am
    32     5     4    2
    33    13    29    1
    34    13    15    1
    35    29    32    1
    36    29    31    1
    37    96    95    1
    38     2     1    1
    39    17    16    2
    40    49    51    1
    41    49    52    1
    42     4     7    1
    43     4     3   am
    44    43    44    2
    45    43     1    1
    46     7     9    1
    47     7    33    1
    48    98    95    1
    49    97    95    1
    50     9    12    1
    51    95    93    1
    52     1     3    1
    53     1    90    1
    54    56    55    2
    55     3     6    1
    56    15    16   am
    57    15    18    1
    58    16    19    1
    59    37    35    1
    60    34    33    1
    61    33    35    1
    62    33    39    1
    63    52    55    1
    64    52    54    1
    65    52    53    1
    66    55    57    1
    67    35    38    1
    68    35    36    1
    69   102    99    1
    70    90    93    1
    71    90    92    1
    72    90    91    1
    73    93    94    1
    74    93    99    1
    75    19    24   ar
    76    19    20   ar
    77    40    39    1
    78    24    23   ar
    79    99   100    1
    80    99   101    1
    81    39    41    1
    82    39    42    1
    83    57    58    1
    84    59    58    1
    85    20    22    1
    86    20    21   ar
    87    23    21   ar
    88    64    62    1
    89    58    61    1
    90    58    60    1
    91    62    61   ar
    92    62    63   ar
    93    61    69   ar
    94    66    63    1
    95    63    65   ar
    96    69    71    1
    97    69    67   ar
    98    65    67   ar
    99    65    68    1
   100    67    70    1
   101    21    25    1
   102    25    26    1
   103    25    27    1
   104    25    28    1
@<TRIPOS>MOLECULE
crystal_redock_e24_er3_1.pdbqt
 102 104 0 0 0
SMALL
GASTEIGER

@<TRIPOS>ATOM
      1 C          -8.7530    9.8590   65.0790 C.3     1  UNL11       0.0890
      2 H          -7.7300   10.1300   65.3390 H       1  UNL11       0.0870
      3 N          -9.0750    8.6300   65.7880 N.am    1  UNL11      -0.3460
      4 C          -7.9900    7.6390   66.1280 C.2     1  UNL11       0.2410
      5 O          -6.8640    7.8520   65.8170 O.2     1  UNL11      -0.2710
      6 H         -10.0390    8.4660   66.0420 H       1  UNL11       0.1630
      7 C          -8.3400    6.3750   66.8670 C.3     1  UNL11       0.0920
      8 H          -7.4940    5.6900   66.8270 H       1  UNL11       0.0880
      9 N          -8.5810    6.6850   68.2800 N.am    1  UNL11      -0.3460
     10 C          -7.6500    6.2320   69.2850 C.2     1  UNL11       0.2400
     11 O          -6.7050    5.6170   68.9750 O.2     1  UNL11      -0.2710
     12 H          -9.3930    7.2140   68.5630 H       1  UNL11       0.1630
     13 C          -7.9130    6.5630   70.7870 C.3     1  UNL11       0.0860
     14 H          -7.3100    7.3960   71.1470 H       1  UNL11       0.0860
     15 N          -9.3030    6.9560   70.9470 N.am    1  UNL11      -0.3430
     16 C          -9.6260    8.3440   71.2870 C.2     1  UNL11       0.2730
     17 O          -8.7600    9.1350   71.4330 O.2     1  UNL11      -0.2660
     18 H         -10.0370    6.2730   70.8230 H       1  UNL11       0.1630
     19 C         -11.0910    8.7740   71.4580 C.ar    1  UNL11       0.1540
     20 C         -12.2030    7.9400   71.8010 C.ar    1  UNL11      -0.0170
     21 C         -13.3150    8.8110   71.8310 C.ar    1  UNL11       0.0770
     22 H         -12.2020    6.8680   71.9990 H       1  UNL11       0.0910
     23 O         -12.8810   10.0020   71.5390 O.2     1  UNL11      -0.2180
     24 N         -11.5870   10.0060   71.3170 N.ar    1  UNL11      -0.1230
     25 C         -14.7530    8.4250   72.1480 C.3     1  UNL11      -0.0290
     26 H         -15.0600    7.6010   71.5030 H       1  UNL11       0.0360
     27 H         -14.8260    8.1170   73.1910 H       1  UNL11       0.0360
     28 H         -15.4060    9.2820   71.9760 H       1  UNL11       0.0360
     29 C          -7.6200    5.3480   71.6300 C.3     1  UNL11      -0.0490
     30 H          -8.3270    5.3010   72.4580 H       1  UNL11       0.0300
     31 H          -7.7130    4.4500   71.0200 H       1  UNL11       0.0300
     32 H          -6.6060    5.4160   72.0240 H       1  UNL11       0.0300
     33 C          -9.6270    5.7530   66.2490 C.3     1  UNL11      -0.0330
     34 H          -9.8290    6.2760   65.3150 H       1  UNL11       0.0420
     35 C          -9.4210    4.2440   65.9070 C.3     1  UNL11      -0.0710
     36 H         -10.1360    3.6430   66.4700 H       1  UNL11       0.0280
     37 H          -9.5780    4.0890   64.8400 H       1  UNL11       0.0280
     38 H          -8.4070    3.9470   66.1730 H       1  UNL11       0.0280
     39 C         -10.8550    5.9570   67.1930 C.3     1  UNL11      -0.0710
     40 H         -10.6950    5.4110   68.1220 H       1  UNL11       0.0280
     41 H         -10.9740    7.0190   67.4110 H       1  UNL11       0.0280
     42 H         -11.7550    5.5840   66.7030 H       1  UNL11       0.0280
     43 C          -9.7750   10.9550   65.4970 C.2     1  UNL11       0.2400
     44 O         -10.8620   10.6410   65.8600 O.2     1  UNL11      -0.2710
     45 N          -9.3950   12.3950   65.4540 N.am    1  UNL11      -0.3550
     46 H          -8.4720   12.6740   65.1520 H       1  UNL11       0.1620
     47 C         -10.3770   13.4250   65.8570 C.3     1  UNL11       0.0130
     48 H         -11.3730   13.0500   65.6180 H       1  UNL11       0.0720
     49 C         -10.1070   14.7000   65.0900 C.3     1  UNL11      -0.0380
     50 H          -9.1380   14.5560   64.6110 H       1  UNL11       0.0360
     51 H         -10.9960   14.8720   64.4830 H       1  UNL11       0.0360
     52 C          -9.9620   15.9320   66.0090 C.3     1  UNL11       0.0180
     53 H         -10.5140   15.6900   66.9180 H       1  UNL11       0.0480
     54 H          -8.8920   16.1380   66.0600 H       1  UNL11       0.0480
     55 C         -10.6180   17.2200   65.4390 C.2     1  UNL11       0.2590
     56 O         -11.2320   17.1840   64.4220 O.2     1  UNL11      -0.2650
     57 O         -10.4670   18.4480   66.1400 O.3     1  UNL11      -0.3170
     58 C         -10.1190   18.2930   67.5190 C.3     1  UNL11       0.0520
     59 H         -10.8950   18.8140   68.0790 H       1  UNL11       0.0820
     60 H          -9.9650   17.2240   67.6660 H       1  UNL11       0.0820
     61 C          -8.7690   19.0200   67.7570 C.ar    1  UNL11      -0.0340
     62 C          -7.9600   18.6550   68.8280 C.ar    1  UNL11      -0.0750
     63 C          -6.7470   19.3080   69.0420 C.ar    1  UNL11      -0.0820
     64 H          -8.2760   17.8560   69.4990 H       1  UNL11       0.0840
     65 C          -6.3450   20.3330   68.1810 C.ar    1  UNL11      -0.0830
     66 H          -6.1150   19.0180   69.8810 H       1  UNL11       0.0830
     67 C          -7.1570   20.6970   67.1150 C.ar    1  UNL11      -0.0820
     68 H          -5.3990   20.8490   68.3410 H       1  UNL11       0.0830
     69 C          -8.3690   20.0450   66.8960 C.ar    1  UNL11      -0.0750
     70 H          -6.8420   21.4980   66.4470 H       1  UNL11       0.0830
     71 H          -9.0010   20.3350   66.0570 H       1  UNL11       0.0840
     72 C         -10.2580   13.6950   67.3550 C.3     1  UNL11      -0.0390
     73 H          -9.5760   12.9340   67.7340 H       1  UNL11       0.0360
     74 H          -9.9970   14.7500   67.4390 H       1  UNL11       0.0360
     75 C         -11.6570   13.4930   68.1070 C.3     1  UNL11      -0.0010
     76 C         -11.9810   14.8010   69.0500 C.3     1  UNL11      -0.0350
     77 C         -12.2800   14.3750   70.3000 C.3     1  UNL11       0.0850
     78 H         -11.0770   15.3930   69.1910 H       1  UNL11       0.0360
     79 H         -12.9010   15.2820   68.7180 H       1  UNL11       0.0360
     80 N         -11.8710   12.9240   70.3820 N.4     1  UNL11      -0.0490
     81 H         -11.6460   14.9610   70.9670 H       1  UNL11       0.0750
     82 H         -13.3640   14.4440   70.3800 H       1  UNL11       0.0750
     83 C         -11.6360   12.4430   68.8590 C.3     1  UNL11       0.1930
     84 H         -10.9850   12.9030   70.8660 H       1  UNL11       0.2800
     85 H         -12.6640   12.4240   70.7580 H       1  UNL11       0.2800
     86 H         -12.3770   11.8230   68.3540 H       1  UNL11       0.1290
     87 H         -12.4450   13.1610   67.4310 H       1  UNL11       0.0460
     88 O         -10.4040   11.7280   68.7520 O.3     1  UNL11      -0.3690
     89 H         -10.5590   10.8860   68.3200 H       1  UNL11       0.2120
     90 C          -8.8550    9.6100   63.5830 C.3     1  UNL11      -0.0350
     91 H          -8.9520    8.5290   63.4760 H       1  UNL11       0.0370
     92 H          -9.6540   10.2650   63.2350 H       1  UNL11       0.0370
     93 C          -7.5720   10.0180   62.7910 C.3     1  UNL11      -0.0590
     94 H          -6.9020   10.5250   63.4850 H       1  UNL11       0.0380
     95 C          -6.8140    8.7780   62.2170 C.3     1  UNL11      -0.0730
     96 H          -5.8560    8.6720   62.7250 H       1  UNL11       0.0280
     97 H          -7.4120    7.8810   62.3770 H       1  UNL11       0.0280
     98 H          -6.6460    8.9170   61.1490 H       1  UNL11       0.0280
     99 C          -7.9110   11.0120   61.6770 C.3     1  UNL11      -0.0730
    100 H          -7.3080   10.7900   60.7960 H       1  UNL11       0.0280
    101 H          -8.9680   10.9290   61.4250 H       1  UNL11       0.0280
    102 H          -7.6970   12.0250   62.0170 H       1  UNL11       0.0280
@<TRIPOS>BOND
     1   100    99    1
     2    98    95    1
     3   101    99    1
     4    99   102    1
     5    99    93    1
     6    95    97    1
     7    95    96    1
     8    95    93    1
     9    93    94    1
    10    93    90    1
    11    92    90    1
    12    91    90    1
    13    90     1    1
    14    56    55    2
    15    51    49    1
    16    50    49    1
    17    37    35    1
    18     1     2    1
    19     1    43    1
    20     1     3    1
    21    49    47    1
    22    49    52    1
    23    46    45    1
    24    34    33    1
    25    55    52    1
    26    55    57    1
    27    45    43   am
    28    45    47    1
    29    43    44    2
    30    48    47    1
    31     3     6    1
    32     3     4   am
    33     5     4    2
    34    47    72    1
    35    35    38    1
    36    35    33    1
    37    35    36    1
    38    52    54    1
    39    52    53    1
    40    71    69    1
    41     4     7    1
    42    57    58    1
    43    33     7    1
    44    33    39    1
    45    70    67    1
    46    42    39    1
    47     8     7    1
    48     7     9    1
    49    69    67   ar
    50    69    61   ar
    51    67    65   ar
    52    39    41    1
    53    39    40    1
    54    72    74    1
    55    72    73    1
    56    72    75    1
    57    87    75    1
    58    58    60    1
    59    58    61    1
    60    58    59    1
    61    61    62   ar
    62    75    83    1
    63    75    76    1
    64    65    68    1
    65    65    63   ar
    66     9    12    1
    67     9    10   am
    68    89    88    1
    69    86    83    1
    70    79    76    1
    71    88    83    1
    72    62    63   ar
    73    62    64    1
    74    83    80    1
    75    11    10    2
    76    63    66    1
    77    76    78    1
    78    76    77    1
    79    10    13    1
    80    77    82    1
    81    77    80    1
    82    77    81    1
    83    80    85    1
    84    80    84    1
    85    13    15    1
    86    13    14    1
    87    13    29    1
    88    18    15    1
    89    15    16   am
    90    31    29    1
    91    16    17    2
    92    16    19    1
    93    24    19   ar
    94    24    23   ar
    95    19    20   ar
    96    26    25    1
    97    23    21   ar
    98    29    32    1
    99    29    30    1
   100    20    21   ar
   101    20    22    1
   102    21    25    1
   103    28    25    1
   104    25    27    1
@<TRIPOS>MOLECULE
crystal_redock_e24_er3_1.pdbqt
 102 104 0 0 0
SMALL
GASTEIGER

@<TRIPOS>ATOM
      1 C         -11.1210    9.5120   69.7590 C.3     1  UNL11       0.0890
      2 H         -11.6490    8.6850   69.2850 H       1  UNL11       0.0870
      3 N          -9.7600    9.5170   69.2420 N.am    1  UNL11      -0.3460
      4 C          -9.1300    8.2400   68.7460 C.2     1  UNL11       0.2410
      5 O          -9.7360    7.2210   68.7750 O.2     1  UNL11      -0.2710
      6 H          -9.2610   10.3950   69.2280 H       1  UNL11       0.1630
      7 C          -7.7220    8.2650   68.2100 C.3     1  UNL11       0.0920
      8 H          -7.4630    7.2730   67.8380 H       1  UNL11       0.0880
      9 N          -7.6480    9.1870   67.0730 N.am    1  UNL11      -0.3460
     10 C          -7.3690    8.6810   65.7520 C.2     1  UNL11       0.2400
     11 O          -7.1990    7.5350   65.5860 O.2     1  UNL11      -0.2710
     12 H          -7.7910   10.1790   67.2010 H       1  UNL11       0.1630
     13 C          -7.2880    9.6680   64.5460 C.3     1  UNL11       0.0860
     14 H          -7.4310    9.1740   63.5860 H       1  UNL11       0.0860
     15 N          -8.3510   10.6520   64.6700 N.am    1  UNL11      -0.3430
     16 C          -9.4210   10.6880   63.6710 C.2     1  UNL11       0.2730
     17 O          -9.4160    9.9230   62.7700 O.2     1  UNL11      -0.2660
     18 H          -8.3460   11.3040   65.4420 H       1  UNL11       0.1630
     19 C         -10.5520   11.7210   63.7900 C.ar    1  UNL11       0.1540
     20 C         -10.4790   13.0170   64.3930 C.ar    1  UNL11      -0.0170
     21 C         -11.7740   13.5610   64.2430 C.ar    1  UNL11       0.0770
     22 H          -9.6180   13.4900   64.8660 H       1  UNL11       0.0910
     23 O         -12.4970   12.6740   63.6250 O.2     1  UNL11      -0.2180
     24 N         -11.8060   11.5920   63.3500 N.ar    1  UNL11      -0.1230
     25 C         -12.2360   14.9330   64.7170 C.3     1  UNL11      -0.0290
     26 H         -11.6450   15.7060   64.2250 H       1  UNL11       0.0360
     27 H         -13.2890   15.0670   64.4690 H       1  UNL11       0.0360
     28 H         -12.1050   15.0070   65.7970 H       1  UNL11       0.0360
     29 C          -5.9460   10.3550   64.5440 C.3     1  UNL11      -0.0490
     30 H          -5.3630   10.0160   65.4010 H       1  UNL11       0.0300
     31 H          -5.4150   10.1140   63.6240 H       1  UNL11       0.0300
     32 H          -6.0900   11.4340   64.6090 H       1  UNL11       0.0300
     33 C          -6.7500    8.7440   69.3270 C.3     1  UNL11      -0.0330
     34 H          -5.7780    8.2890   69.1340 H       1  UNL11       0.0420
     35 C          -6.5590   10.2920   69.2890 C.3     1  UNL11      -0.0710
     36 H          -7.3510   10.7410   68.6900 H       1  UNL11       0.0280
     37 H          -6.6010   10.6880   70.3030 H       1  UNL11       0.0280
     38 H          -5.5910   10.5270   68.8470 H       1  UNL11       0.0280
     39 C          -7.2360    8.2670   70.7340 C.3     1  UNL11      -0.0710
     40 H          -8.0250    7.5260   70.6140 H       1  UNL11       0.0280
     41 H          -6.4000    7.8240   71.2760 H       1  UNL11       0.0280
     42 H          -7.6200    9.1200   71.2930 H       1  UNL11       0.0280
     43 C         -11.7760   10.8870   69.4410 C.2     1  UNL11       0.2400
     44 O         -12.3050   11.0610   68.3910 O.2     1  UNL11      -0.2710
     45 N         -11.7520   11.9840   70.4500 N.am    1  UNL11      -0.3550
     46 H         -11.3110   11.8470   71.3470 H       1  UNL11       0.1620
     47 C         -12.3810   13.2850   70.1330 C.3     1  UNL11       0.0130
     48 H         -12.9810   13.1570   69.2320 H       1  UNL11       0.0720
     49 C         -11.3020   14.3160   69.8930 C.3     1  UNL11      -0.0380
     50 H         -11.6750   15.2410   70.3350 H       1  UNL11       0.0360
     51 H         -10.3800   13.8680   70.2630 H       1  UNL11       0.0360
     52 C         -11.0750   14.6090   68.3940 C.3     1  UNL11       0.0180
     53 H         -11.7460   13.9380   67.8570 H       1  UNL11       0.0480
     54 H         -11.1820   15.6890   68.2850 H       1  UNL11       0.0480
     55 C          -9.6420   14.2680   67.9000 C.2     1  UNL11       0.2590
     56 O          -9.1290   13.2400   68.2010 O.2     1  UNL11      -0.2650
     57 O          -8.9420   15.2060   67.0910 O.3     1  UNL11      -0.3170
     58 C          -8.1930   16.1720   67.8350 C.3     1  UNL11       0.0520
     59 H          -8.4000   15.9610   68.8840 H       1  UNL11       0.0820
     60 H          -7.1730   16.1090   67.4570 H       1  UNL11       0.0820
     61 C          -8.7550   17.5780   67.4960 C.ar    1  UNL11      -0.0340
     62 C          -7.9400   18.7000   67.6090 C.ar    1  UNL11      -0.0750
     63 C          -8.4450   19.9630   67.3050 C.ar    1  UNL11      -0.0820
     64 H          -6.9060   18.5890   67.9350 H       1  UNL11       0.0840
     65 C          -9.7720   20.1030   66.8890 C.ar    1  UNL11      -0.0830
     66 H          -7.8030   20.8400   67.3920 H       1  UNL11       0.0830
     67 C         -10.5830   18.9820   66.7820 C.ar    1  UNL11      -0.0820
     68 H         -10.1740   21.0870   66.6490 H       1  UNL11       0.0830
     69 C         -10.0820   17.7170   67.0820 C.ar    1  UNL11      -0.0750
     70 H         -11.6180   19.0940   66.4590 H       1  UNL11       0.0830
     71 H         -10.7240   16.8400   66.9940 H       1  UNL11       0.0840
     72 C         -13.2630   13.7300   71.2980 C.3     1  UNL11      -0.0390
     73 H         -14.2640   13.8380   70.8790 H       1  UNL11       0.0360
     74 H         -13.0800   13.0070   72.0930 H       1  UNL11       0.0360
     75 C         -12.8260   15.1670   71.8560 C.3     1  UNL11      -0.0010
     76 C         -11.9670   14.9890   73.2470 C.3     1  UNL11      -0.0350
     77 C         -12.5060   15.7890   74.1980 C.3     1  UNL11       0.0850
     78 H         -12.1090   13.9860   73.6480 H       1  UNL11       0.0360
     79 H         -10.9610   15.3880   73.1190 H       1  UNL11       0.0360
     80 N         -13.8480   16.2480   73.6800 N.4     1  UNL11      -0.0490
     81 H         -12.6600   15.1480   75.0660 H       1  UNL11       0.0750
     82 H         -11.8400   16.6490   74.2670 H       1  UNL11       0.0750
     83 C         -13.8560   15.9050   72.1030 C.3     1  UNL11       0.1930
     84 H         -14.5420   15.6740   74.1380 H       1  UNL11       0.2800
     85 H         -13.8700   17.2520   73.7910 H       1  UNL11       0.2800
     86 H         -13.7160   16.6940   71.3640 H       1  UNL11       0.1290
     87 H         -12.3890   15.7960   71.0800 H       1  UNL11       0.0460
     88 O         -15.0800   15.2600   71.7450 O.3     1  UNL11      -0.3690
     89 H         -15.7350   15.4170   72.4280 H       1  UNL11       0.2120
     90 C         -11.0800    9.3020   71.2640 C.3     1  UNL11      -0.0350
     91 H         -10.0660    8.9630   71.4800 H       1  UNL11       0.0370
     92 H         -11.4460   10.2330   71.6960 H       1  UNL11       0.0370
     93 C         -12.0380    8.1750   71.7650 C.3     1  UNL11      -0.0590
     94 H         -12.3050    7.5610   70.9060 H       1  UNL11       0.0380
     95 C         -11.3560    7.2470   72.8210 C.3     1  UNL11      -0.0730
     96 H         -11.8240    6.2630   72.7950 H       1  UNL11       0.0280
     97 H         -10.2950    7.1510   72.5880 H       1  UNL11       0.0280
     98 H         -11.4720    7.6800   73.8140 H       1  UNL11       0.0280
     99 C         -13.3360    8.7690   72.3210 C.3     1  UNL11      -0.0730
    100 H         -13.1800    9.0800   73.3540 H       1  UNL11       0.0280
    101 H         -13.6260    9.6320   71.7210 H       1  UNL11       0.0280
    102 H         -14.1250    8.0180   72.2820 H       1  UNL11       0.0280
@<TRIPOS>BOND
     1    17    16    2
     2    24    23   ar
     3    24    19   ar
     4    14    13    1
     5    31    29    1
     6    23    21   ar
     7    16    19    1
     8    16    15   am
     9    19    20   ar
    10    26    25    1
    11    21    20   ar
    12    21    25    1
    13    20    22    1
    14    27    25    1
    15    29    13    1
    16    29    32    1
    17    29    30    1
    18    13    15    1
    19    13    10    1
    20    15    18    1
    21    25    28    1
    22    11    10    2
    23    10     9   am
    24    70    67    1
    25    68    65    1
    26    67    65   ar
    27    67    69   ar
    28    65    63   ar
    29    71    69    1
    30     9    12    1
    31     9     7    1
    32    69    61   ar
    33    57    58    1
    34    57    55    1
    35    63    66    1
    36    63    62   ar
    37    60    58    1
    38    61    62   ar
    39    61    58    1
    40    62    64    1
    41    58    59    1
    42     8     7    1
    43    53    52    1
    44    55    56    2
    45    55    52    1
    46     7     4    1
    47     7    33    1
    48    54    52    1
    49    44    43    2
    50    52    49    1
    51    36    35    1
    52     4     5    2
    53     4     3   am
    54    38    35    1
    55    34    33    1
    56     6     3    1
    57    48    47    1
    58     3     1    1
    59     2     1    1
    60    35    33    1
    61    35    37    1
    62    33    39    1
    63    43     1    1
    64    43    45   am
    65     1    90    1
    66    49    47    1
    67    49    51    1
    68    49    50    1
    69    47    45    1
    70    47    72    1
    71    45    46    1
    72    40    39    1
    73    39    41    1
    74    39    42    1
    75    73    72    1
    76    94    93    1
    77    87    75    1
    78    90    91    1
    79    90    92    1
    80    90    93    1
    81    72    75    1
    82    72    74    1
    83    86    83    1
    84   101    99    1
    85    88    83    1
    86    88    89    1
    87    93    99    1
    88    93    95    1
    89    75    83    1
    90    75    76    1
    91    83    80    1
    92   102    99    1
    93    99   100    1
    94    97    95    1
    95    96    95    1
    96    95    98    1
    97    79    76    1
    98    76    78    1
    99    76    77    1
   100    80    85    1
   101    80    84    1
   102    80    77    1
   103    77    82    1
   104    77    81    1
@<TRIPOS>MOLECULE
crystal_redock_e24_er3_1.pdbqt
 102 104 0 0 0
SMALL
GASTEIGER

@<TRIPOS>ATOM
      1 C          -8.7790   10.2750   66.0090 C.3     1  UNL11       0.0890
      2 H          -9.4620    9.6720   65.4090 H       1  UNL11       0.0870
      3 N          -9.2720   11.6440   65.9890 N.am    1  UNL11      -0.3460
      4 C         -10.6980   11.9460   66.3770 C.2     1  UNL11       0.2410
      5 O         -11.4310   11.0690   66.6980 O.2     1  UNL11      -0.2710
      6 H          -8.6330   12.3750   65.7110 H       1  UNL11       0.1630
      7 C         -11.1890   13.3690   66.3560 C.3     1  UNL11       0.0920
      8 H         -12.2480   13.3870   66.6160 H       1  UNL11       0.0880
      9 N         -10.4800   14.1460   67.3770 N.am    1  UNL11      -0.3460
     10 C         -11.1200   14.4360   68.6370 C.2     1  UNL11       0.2400
     11 O         -12.2060   14.0520   68.8450 O.2     1  UNL11      -0.2710
     12 H          -9.5430   14.4850   67.2110 H       1  UNL11       0.1630
     13 C         -10.3600   15.2660   69.7180 C.3     1  UNL11       0.0860
     14 H          -9.7280   14.6490   70.3560 H       1  UNL11       0.0860
     15 N          -9.4810   16.2130   69.0530 N.am    1  UNL11      -0.3430
     16 C         -10.0580   17.2770   68.2290 C.2     1  UNL11       0.2730
     17 O         -11.2310   17.3610   68.1050 O.2     1  UNL11      -0.2660
     18 H          -8.4800   16.1330   69.1620 H       1  UNL11       0.1630
     19 C          -9.1410   18.2870   67.5220 C.ar    1  UNL11       0.1540
     20 C          -8.2320   19.2060   68.1350 C.ar    1  UNL11      -0.0170
     21 C          -7.6350   19.9000   67.0580 C.ar    1  UNL11       0.0770
     22 H          -8.0350   19.3480   69.1970 H       1  UNL11       0.0910
     23 O          -8.1470   19.4260   65.9600 O.2     1  UNL11      -0.2180
     24 N          -9.0290   18.4840   66.2050 N.ar    1  UNL11      -0.1230
     25 C          -6.5860   20.9980   67.1640 C.3     1  UNL11      -0.0290
     26 H          -5.5930   20.5500   67.2120 H       1  UNL11       0.0360
     27 H          -6.6490   21.6470   66.2910 H       1  UNL11       0.0360
     28 H          -6.7630   21.5850   68.0660 H       1  UNL11       0.0360
     29 C         -11.3540   16.0010   70.5810 C.3     1  UNL11      -0.0490
     30 H         -11.4790   15.4700   71.5240 H       1  UNL11       0.0300
     31 H         -10.9890   17.0100   70.7760 H       1  UNL11       0.0300
     32 H         -12.3130   16.0550   70.0650 H       1  UNL11       0.0300
     33 C         -10.9200   13.9910   64.9550 C.3     1  UNL11      -0.0330
     34 H          -9.9480   13.6320   64.6170 H       1  UNL11       0.0420
     35 C         -11.9810   13.5210   63.9110 C.3     1  UNL11      -0.0710
     36 H         -11.7230   12.5240   63.5550 H       1  UNL11       0.0280
     37 H         -12.9650   13.4950   64.3800 H       1  UNL11       0.0280
     38 H         -11.9960   14.2150   63.0710 H       1  UNL11       0.0280
     39 C         -10.8580   15.5500   65.0370 C.3     1  UNL11      -0.0710
     40 H          -9.8510   15.8600   65.3140 H       1  UNL11       0.0280
     41 H         -11.1150   15.9760   64.0660 H       1  UNL11       0.0280
     42 H         -11.5670   15.9020   65.7870 H       1  UNL11       0.0280
     43 C          -8.7130    9.7930   67.4860 C.2     1  UNL11       0.2400
     44 O          -8.0160   10.3610   68.2630 O.2     1  UNL11      -0.2710
     45 N          -9.5270    8.6270   67.9350 N.am    1  UNL11      -0.3550
     46 H         -10.1260    8.1390   67.2860 H       1  UNL11       0.1620
     47 C          -9.4540    8.1820   69.3440 C.3     1  UNL11       0.0130
     48 H          -8.9220    8.9470   69.9100 H       1  UNL11       0.0720
     49 C          -8.7050    6.8710   69.4160 C.3     1  UNL11      -0.0380
     50 H          -8.0840    6.8370   68.5200 H       1  UNL11       0.0360
     51 H          -8.2410    6.8510   70.4020 H       1  UNL11       0.0360
     52 C          -9.6380    5.6430   69.3470 C.3     1  UNL11       0.0180
     53 H          -9.2240    4.9170   70.0480 H       1  UNL11       0.0480
     54 H         -10.6470    6.0300   69.4960 H       1  UNL11       0.0480
     55 C          -9.6490    4.9410   67.9610 C.2     1  UNL11       0.2590
     56 O          -9.7300    3.7580   67.8840 O.2     1  UNL11      -0.2650
     57 O          -9.5470    5.7280   66.7800 O.3     1  UNL11      -0.3170
     58 C          -9.5180    4.9640   65.5710 C.3     1  UNL11       0.0520
     59 H          -9.4630    3.9210   65.8830 H       1  UNL11       0.0820
     60 H         -10.3660    5.3130   64.9820 H       1  UNL11       0.0820
     61 C          -8.2130    5.3200   64.8110 C.ar    1  UNL11      -0.0340
     62 C          -7.0260    5.5050   65.5130 C.ar    1  UNL11      -0.0750
     63 C          -5.8540    5.8240   64.8300 C.ar    1  UNL11      -0.0820
     64 H          -7.0150    5.3990   66.5980 H       1  UNL11       0.0840
     65 C          -5.8710    5.9610   63.4390 C.ar    1  UNL11      -0.0830
     66 H          -4.9250    5.9660   65.3820 H       1  UNL11       0.0830
     67 C          -7.0580    5.7780   62.7430 C.ar    1  UNL11      -0.0820
     68 H          -4.9590    6.2100   62.8970 H       1  UNL11       0.0830
     69 C          -8.2320    5.4570   63.4210 C.ar    1  UNL11      -0.0750
     70 H          -7.0690    5.8880   61.6580 H       1  UNL11       0.0830
     71 H          -9.1610    5.3140   62.8680 H       1  UNL11       0.0840
     72 C         -10.8640    7.9950   69.9000 C.3     1  UNL11      -0.0390
     73 H         -11.5350    8.2030   69.0660 H       1  UNL11       0.0360
     74 H         -10.8640    7.0090   70.3660 H       1  UNL11       0.0360
     75 C         -11.1950    9.0610   71.0490 C.3     1  UNL11      -0.0010
     76 C         -12.1350    8.3650   72.2050 C.3     1  UNL11      -0.0350
     77 C         -13.2150    9.1530   72.4210 C.3     1  UNL11       0.0850
     78 H         -12.5660    7.4380   71.8280 H       1  UNL11       0.0360
     79 H         -11.6170    8.3750   73.1640 H       1  UNL11       0.0360
     80 N         -13.2660   10.1520   71.2910 N.4     1  UNL11      -0.0490
     81 H         -14.0780    8.4900   72.3490 H       1  UNL11       0.0750
     82 H         -13.0090    9.6800   73.3520 H       1  UNL11       0.0750
     83 C         -11.8220   10.0830   70.5720 C.3     1  UNL11       0.1930
     84 H         -13.9640    9.8160   70.6430 H       1  UNL11       0.2800
     85 H         -13.3690   11.0620   71.7180 H       1  UNL11       0.2800
     86 H         -11.0830   10.8660   70.7390 H       1  UNL11       0.1290
     87 H         -10.3050    9.5930   71.3870 H       1  UNL11       0.0460
     88 O         -11.9810   10.0050   69.1540 O.3     1  UNL11      -0.3690
     89 H         -11.1260   10.1040   68.7300 H       1  UNL11       0.2120
     90 C          -7.3880   10.2400   65.3970 C.3     1  UNL11      -0.0350
     91 H          -7.2150   11.2460   65.0140 H       1  UNL11       0.0370
     92 H          -6.7400    9.8350   66.1750 H       1  UNL11       0.0370
     93 C          -7.2650    9.2750   64.1750 C.3     1  UNL11      -0.0590
     94 H          -7.0070    8.2870   64.5580 H       1  UNL11       0.0380
     95 C          -8.6090    9.1450   63.3880 C.3     1  UNL11      -0.0730
     96 H          -9.4400    9.1180   64.0930 H       1  UNL11       0.0280
     97 H          -8.7240   10.0010   62.7230 H       1  UNL11       0.0280
     98 H          -8.5990    8.2270   62.8010 H       1  UNL11       0.0280
     99 C          -6.1300    9.7120   63.2450 C.3     1  UNL11      -0.0730
    100 H          -5.2030    9.2220   63.5470 H       1  UNL11       0.0280
    101 H          -6.3720    9.4310   62.2200 H       1  UNL11       0.0280
    102 H          -6.0060   10.7930   63.3060 H       1  UNL11       0.0280
@<TRIPOS>BOND
     1    70    67    1
     2   101    99    1
     3    97    95    1
     4    67    69   ar
     5    67    65   ar
     6    98    95    1
     7    71    69    1
     8    68    65    1
     9    38    35    1
    10    99   102    1
    11    99   100    1
    12    99    93    1
    13    95    96    1
    14    95    93    1
    15    69    61   ar
    16    65    63   ar
    17    36    35    1
    18    35    37    1
    19    35    33    1
    20    41    39    1
    21    93    94    1
    22    93    90    1
    23    34    33    1
    24    61    62   ar
    25    61    58    1
    26    63    66    1
    27    63    62   ar
    28    33    39    1
    29    33     7    1
    30    60    58    1
    31    91    90    1
    32    39    40    1
    33    39    42    1
    34    90     1    1
    35    90    92    1
    36     2     1    1
    37    62    64    1
    38    58    59    1
    39    58    57    1
    40     6     3    1
    41    23    24   ar
    42    23    21   ar
    43     3     1    1
    44     3     4   am
    45     1    43    1
    46    24    19   ar
    47    27    25    1
    48     7     4    1
    49     7     8    1
    50     7     9    1
    51     4     5    2
    52    57    55    1
    53    21    25    1
    54    21    20   ar
    55    25    26    1
    56    25    28    1
    57    12     9    1
    58    46    45    1
    59     9    10   am
    60    43    45   am
    61    43    44    2
    62    19    20   ar
    63    19    16    1
    64    56    55    2
    65    45    47    1
    66    55    52    1
    67    17    16    2
    68    20    22    1
    69    16    15   am
    70    50    49    1
    71    10    11    2
    72    10    13    1
    73    89    88    1
    74    15    18    1
    75    15    13    1
    76    73    72    1
    77    88    83    1
    78    47    49    1
    79    47    72    1
    80    47    48    1
    81    52    49    1
    82    52    54    1
    83    52    53    1
    84    49    51    1
    85    13    14    1
    86    13    29    1
    87    72    74    1
    88    72    75    1
    89    32    29    1
    90    83    86    1
    91    83    75    1
    92    83    80    1
    93    29    31    1
    94    29    30    1
    95    84    80    1
    96    75    87    1
    97    75    76    1
    98    80    85    1
    99    80    77    1
   100    78    76    1
   101    76    77    1
   102    76    79    1
   103    81    77    1
   104    77    82    1
@<TRIPOS>MOLECULE
crystal_redock_e24_er3_1.pdbqt
 102 104 0 0 0
SMALL
GASTEIGER

@<TRIPOS>ATOM
      1 C          -6.8110   13.5310   68.1170 C.3     1  UNL11       0.0890
      2 H          -6.1940   13.4570   67.2220 H       1  UNL11       0.0870
      3 N          -7.0870   14.9420   68.3440 N.am    1  UNL11      -0.3460
      4 C          -6.2490   16.0000   67.6720 C.2     1  UNL11       0.2410
      5 O          -5.3540   15.6910   66.9550 O.2     1  UNL11      -0.2710
      6 H          -7.8510   15.1830   68.9590 H       1  UNL11       0.1630
      7 C          -6.5520   17.4550   67.9130 C.3     1  UNL11       0.0920
      8 H          -6.2450   18.0340   67.0430 H       1  UNL11       0.0880
      9 N          -8.0000   17.6340   68.0640 N.am    1  UNL11      -0.3460
     10 C          -8.8280   17.8180   66.8970 C.2     1  UNL11       0.2400
     11 O          -8.3460   17.8260   65.8300 O.2     1  UNL11      -0.2710
     12 H          -8.4290   17.6310   68.9780 H       1  UNL11       0.1630
     13 C         -10.3670   18.0110   67.0640 C.3     1  UNL11       0.0860
     14 H         -10.9440   17.4700   66.3140 H       1  UNL11       0.0860
     15 N         -10.7710   17.4870   68.3570 N.am    1  UNL11      -0.3430
     16 C         -11.2870   16.1190   68.4520 C.2     1  UNL11       0.2730
     17 O         -11.3760   15.4510   67.4810 O.2     1  UNL11      -0.2660
     18 H         -10.6940   18.0660   69.1820 H       1  UNL11       0.1630
     19 C         -11.7160   15.5510   69.8140 C.ar    1  UNL11       0.1540
     20 C         -11.6890   16.2210   71.0780 C.ar    1  UNL11      -0.0170
     21 C         -12.1810   15.2720   72.0020 C.ar    1  UNL11       0.0770
     22 H         -11.3630   17.2390   71.2910 H       1  UNL11       0.0910
     23 O         -12.4560   14.1890   71.3370 O.2     1  UNL11      -0.2180
     24 N         -12.1930   14.3270   70.0580 N.ar    1  UNL11      -0.1230
     25 C         -12.3560   15.4810   73.5010 C.3     1  UNL11      -0.0290
     26 H         -13.0510   14.7380   73.8930 H       1  UNL11       0.0360
     27 H         -11.3920   15.3750   73.9980 H       1  UNL11       0.0360
     28 H         -12.7510   16.4810   73.6850 H       1  UNL11       0.0360
     29 C         -10.7050   19.4780   66.9730 C.3     1  UNL11      -0.0490
     30 H         -11.6940   19.5960   66.5310 H       1  UNL11       0.0300
     31 H         -10.6980   19.9150   67.9710 H       1  UNL11       0.0300
     32 H          -9.9670   19.9820   66.3500 H       1  UNL11       0.0300
     33 C          -5.8370   17.9260   69.2130 C.3     1  UNL11      -0.0330
     34 H          -6.0890   17.2170   70.0020 H       1  UNL11       0.0420
     35 C          -4.2850   17.9090   69.0460 C.3     1  UNL11      -0.0710
     36 H          -4.0040   17.1200   68.3470 H       1  UNL11       0.0280
     37 H          -3.9510   18.8710   68.6590 H       1  UNL11       0.0280
     38 H          -3.8180   17.7230   70.0120 H       1  UNL11       0.0280
     39 C          -6.3440   19.3370   69.6510 C.3     1  UNL11      -0.0710
     40 H          -5.9240   19.5880   70.6250 H       1  UNL11       0.0280
     41 H          -6.0290   20.0800   68.9180 H       1  UNL11       0.0280
     42 H          -7.4320   19.3280   69.7160 H       1  UNL11       0.0280
     43 C          -8.1640   12.7800   67.9620 C.2     1  UNL11       0.2400
     44 O          -9.1630   13.2680   68.3820 O.2     1  UNL11      -0.2710
     45 N          -8.2160   11.4550   67.2800 N.am    1  UNL11      -0.3550
     46 H          -7.3750   11.0320   66.9150 H       1  UNL11       0.1620
     47 C          -9.5110   10.7540   67.1390 C.3     1  UNL11       0.0130
     48 H         -10.2970   11.4300   67.4760 H       1  UNL11       0.0720
     49 C          -9.5000    9.5070   67.9940 C.3     1  UNL11      -0.0380
     50 H         -10.4290    8.9840   67.7640 H       1  UNL11       0.0360
     51 H          -8.5410    9.0270   67.8010 H       1  UNL11       0.0360
     52 C          -9.5370    9.8170   69.5060 C.3     1  UNL11       0.0180
     53 H          -8.6570    9.3330   69.9290 H       1  UNL11       0.0480
     54 H          -9.6540   10.8990   69.5830 H       1  UNL11       0.0480
     55 C         -10.7600    9.2020   70.2420 C.2     1  UNL11       0.2590
     56 O         -11.7760    9.8090   70.3360 O.2     1  UNL11      -0.2650
     57 O         -10.6470    7.9050   70.8160 O.3     1  UNL11      -0.3170
     58 C         -11.6090    6.9660   70.3270 C.3     1  UNL11       0.0520
     59 H         -11.8750    6.3440   71.1810 H       1  UNL11       0.0820
     60 H         -12.3730    7.5600   69.8260 H       1  UNL11       0.0820
     61 C         -10.9100    6.0720   69.2670 C.ar    1  UNL11      -0.0340
     62 C         -10.0790    5.0330   69.6720 C.ar    1  UNL11      -0.0750
     63 C          -9.4510    4.2300   68.7210 C.ar    1  UNL11      -0.0820
     64 H          -9.9190    4.8470   70.7340 H       1  UNL11       0.0840
     65 C          -9.6550    4.4720   67.3590 C.ar    1  UNL11      -0.0830
     66 H          -8.8020    3.4150   69.0410 H       1  UNL11       0.0830
     67 C         -10.4830    5.5130   66.9600 C.ar    1  UNL11      -0.0820
     68 H          -9.1680    3.8490   66.6090 H       1  UNL11       0.0830
     69 C         -11.1140    6.3160   67.9080 C.ar    1  UNL11      -0.0750
     70 H         -10.6380    5.7000   65.8980 H       1  UNL11       0.0830
     71 H         -11.7630    7.1310   67.5870 H       1  UNL11       0.0840
     72 C          -9.7330   10.3690   65.6780 C.3     1  UNL11      -0.0390
     73 H          -8.7680   10.0030   65.3250 H       1  UNL11       0.0360
     74 H         -10.5980    9.7060   65.6810 H       1  UNL11       0.0360
     75 C         -10.1140   11.6400   64.7810 C.3     1  UNL11      -0.0010
     76 C         -11.4710   12.3560   65.3720 C.3     1  UNL11      -0.0350
     77 C         -12.3580   12.5130   64.3610 C.3     1  UNL11       0.0850
     78 H         -11.9820   11.6800   66.0570 H       1  UNL11       0.0360
     79 H         -11.2510   13.3790   65.6790 H       1  UNL11       0.0360
     80 N         -11.8630   11.6760   63.2060 N.4     1  UNL11      -0.0490
     81 H         -13.2960   12.0940   64.7280 H       1  UNL11       0.0750
     82 H         -12.3030   13.5660   64.0860 H       1  UNL11       0.0750
     83 C         -10.3330   11.2980   63.5550 C.3     1  UNL11       0.1930
     84 H         -12.4130   10.8290   63.2100 H       1  UNL11       0.2800
     85 H         -11.8690   12.2770   62.3940 H       1  UNL11       0.2800
     86 H          -9.5090   11.8090   63.0560 H       1  UNL11       0.1290
     87 H          -9.2560   12.2840   64.5920 H       1  UNL11       0.0460
     88 O         -10.1070    9.9050   63.3350 O.3     1  UNL11      -0.3690
     89 H         -10.7670    9.3950   63.8110 H       1  UNL11       0.2120
     90 C          -6.0530   12.9760   69.3130 C.3     1  UNL11      -0.0350
     91 H          -6.8130   12.5370   69.9590 H       1  UNL11       0.0370
     92 H          -5.2680   12.3480   68.8900 H       1  UNL11       0.0370
     93 C          -5.3320   14.0710   70.1610 C.3     1  UNL11      -0.0590
     94 H          -5.7270   15.0400   69.8550 H       1  UNL11       0.0380
     95 C          -5.6060   13.9070   71.6910 C.3     1  UNL11      -0.0730
     96 H          -4.8350   13.2770   72.1320 H       1  UNL11       0.0280
     97 H          -5.5940   14.8870   72.1690 H       1  UNL11       0.0280
     98 H          -6.5820   13.4440   71.8370 H       1  UNL11       0.0280
     99 C          -3.8280   14.0820   69.8760 C.3     1  UNL11      -0.0730
    100 H          -3.6570   13.8670   68.8210 H       1  UNL11       0.0280
    101 H          -3.4200   15.0640   70.1170 H       1  UNL11       0.0280
    102 H          -3.3370   13.3250   70.4860 H       1  UNL11       0.0280
@<TRIPOS>BOND
     1    85    80    1
     2    86    83    1
     3    80    84    1
     4    80    83    1
     5    80    77    1
     6    88    83    1
     7    88    89    1
     8    83    75    1
     9    82    77    1
    10    77    81    1
    11    77    76    1
    12    87    75    1
    13    75    76    1
    14    75    72    1
    15    73    72    1
    16    76    79    1
    17    76    78    1
    18    72    74    1
    19    72    47    1
    20    11    10    2
    21    70    67    1
    22    14    13    1
    23    32    29    1
    24    30    29    1
    25    68    65    1
    26    10    13    1
    27    10     9   am
    28    46    45    1
    29     5     4    2
    30    67    65   ar
    31    67    69   ar
    32    29    13    1
    33    29    31    1
    34     8     7    1
    35    13    15    1
    36    47    45    1
    37    47    48    1
    38    47    49    1
    39     2     1    1
    40    45    43   am
    41    65    63   ar
    42    17    16    2
    43    71    69    1
    44     4     7    1
    45     4     3   am
    46    50    49    1
    47    51    49    1
    48    69    61   ar
    49     7     9    1
    50     7    33    1
    51    43     1    1
    52    43    44    2
    53    49    52    1
    54     9    12    1
    55     1     3    1
    56     1    90    1
    57     3     6    1
    58    36    35    1
    59    15    16   am
    60    15    18    1
    61    16    19    1
    62    37    35    1
    63    63    66    1
    64    63    62   ar
    65   100    99    1
    66    92    90    1
    67    41    39    1
    68    35    33    1
    69    35    38    1
    70    33    39    1
    71    33    34    1
    72    61    62   ar
    73    61    58    1
    74    90    91    1
    75    90    93    1
    76    52    54    1
    77    52    53    1
    78    52    55    1
    79    39    42    1
    80    39    40    1
    81    62    64    1
    82    19    24   ar
    83    19    20   ar
    84    60    58    1
    85    94    93    1
    86    99   101    1
    87    99    93    1
    88    99   102    1
    89    24    23   ar
    90    93    95    1
    91    55    56    2
    92    55    57    1
    93    58    57    1
    94    58    59    1
    95    20    22    1
    96    20    21   ar
    97    23    21   ar
    98    95    98    1
    99    95    96    1
   100    95    97    1
   101    21    25    1
   102    25    28    1
   103    25    26    1
   104    25    27    1
@<TRIPOS>MOLECULE
crystal_redock_e24_er3_1.pdbqt
 102 104 0 0 0
SMALL
GASTEIGER

@<TRIPOS>ATOM
      1 C         -11.6430   15.2280   70.1740 C.3     1  UNL11       0.0890
      2 H         -12.6550   15.4830   69.8590 H       1  UNL11       0.0870
      3 N         -11.4180   13.8300   69.8350 N.am    1  UNL11      -0.3460
      4 C         -11.8450   13.2940   68.4920 C.2     1  UNL11       0.2410
      5 O         -12.3710   14.0060   67.7010 O.2     1  UNL11      -0.2710
      6 H         -10.9710   13.2410   70.5230 H       1  UNL11       0.1630
      7 C         -11.5990   11.8470   68.1550 C.3     1  UNL11       0.0920
      8 H         -12.5310   11.3930   67.8190 H       1  UNL11       0.0880
      9 N         -10.6480   11.7580   67.0430 N.am    1  UNL11      -0.3460
     10 C         -11.1280   11.7490   65.6830 C.2     1  UNL11       0.2400
     11 O         -12.2770   11.8110   65.4660 O.2     1  UNL11      -0.2710
     12 H          -9.6540   11.7020   67.2150 H       1  UNL11       0.1630
     13 C         -10.1120   11.6510   64.5040 C.3     1  UNL11       0.0860
     14 H          -9.2740   12.3400   64.6120 H       1  UNL11       0.0860
     15 N          -9.5480   10.3110   64.4770 N.am    1  UNL11      -0.3430
     16 C          -8.3190   10.0310   65.2220 C.2     1  UNL11       0.2730
     17 O          -7.7890   10.8900   65.8370 O.2     1  UNL11      -0.2660
     18 H         -10.0060    9.5840   63.9470 H       1  UNL11       0.1630
     19 C          -7.7130    8.6190   65.2040 C.ar    1  UNL11       0.1540
     20 C          -6.8550    8.0590   64.2040 C.ar    1  UNL11      -0.0170
     21 C          -6.5820    6.7470   64.6530 C.ar    1  UNL11       0.0770
     22 H          -6.4880    8.5310   63.2930 H       1  UNL11       0.0910
     23 O          -7.2120    6.5850   65.7800 O.2     1  UNL11      -0.2180
     24 N          -7.8790    7.6630   66.1210 N.ar    1  UNL11      -0.1230
     25 C          -5.7100    5.7170   63.9490 C.3     1  UNL11      -0.0290
     26 H          -5.8100    5.8320   62.8690 H       1  UNL11       0.0360
     27 H          -4.6690    5.8650   64.2350 H       1  UNL11       0.0360
     28 H          -6.0260    4.7140   64.2380 H       1  UNL11       0.0360
     29 C         -10.8170   11.9410   63.2030 C.3     1  UNL11      -0.0490
     30 H         -10.1080   11.8600   62.3790 H       1  UNL11       0.0300
     31 H         -11.6240   11.2230   63.0600 H       1  UNL11       0.0300
     32 H         -11.2270   12.9500   63.2300 H       1  UNL11       0.0300
     33 C         -11.0090   11.1190   69.3980 C.3     1  UNL11      -0.0330
     34 H         -10.4900   11.8640   70.0010 H       1  UNL11       0.0420
     35 C         -12.1360   10.5020   70.2840 C.3     1  UNL11      -0.0710
     36 H         -12.8980   11.2560   70.4790 H       1  UNL11       0.0280
     37 H         -12.5860    9.6570   69.7620 H       1  UNL11       0.0280
     38 H         -11.7100   10.1610   71.2280 H       1  UNL11       0.0280
     39 C          -9.9680   10.0350   68.9700 C.3     1  UNL11      -0.0710
     40 H         -10.0510    9.8550   67.8980 H       1  UNL11       0.0280
     41 H          -8.9620   10.3850   69.2030 H       1  UNL11       0.0280
     42 H         -10.1640    9.1090   69.5100 H       1  UNL11       0.0280
     43 C         -10.5680   16.0920   69.4540 C.2     1  UNL11       0.2400
     44 O         -10.3980   17.2200   69.7850 O.2     1  UNL11      -0.2710
     45 N          -9.7440   15.5090   68.3570 N.am    1  UNL11      -0.3550
     46 H          -9.8760   14.5500   68.0700 H       1  UNL11       0.1620
     47 C          -8.7250   16.3430   67.6840 C.3     1  UNL11       0.0130
     48 H          -8.6590   17.2890   68.2200 H       1  UNL11       0.0720
     49 C          -9.1470   16.5880   66.2530 C.3     1  UNL11      -0.0380
     50 H          -8.3740   17.2270   65.8230 H       1  UNL11       0.0360
     51 H          -9.3370   15.6020   65.8290 H       1  UNL11       0.0360
     52 C         -10.4720   17.3730   66.1440 C.3     1  UNL11       0.0180
     53 H         -10.6930   17.4340   65.0780 H       1  UNL11       0.0480
     54 H         -11.1680   16.8710   66.8170 H       1  UNL11       0.0480
     55 C         -10.3740   18.8400   66.6460 C.2     1  UNL11       0.2590
     56 O         -11.2250   19.3000   67.3350 O.2     1  UNL11      -0.2650
     57 O          -9.2590   19.6350   66.2610 O.3     1  UNL11      -0.3170
     58 C          -8.6880   20.3950   67.3310 C.3     1  UNL11       0.0520
     59 H          -8.4150   21.3560   66.8960 H       1  UNL11       0.0820
     60 H          -9.4130   20.3510   68.1430 H       1  UNL11       0.0820
     61 C          -7.3920   19.6760   67.7900 C.ar    1  UNL11      -0.0340
     62 C          -6.4250   19.3190   66.8560 C.ar    1  UNL11      -0.0750
     63 C          -5.2600   18.6730   67.2680 C.ar    1  UNL11      -0.0820
     64 H          -6.5800   19.5440   65.8010 H       1  UNL11       0.0840
     65 C          -5.0650   18.3830   68.6210 C.ar    1  UNL11      -0.0830
     66 H          -4.5040   18.3960   66.5340 H       1  UNL11       0.0830
     67 C          -6.0340   18.7390   69.5490 C.ar    1  UNL11      -0.0820
     68 H          -4.1570   17.8790   68.9520 H       1  UNL11       0.0830
     69 C          -7.1990   19.3860   69.1420 C.ar    1  UNL11      -0.0750
     70 H          -5.8800   18.5090   70.6040 H       1  UNL11       0.0830
     71 H          -7.9540   19.6630   69.8770 H       1  UNL11       0.0840
     72 C          -7.3770   15.6260   67.7030 C.3     1  UNL11      -0.0390
     73 H          -7.3100   15.1080   66.7460 H       1  UNL11       0.0360
     74 H          -6.6450   16.3920   67.9590 H       1  UNL11       0.0360
     75 C          -7.3150   14.5100   68.8500 C.3     1  UNL11      -0.0010
     76 C          -6.2410   14.9600   70.0110 C.3     1  UNL11      -0.0350
     77 C          -5.3800   13.9370   70.2290 C.3     1  UNL11       0.0850
     78 H          -5.6000   15.7580   69.6390 H       1  UNL11       0.0360
     79 H          -6.7510   15.0720   70.9690 H       1  UNL11       0.0360
     80 N          -5.5630   12.9570   69.0960 N.4     1  UNL11      -0.0490
     81 H          -4.3840   14.3760   70.1630 H       1  UNL11       0.0750
     82 H          -5.7100   13.4720   71.1580 H       1  UNL11       0.0750
     83 C          -6.9460   13.3680   68.3720 C.3     1  UNL11       0.1930
     84 H          -4.8020   13.1180   68.4520 H       1  UNL11       0.2800
     85 H          -5.6810   12.0480   69.5210 H       1  UNL11       0.2800
     86 H          -7.8510   12.7840   68.5340 H       1  UNL11       0.1290
     87 H          -8.3070   14.2040   69.1830 H       1  UNL11       0.0460
     88 O          -6.7660   13.4100   66.9550 O.3     1  UNL11      -0.3690
     89 H          -6.0410   14.0000   66.7420 H       1  UNL11       0.2120
     90 C         -11.5140   15.4000   71.6790 C.3     1  UNL11      -0.0350
     91 H         -10.9440   14.5350   72.0210 H       1  UNL11       0.0370
     92 H         -11.1160   16.4050   71.8210 H       1  UNL11       0.0370
     93 C         -12.8800   15.3550   72.4340 C.3     1  UNL11      -0.0590
     94 H         -13.5740   16.0050   71.9020 H       1  UNL11       0.0380
     95 C         -13.4940   13.9180   72.4570 C.3     1  UNL11      -0.0730
     96 H         -12.9530   13.3040   73.1760 H       1  UNL11       0.0280
     97 H         -14.5440   13.9760   72.7460 H       1  UNL11       0.0280
     98 H         -13.4140   13.4740   71.4650 H       1  UNL11       0.0280
     99 C         -12.7380   15.9090   73.8550 C.3     1  UNL11      -0.0730
    100 H         -13.5990   16.5350   74.0890 H       1  UNL11       0.0280
    101 H         -12.6860   15.0820   74.5630 H       1  UNL11       0.0280
    102 H         -11.8270   16.5030   73.9230 H       1  UNL11       0.0280
@<TRIPOS>BOND
     1    30    29    1
     2    26    25    1
     3    31    29    1
     4    29    32    1
     5    29    13    1
     6    22    20    1
     7    18    15    1
     8    25    27    1
     9    25    28    1
    10    25    21    1
    11    20    21   ar
    12    20    19   ar
    13    15    13    1
    14    15    16   am
    15    13    14    1
    16    13    10    1
    17    21    23   ar
    18    53    52    1
    19    19    16    1
    20    19    24   ar
    21    16    17    2
    22    11    10    2
    23    10     9   am
    24    23    24   ar
    25    64    62    1
    26    50    49    1
    27    51    49    1
    28    52    49    1
    29    52    55    1
    30    52    54    1
    31    49    47    1
    32    57    55    1
    33    57    58    1
    34    66    63    1
    35    55    56    2
    36    89    88    1
    37    73    72    1
    38    62    63   ar
    39    62    61   ar
    40    59    58    1
    41    88    83    1
    42     9    12    1
    43     9     7    1
    44    63    65   ar
    45    58    61    1
    46    58    60    1
    47    47    72    1
    48    47    48    1
    49    47    45    1
    50     5     4    2
    51    72    74    1
    52    72    75    1
    53    61    69   ar
    54     8     7    1
    55    40    39    1
    56    46    45    1
    57     7     4    1
    58     7    33    1
    59    45    43   am
    60    83    86    1
    61    83    75    1
    62    83    80    1
    63    84    80    1
    64     4     3   am
    65    65    68    1
    66    65    67   ar
    67    75    87    1
    68    75    76    1
    69    39    41    1
    70    39    33    1
    71    39    42    1
    72    80    85    1
    73    80    77    1
    74    69    67   ar
    75    69    71    1
    76    33    34    1
    77    33    35    1
    78    43    44    2
    79    43     1    1
    80    67    70    1
    81    78    76    1
    82    37    35    1
    83     3     1    1
    84     3     6    1
    85     2     1    1
    86    76    77    1
    87    76    79    1
    88    81    77    1
    89     1    90    1
    90    77    82    1
    91    35    36    1
    92    35    38    1
    93    98    95    1
    94    90    92    1
    95    90    91    1
    96    90    93    1
    97    94    93    1
    98    93    95    1
    99    93    99    1
   100    95    97    1
   101    95    96    1
   102    99   102    1
   103    99   100    1
   104    99   101    1
@<TRIPOS>MOLECULE
crystal_redock_e24_er3_1.pdbqt
 102 104 0 0 0
SMALL
GASTEIGER

@<TRIPOS>ATOM
      1 C          -8.3080    8.5630   63.0330 C.3     1  UNL11       0.0890
      2 H          -9.1910    8.8470   62.4580 H       1  UNL11       0.0870
      3 N          -8.3750    9.2560   64.3110 N.am    1  UNL11      -0.3460
      4 C          -9.4700   10.2580   64.5770 C.2     1  UNL11       0.2410
      5 O         -10.2840   10.4930   63.7460 O.2     1  UNL11      -0.2710
      6 H          -7.6720    9.0440   65.0040 H       1  UNL11       0.1630
      7 C          -9.5280   10.9620   65.9070 C.3     1  UNL11       0.0920
      8 H          -8.5780   11.4650   66.0890 H       1  UNL11       0.0880
      9 N         -10.5660   11.9970   65.8690 N.am    1  UNL11      -0.3460
     10 C         -10.2820   13.3200   66.3680 C.2     1  UNL11       0.2400
     11 O          -9.2260   13.5690   66.8050 O.2     1  UNL11      -0.2710
     12 H         -11.4830   11.7970   65.4960 H       1  UNL11       0.1630
     13 C         -11.3920   14.4160   66.3270 C.3     1  UNL11       0.0860
     14 H         -11.9510   14.4850   67.2600 H       1  UNL11       0.0860
     15 N         -10.7670   15.7120   66.1210 N.am    1  UNL11      -0.3430
     16 C         -10.6520   16.6450   67.2440 C.2     1  UNL11       0.2730
     17 O         -11.0680   16.3440   68.3090 O.2     1  UNL11      -0.2660
     18 H         -10.4160   15.9620   65.2070 H       1  UNL11       0.1630
     19 C          -9.9920   18.0170   67.0410 C.ar    1  UNL11       0.1540
     20 C          -8.7210   18.4480   67.5380 C.ar    1  UNL11      -0.0170
     21 C          -8.5810   19.7760   67.0780 C.ar    1  UNL11       0.0770
     22 H          -8.0090   17.8830   68.1400 H       1  UNL11       0.0910
     23 O          -9.6510   20.0640   66.3960 O.2     1  UNL11      -0.2180
     24 N         -10.4890   19.0540   66.3610 N.ar    1  UNL11      -0.1230
     25 C          -7.3960   20.6980   67.3320 C.3     1  UNL11      -0.0290
     26 H          -6.6420   20.1700   67.9160 H       1  UNL11       0.0360
     27 H          -6.9670   21.0080   66.3790 H       1  UNL11       0.0360
     28 H          -7.7310   21.5780   67.8820 H       1  UNL11       0.0360
     29 C         -12.3520   14.1220   65.2030 C.3     1  UNL11      -0.0490
     30 H         -12.9150   13.2170   65.4340 H       1  UNL11       0.0300
     31 H         -13.0410   14.9580   65.0850 H       1  UNL11       0.0300
     32 H         -11.7950   13.9750   64.2780 H       1  UNL11       0.0300
     33 C          -9.8680    9.9320   67.0240 C.3     1  UNL11      -0.0330
     34 H          -9.9680    8.9550   66.5510 H       1  UNL11       0.0420
     35 C          -8.7160    9.8290   68.0720 C.3     1  UNL11      -0.0710
     36 H          -8.5190   10.8150   68.4930 H       1  UNL11       0.0280
     37 H          -9.0100    9.1460   68.8690 H       1  UNL11       0.0280
     38 H          -7.8160    9.4550   67.5860 H       1  UNL11       0.0280
     39 C         -11.2280   10.2790   67.7100 C.3     1  UNL11      -0.0710
     40 H         -12.0370    9.7580   67.1980 H       1  UNL11       0.0280
     41 H         -11.1990    9.9670   68.7540 H       1  UNL11       0.0280
     42 H         -11.3970   11.3540   67.6570 H       1  UNL11       0.0280
     43 C          -8.2490    7.0320   63.3010 C.2     1  UNL11       0.2400
     44 O          -7.8620    6.2970   62.4510 O.2     1  UNL11      -0.2710
     45 N          -8.6670    6.4830   64.6230 N.am    1  UNL11      -0.3550
     46 H          -8.9930    7.0980   65.3540 H       1  UNL11       0.1620
     47 C          -8.6040    5.0250   64.8630 C.3     1  UNL11       0.0130
     48 H          -8.3550    4.5400   63.9200 H       1  UNL11       0.0720
     49 C          -9.9490    4.5410   65.3540 C.3     1  UNL11      -0.0380
     50 H         -10.6720    5.2790   65.0080 H       1  UNL11       0.0360
     51 H         -10.0270    3.5040   65.0240 H       1  UNL11       0.0360
     52 C         -10.0520    4.5170   66.8950 C.3     1  UNL11       0.0180
     53 H         -10.8700    3.8340   67.1260 H       1  UNL11       0.0480
     54 H          -9.0450    4.3040   67.2550 H       1  UNL11       0.0480
     55 C         -10.4480    5.8850   67.5170 C.2     1  UNL11       0.2590
     56 O         -11.1440    6.6410   66.9190 O.2     1  UNL11      -0.2650
     57 O          -9.9600    6.2310   68.8070 O.3     1  UNL11      -0.3170
     58 C         -10.7730    5.7570   69.8840 C.3     1  UNL11       0.0520
     59 H         -11.5700    5.1780   69.4190 H       1  UNL11       0.0820
     60 H         -10.0870    5.2770   70.5820 H       1  UNL11       0.0820
     61 C         -11.4040    6.9890   70.5850 C.ar    1  UNL11      -0.0340
     62 C         -12.6840    6.9040   71.1240 C.ar    1  UNL11      -0.0750
     63 C         -13.2520    8.0100   71.7540 C.ar    1  UNL11      -0.0820
     64 H         -13.2420    5.9700   71.0530 H       1  UNL11       0.0840
     65 C         -12.5360    9.2070   71.8410 C.ar    1  UNL11      -0.0830
     66 H         -14.2540    7.9400   72.1770 H       1  UNL11       0.0830
     67 C         -11.2600    9.2890   71.2990 C.ar    1  UNL11      -0.0820
     68 H         -12.9720   10.0770   72.3330 H       1  UNL11       0.0830
     69 C         -10.6880    8.1850   70.6710 C.ar    1  UNL11      -0.0750
     70 H         -10.7050   10.2240   71.3670 H       1  UNL11       0.0830
     71 H          -9.6850    8.2560   70.2490 H       1  UNL11       0.0840
     72 C          -7.5380    4.7200   65.9140 C.3     1  UNL11      -0.0390
     73 H          -8.0570    4.7520   66.8720 H       1  UNL11       0.0360
     74 H          -7.0600    3.7980   65.5830 H       1  UNL11       0.0360
     75 C          -6.4050    5.8520   65.9540 C.3     1  UNL11      -0.0010
     76 C          -5.0320    5.2960   65.2390 C.3     1  UNL11      -0.0350
     77 C          -3.9890    5.4990   66.0790 C.3     1  UNL11       0.0850
     78 H          -5.0740    4.2110   65.1420 H       1  UNL11       0.0360
     79 H          -4.7860    5.9110   64.3730 H       1  UNL11       0.0360
     80 N          -4.5700    5.8420   67.4290 N.4     1  UNL11      -0.0490
     81 H          -3.4770    4.5380   66.1460 H       1  UNL11       0.0750
     82 H          -3.4650    6.3700   65.6860 H       1  UNL11       0.0750
     83 C          -6.1250    6.1910   67.1680 C.3     1  UNL11       0.1930
     84 H          -4.5190    5.0000   67.9850 H       1  UNL11       0.2800
     85 H          -4.1000    6.6810   67.7380 H       1  UNL11       0.2800
     86 H          -6.4680    7.2260   67.1690 H       1  UNL11       0.1290
     87 H          -6.7780    6.8220   65.6240 H       1  UNL11       0.0460
     88 O          -6.9480    5.5150   68.1200 O.3     1  UNL11      -0.3690
     89 H          -7.8710    5.6960   67.9300 H       1  UNL11       0.2120
     90 C          -7.0520    9.0020   62.2960 C.3     1  UNL11      -0.0350
     91 H          -6.8340    8.1970   61.5930 H       1  UNL11       0.0370
     92 H          -7.2690   10.0040   61.9270 H       1  UNL11       0.0370
     93 C          -5.7990    9.1330   63.2190 C.3     1  UNL11      -0.0590
     94 H          -6.1140    8.9110   64.2380 H       1  UNL11       0.0380
     95 C          -4.6750    8.1180   62.8350 C.3     1  UNL11      -0.0730
     96 H          -3.7100    8.5050   63.1600 H       1  UNL11       0.0280
     97 H          -4.8670    7.1620   63.3240 H       1  UNL11       0.0280
     98 H          -4.6670    7.9770   61.7540 H       1  UNL11       0.0280
     99 C          -5.2630   10.5670   63.2110 C.3     1  UNL11      -0.0730
    100 H          -4.8410   10.7920   62.2310 H       1  UNL11       0.0280
    101 H          -6.0770   11.2610   63.4240 H       1  UNL11       0.0280
    102 H          -4.4900   10.6700   63.9720 H       1  UNL11       0.0280
@<TRIPOS>BOND
     1    91    90    1
     2    98    95    1
     3    92    90    1
     4   100    99    1
     5    90     1    1
     6    90    93    1
     7    44    43    2
     8     2     1    1
     9    95    96    1
    10    95    93    1
    11    95    97    1
    12     1    43    1
    13     1     3    1
    14    99    93    1
    15    99   101    1
    16    99   102    1
    17    93    94    1
    18    43    45   am
    19     5     4    2
    20    48    47    1
    21    32    29    1
    22     3     4   am
    23     3     6    1
    24    79    76    1
    25     4     7    1
    26    45    47    1
    27    45    46    1
    28    47    49    1
    29    47    72    1
    30    50    49    1
    31    51    49    1
    32    31    29    1
    33    78    76    1
    34    29    30    1
    35    29    13    1
    36    18    15    1
    37    76    75    1
    38    76    77    1
    39    49    52    1
    40    12     9    1
    41    74    72    1
    42    87    75    1
    43    82    77    1
    44     9     7    1
    45     9    10   am
    46     7     8    1
    47     7    33    1
    48    72    75    1
    49    72    73    1
    50    75    83    1
    51    77    81    1
    52    77    80    1
    53    15    13    1
    54    15    16   am
    55    13    10    1
    56    13    14    1
    57    24    23   ar
    58    24    19   ar
    59    10    11    2
    60    27    25    1
    61    23    21   ar
    62    34    33    1
    63    52    53    1
    64    52    54    1
    65    52    55    1
    66    56    55    2
    67    33    39    1
    68    33    35    1
    69    19    16    1
    70    19    20   ar
    71    21    25    1
    72    21    20   ar
    73    83    86    1
    74    83    80    1
    75    83    88    1
    76    40    39    1
    77    16    17    2
    78    25    28    1
    79    25    26    1
    80    80    85    1
    81    80    84    1
    82    55    57    1
    83    20    22    1
    84    38    35    1
    85    42    39    1
    86    39    41    1
    87    89    88    1
    88    35    36    1
    89    35    37    1
    90    57    58    1
    91    59    58    1
    92    58    60    1
    93    58    61    1
    94    71    69    1
    95    61    69   ar
    96    61    62   ar
    97    69    67   ar
    98    64    62    1
    99    62    63   ar
   100    67    70    1
   101    67    65   ar
   102    63    65   ar
   103    63    66    1
   104    65    68    1
@<TRIPOS>MOLECULE
crystal_redock_e24_er3_1.pdbqt
 102 104 0 0 0
SMALL
GASTEIGER

@<TRIPOS>ATOM
      1 C         -10.5130    8.6020   69.6220 C.3     1  UNL11       0.0890
      2 H         -11.5390    8.3100   69.3980 H       1  UNL11       0.0870
      3 N          -9.7520    7.3850   69.8580 N.am    1  UNL11      -0.3460
      4 C         -10.3370    6.0400   69.5060 C.2     1  UNL11       0.2410
      5 O         -11.4240    5.9640   69.0360 O.2     1  UNL11      -0.2710
      6 H          -8.8290    7.4710   70.2600 H       1  UNL11       0.1630
      7 C          -9.5330    4.7910   69.7510 C.3     1  UNL11       0.0920
      8 H          -9.8150    4.0330   69.0190 H       1  UNL11       0.0880
      9 N          -8.1090    5.0780   69.5510 N.am    1  UNL11      -0.3460
     10 C          -7.3000    4.1880   68.7550 C.2     1  UNL11       0.2400
     11 O          -7.7770    3.2350   68.2700 O.2     1  UNL11      -0.2710
     12 H          -7.6830    5.8950   69.9640 H       1  UNL11       0.1630
     13 C          -5.7850    4.4970   68.5480 C.3     1  UNL11       0.0860
     14 H          -5.1970    3.6040   68.3340 H       1  UNL11       0.0860
     15 N          -5.6360    5.3770   67.4010 N.am    1  UNL11      -0.3430
     16 C          -5.3520    4.8040   66.0840 C.2     1  UNL11       0.2730
     17 O          -5.2420    3.6340   65.9580 O.2     1  UNL11      -0.2660
     18 H          -5.7280    6.3770   67.5190 H       1  UNL11       0.1630
     19 C          -5.1930    5.7230   64.8620 C.ar    1  UNL11       0.1540
     20 C          -4.7790    7.0920   64.8590 C.ar    1  UNL11      -0.0170
     21 C          -4.7960    7.4740   63.4980 C.ar    1  UNL11       0.0770
     22 H          -4.5070    7.7140   65.7120 H       1  UNL11       0.0910
     23 O          -5.1760    6.4370   62.8100 O.2     1  UNL11      -0.2180
     24 N          -5.4140    5.4030   63.5840 N.ar    1  UNL11      -0.1230
     25 C          -4.4360    8.8450   62.9410 C.3     1  UNL11      -0.0290
     26 H          -5.1420    9.5860   63.3150 H       1  UNL11       0.0360
     27 H          -3.4270    9.1110   63.2580 H       1  UNL11       0.0360
     28 H          -4.4790    8.8180   61.8520 H       1  UNL11       0.0360
     29 C          -5.2310    5.1600   69.7840 C.3     1  UNL11      -0.0490
     30 H          -4.6780    6.0550   69.4990 H       1  UNL11       0.0300
     31 H          -6.0510    5.4350   70.4470 H       1  UNL11       0.0300
     32 H          -4.5630    4.4700   70.2980 H       1  UNL11       0.0300
     33 C          -9.7610    4.3060   71.2130 C.3     1  UNL11      -0.0330
     34 H         -10.7600    4.6240   71.5130 H       1  UNL11       0.0420
     35 C          -9.7150    2.7490   71.3090 C.3     1  UNL11      -0.0710
     36 H          -8.7950    2.3840   70.8530 H       1  UNL11       0.0280
     37 H          -9.7440    2.4490   72.3570 H       1  UNL11       0.0280
     38 H         -10.5730    2.3280   70.7860 H       1  UNL11       0.0280
     39 C          -8.7320    4.9640   72.1870 C.3     1  UNL11      -0.0710
     40 H          -9.0180    4.7510   73.2170 H       1  UNL11       0.0280
     41 H          -7.7380    4.5590   71.9940 H       1  UNL11       0.0280
     42 H          -8.7210    6.0430   72.0290 H       1  UNL11       0.0280
     43 C          -9.8540    9.3790   68.4460 C.2     1  UNL11       0.2400
     44 O          -8.6730    9.3590   68.3130 O.2     1  UNL11      -0.2710
     45 N         -10.6960   10.1400   67.4800 N.am    1  UNL11      -0.3550
     46 H         -11.7010   10.1600   67.5800 H       1  UNL11       0.1620
     47 C         -10.0540   10.8720   66.3670 C.3     1  UNL11       0.0130
     48 H          -9.0160   11.0580   66.6420 H       1  UNL11       0.0720
     49 C         -10.7750   12.1840   66.1500 C.3     1  UNL11      -0.0380
     50 H         -10.0160   12.8810   65.7930 H       1  UNL11       0.0360
     51 H         -11.6350   11.9470   65.5250 H       1  UNL11       0.0360
     52 C         -11.3370   12.7820   67.4580 C.3     1  UNL11       0.0180
     53 H         -12.4100   12.5910   67.4330 H       1  UNL11       0.0480
     54 H         -10.7280   12.3630   68.2600 H       1  UNL11       0.0480
     55 C         -11.1780   14.3240   67.5600 C.2     1  UNL11       0.2590
     56 O         -11.2420   15.0030   66.5870 O.2     1  UNL11      -0.2650
     57 O         -10.9400   14.9170   68.8310 O.3     1  UNL11      -0.3170
     58 C         -11.9600   15.8310   69.2470 C.3     1  UNL11       0.0520
     59 H         -11.4900   16.8140   69.2530 H       1  UNL11       0.0820
     60 H         -12.8120   15.6380   68.5960 H       1  UNL11       0.0820
     61 C         -12.3610   15.4700   70.7020 C.ar    1  UNL11      -0.0340
     62 C         -11.9390   16.2690   71.7600 C.ar    1  UNL11      -0.0750
     63 C         -12.3000   15.9450   73.0670 C.ar    1  UNL11      -0.0820
     64 H         -11.3260   17.1490   71.5650 H       1  UNL11       0.0840
     65 C         -13.0840   14.8150   73.3150 C.ar    1  UNL11      -0.0830
     66 H         -11.9690   16.5750   73.8930 H       1  UNL11       0.0830
     67 C         -13.5000   14.0190   72.2570 C.ar    1  UNL11      -0.0820
     68 H         -13.3710   14.5550   74.3340 H       1  UNL11       0.0830
     69 C         -13.1440   14.3400   70.9480 C.ar    1  UNL11      -0.0750
     70 H         -14.1100   13.1370   72.4540 H       1  UNL11       0.0830
     71 H         -13.4750   13.7100   70.1220 H       1  UNL11       0.0840
     72 C         -10.1240   10.0350   65.0910 C.3     1  UNL11      -0.0390
     73 H         -10.7250    9.1630   65.3480 H       1  UNL11       0.0360
     74 H         -10.4620   10.7200   64.3130 H       1  UNL11       0.0360
     75 C          -8.6780    9.5010   64.6540 C.3     1  UNL11      -0.0010
     76 C          -8.5070    9.6200   63.0220 C.3     1  UNL11      -0.0350
     77 C          -8.0960    8.4230   62.5380 C.3     1  UNL11       0.0850
     78 H          -9.4810    9.7630   62.5540 H       1  UNL11       0.0360
     79 H          -7.6820   10.2890   62.7810 H       1  UNL11       0.0360
     80 N          -8.2860    7.4120   63.6430 N.4     1  UNL11      -0.0490
     81 H          -8.7790    8.1890   61.7210 H       1  UNL11       0.0750
     82 H          -7.0310    8.5390   62.3420 H       1  UNL11       0.0750
     83 C          -8.5140    8.2660   64.9930 C.3     1  UNL11       0.1930
     84 H          -9.1380    6.9120   63.4300 H       1  UNL11       0.2800
     85 H          -7.4130    6.9090   63.7240 H       1  UNL11       0.2800
     86 H          -7.7130    8.3670   65.7260 H       1  UNL11       0.1290
     87 H          -7.8800    9.9190   65.2680 H       1  UNL11       0.0460
     88 O          -9.6330    7.7530   65.7180 O.3     1  UNL11      -0.3690
     89 H          -9.4060    7.6800   66.6480 H       1  UNL11       0.2120
     90 C         -10.4840    9.4570   70.8790 C.3     1  UNL11      -0.0350
     91 H          -9.9630    8.8560   71.6250 H       1  UNL11       0.0370
     92 H         -10.0690   10.4160   70.5670 H       1  UNL11       0.0370
     93 C         -11.9000    9.7580   71.4650 C.3     1  UNL11      -0.0590
     94 H         -11.7620   10.3080   72.3960 H       1  UNL11       0.0380
     95 C         -12.7570   10.6470   70.5080 C.3     1  UNL11      -0.0730
     96 H         -12.5580   10.3640   69.4750 H       1  UNL11       0.0280
     97 H         -13.8150   10.5030   70.7280 H       1  UNL11       0.0280
     98 H         -12.4950   11.6950   70.6550 H       1  UNL11       0.0280
     99 C         -12.6360    8.4610   71.8090 C.3     1  UNL11      -0.0730
    100 H         -12.0200    7.6070   71.5260 H       1  UNL11       0.0280
    101 H         -12.8340    8.4280   72.8810 H       1  UNL11       0.0280
    102 H         -13.5800    8.4240   71.2650 H       1  UNL11       0.0280
@<TRIPOS>BOND
     1    81    77    1
     2    28    25    1
     3    82    77    1
     4    77    76    1
     5    77    80    1
     6    78    76    1
     7    79    76    1
     8    23    21   ar
     9    23    24   ar
    10    25    27    1
    11    25    26    1
    12    25    21    1
    13    76    75    1
    14    84    80    1
    15    21    20   ar
    16    24    19   ar
    17    80    85    1
    18    80    83    1
    19    74    72    1
    20    75    83    1
    21    75    72    1
    22    75    87    1
    23    20    19   ar
    24    20    22    1
    25    19    16    1
    26    83    88    1
    27    83    86    1
    28    72    73    1
    29    72    47    1
    30    51    49    1
    31    88    89    1
    32    50    49    1
    33    17    16    2
    34    16    15   am
    35    49    47    1
    36    49    52    1
    37    47    48    1
    38    47    45    1
    39    56    55    2
    40    15    18    1
    41    15    13    1
    42    53    52    1
    43    52    55    1
    44    52    54    1
    45    45    46    1
    46    45    43   am
    47    55    57    1
    48    11    10    2
    49    44    43    2
    50    14    13    1
    51    43     1    1
    52    13    10    1
    53    13    29    1
    54    60    58    1
    55    10     9   am
    56    57    58    1
    57     8     7    1
    58     5     4    2
    59    58    59    1
    60    58    61    1
    61     2     1    1
    62    96    95    1
    63    30    29    1
    64     4     7    1
    65     4     3   am
    66     9     7    1
    67     9    12    1
    68     1     3    1
    69     1    90    1
    70     7    33    1
    71    29    32    1
    72    29    31    1
    73     3     6    1
    74    71    69    1
    75    95    98    1
    76    95    97    1
    77    95    93    1
    78    92    90    1
    79    61    69   ar
    80    61    62   ar
    81    38    35    1
    82    36    35    1
    83    90    93    1
    84    90    91    1
    85    69    67   ar
    86    33    35    1
    87    33    34    1
    88    33    39    1
    89   102    99    1
    90    35    37    1
    91    93    99    1
    92    93    94    1
    93   100    99    1
    94    64    62    1
    95    62    63   ar
    96    99   101    1
    97    41    39    1
    98    42    39    1
    99    39    40    1
   100    67    70    1
   101    67    65   ar
   102    63    65   ar
   103    63    66    1
   104    65    68    1
@<TRIPOS>MOLECULE
crystal_redock_e24_er3_1.pdbqt
 102 104 0 0 0
SMALL
GASTEIGER

@<TRIPOS>ATOM
      1 C          -6.5000   13.6920   68.2760 C.3     1  UNL11       0.0890
      2 H          -5.6840   13.6660   67.5530 H       1  UNL11       0.0870
      3 N          -6.8130   15.0900   68.5320 N.am    1  UNL11      -0.3460
      4 C          -6.0810   16.1830   67.7940 C.2     1  UNL11       0.2410
      5 O          -5.2410   15.9120   67.0000 O.2     1  UNL11      -0.2710
      6 H          -7.5290   15.3000   69.2140 H       1  UNL11       0.1630
      7 C          -6.4220   17.6240   68.0680 C.3     1  UNL11       0.0920
      8 H          -6.0410   18.2430   67.2560 H       1  UNL11       0.0880
      9 N          -7.8790   17.7860   68.0900 N.am    1  UNL11      -0.3460
     10 C          -8.6070   17.9260   66.8530 C.2     1  UNL11       0.2400
     11 O          -8.0360   17.9120   65.8310 O.2     1  UNL11      -0.2710
     12 H          -8.3850   17.8020   68.9640 H       1  UNL11       0.1630
     13 C         -10.1570   18.1020   66.8830 C.3     1  UNL11       0.0860
     14 H         -10.6640   17.5030   66.1270 H       1  UNL11       0.0860
     15 N         -10.6570   17.6540   68.1720 N.am    1  UNL11      -0.3430
     16 C         -11.1500   16.2830   68.3180 C.2     1  UNL11       0.2730
     17 O         -11.1430   15.5490   67.3910 O.2     1  UNL11      -0.2660
     18 H         -10.6620   18.2890   68.9580 H       1  UNL11       0.1630
     19 C         -11.6800   15.7950   69.6750 C.ar    1  UNL11       0.1540
     20 C         -12.3590   14.5650   69.9480 C.ar    1  UNL11      -0.0170
     21 C         -12.6310   14.5990   71.3340 C.ar    1  UNL11       0.0770
     22 H         -12.6140   13.7700   69.2470 H       1  UNL11       0.0910
     23 O         -12.1590   15.7210   71.7940 O.2     1  UNL11      -0.2180
     24 N         -11.6000   16.4360   70.8450 N.ar    1  UNL11      -0.1230
     25 C         -13.3440   13.5210   72.1390 C.3     1  UNL11      -0.0290
     26 H         -13.6210   12.6980   71.4800 H       1  UNL11       0.0360
     27 H         -12.6800   13.1530   72.9210 H       1  UNL11       0.0360
     28 H         -14.2430   13.9410   72.5930 H       1  UNL11       0.0360
     29 C         -10.5050   19.5530   66.6690 C.3     1  UNL11      -0.0490
     30 H         -10.1270   19.8790   65.7000 H       1  UNL11       0.0300
     31 H         -11.5880   19.6740   66.6970 H       1  UNL11       0.0300
     32 H         -10.0520   20.1550   67.4560 H       1  UNL11       0.0300
     33 C          -5.8350   18.0430   69.4480 C.3     1  UNL11      -0.0330
     34 H          -6.2780   17.3940   70.2040 H       1  UNL11       0.0420
     35 C          -4.2900   17.8320   69.4960 C.3     1  UNL11      -0.0710
     36 H          -3.7930   18.8000   69.5680 H       1  UNL11       0.0280
     37 H          -4.0320   17.2270   70.3650 H       1  UNL11       0.0280
     38 H          -3.9640   17.3230   68.5890 H       1  UNL11       0.0280
     39 C          -6.2170   19.5180   69.7940 C.3     1  UNL11      -0.0710
     40 H          -6.1370   20.1330   68.8980 H       1  UNL11       0.0280
     41 H          -7.2410   19.5500   70.1670 H       1  UNL11       0.0280
     42 H          -5.5390   19.8980   70.5580 H       1  UNL11       0.0280
     43 C          -7.7800   12.9880   67.7430 C.2     1  UNL11       0.2400
     44 O          -8.8370   13.2410   68.2230 O.2     1  UNL11      -0.2710
     45 N          -7.6890   12.0030   66.6270 N.am    1  UNL11      -0.3550
     46 H          -6.7970   11.7840   66.2080 H       1  UNL11       0.1620
     47 C          -8.9150   11.3430   66.1300 C.3     1  UNL11       0.0130
     48 H          -9.7410   12.0460   66.2360 H       1  UNL11       0.0720
     49 C          -9.1830   10.1030   66.9530 C.3     1  UNL11      -0.0380
     50 H          -8.6890    9.2870   66.4270 H       1  UNL11       0.0360
     51 H          -8.8850   10.3550   67.9710 H       1  UNL11       0.0360
     52 C         -10.6820    9.7380   67.0150 C.3     1  UNL11       0.0180
     53 H         -10.9500    9.4150   66.0080 H       1  UNL11       0.0480
     54 H         -10.7840    9.0470   67.8530 H       1  UNL11       0.0480
     55 C         -11.6080   10.9430   67.3390 C.2     1  UNL11       0.2590
     56 O         -11.7990   11.7920   66.5300 O.2     1  UNL11      -0.2650
     57 O         -12.2170   11.0280   68.6220 O.3     1  UNL11      -0.3170
     58 C         -11.2900   11.2040   69.6960 C.3     1  UNL11       0.0520
     59 H         -10.3010   11.0770   69.2560 H       1  UNL11       0.0820
     60 H         -11.5590   12.1500   70.1670 H       1  UNL11       0.0820
     61 C         -11.5220   10.0630   70.7220 C.ar    1  UNL11      -0.0340
     62 C         -10.4740    9.2200   71.0750 C.ar    1  UNL11      -0.0750
     63 C         -10.6820    8.1940   71.9960 C.ar    1  UNL11      -0.0820
     64 H          -9.4880    9.3630   70.6320 H       1  UNL11       0.0840
     65 C         -11.9470    8.0110   72.5620 C.ar    1  UNL11      -0.0830
     66 H          -9.8580    7.5370   72.2730 H       1  UNL11       0.0830
     67 C         -12.9910    8.8530   72.2040 C.ar    1  UNL11      -0.0820
     68 H         -12.1190    7.2120   73.2830 H       1  UNL11       0.0830
     69 C         -12.7870    9.8800   71.2850 C.ar    1  UNL11      -0.0750
     70 H         -13.9770    8.7060   72.6450 H       1  UNL11       0.0830
     71 H         -13.6120   10.5380   71.0100 H       1  UNL11       0.0840
     72 C          -8.7350   10.9530   64.6650 C.3     1  UNL11      -0.0390
     73 H          -9.7410   10.7680   64.2880 H       1  UNL11       0.0360
     74 H          -8.1260   11.7440   64.2270 H       1  UNL11       0.0360
     75 C          -7.9140    9.5860   64.5120 C.3     1  UNL11      -0.0010
     76 C          -6.4000    9.9010   63.9520 C.3     1  UNL11      -0.0350
     77 C          -6.1580    9.1090   62.8800 C.3     1  UNL11       0.0850
     78 H          -6.3560   10.9080   63.5400 H       1  UNL11       0.0360
     79 H          -5.6570    9.5770   64.6810 H       1  UNL11       0.0360
     80 N          -7.4820    8.5200   62.4580 N.4     1  UNL11      -0.0490
     81 H          -5.8010    9.7790   62.0970 H       1  UNL11       0.0750
     82 H          -5.5150    8.3100   63.2480 H       1  UNL11       0.0750
     83 C          -8.4960    8.7810   63.6870 C.3     1  UNL11       0.1930
     84 H          -7.7950    9.0580   61.6630 H       1  UNL11       0.2800
     85 H          -7.3370    7.5240   62.3680 H       1  UNL11       0.2800
     86 H          -8.7690    7.9690   64.3620 H       1  UNL11       0.1290
     87 H          -7.9940    8.9550   65.3980 H       1  UNL11       0.0460
     88 O          -9.7330    9.3070   63.2020 O.3     1  UNL11      -0.3690
     89 H          -9.9000    8.9690   62.3200 H       1  UNL11       0.2120
     90 C          -6.0590   13.0370   69.5750 C.3     1  UNL11      -0.0350
     91 H          -5.2060   13.6220   69.9190 H       1  UNL11       0.0370
     92 H          -6.9590   12.9740   70.1870 H       1  UNL11       0.0370
     93 C          -5.5450   11.5730   69.3950 C.3     1  UNL11      -0.0590
     94 H          -5.5070   11.3650   68.3250 H       1  UNL11       0.0380
     95 C          -4.1040   11.3790   69.9690 C.3     1  UNL11      -0.0730
     96 H          -4.1230   10.6140   70.7440 H       1  UNL11       0.0280
     97 H          -3.4330   11.0690   69.1670 H       1  UNL11       0.0280
     98 H          -3.7530   12.3200   70.3940 H       1  UNL11       0.0280
     99 C          -6.5190   10.5700   70.0190 C.3     1  UNL11      -0.0730
    100 H          -6.0170   10.0240   70.8180 H       1  UNL11       0.0280
    101 H          -7.3770   11.1050   70.4270 H       1  UNL11       0.0280
    102 H          -6.8570    9.8690   69.2560 H       1  UNL11       0.0280
@<TRIPOS>BOND
     1    84    80    1
     2    81    77    1
     3    89    88    1
     4    85    80    1
     5    80    77    1
     6    80    83    1
     7    77    82    1
     8    77    76    1
     9    88    83    1
    10    78    76    1
    11    83    86    1
    12    83    75    1
    13    76    75    1
    14    76    79    1
    15    74    72    1
    16    73    72    1
    17    75    72    1
    18    75    87    1
    19    72    47    1
    20    30    29    1
    21    11    10    2
    22    53    52    1
    23    14    13    1
    24    47    48    1
    25    47    45    1
    26    47    49    1
    27    46    45    1
    28    50    49    1
    29    56    55    2
    30    45    43   am
    31    29    31    1
    32    29    13    1
    33    29    32    1
    34    10    13    1
    35    10     9   am
    36    13    15    1
    37    49    52    1
    38    49    51    1
    39     5     4    2
    40    52    55    1
    41    52    54    1
    42     8     7    1
    43    55    57    1
    44    17    16    2
    45     2     1    1
    46    43    44    2
    47    43     1    1
    48     4     7    1
    49     4     3   am
    50     7     9    1
    51     7    33    1
    52     9    12    1
    53    15    16   am
    54    15    18    1
    55     1     3    1
    56     1    90    1
    57    16    19    1
    58    94    93    1
    59     3     6    1
    60    38    35    1
    61    57    58    1
    62    40    39    1
    63    97    95    1
    64    22    20    1
    65   102    99    1
    66    59    58    1
    67    93    90    1
    68    93    95    1
    69    93    99    1
    70    33    35    1
    71    33    39    1
    72    33    34    1
    73    35    36    1
    74    35    37    1
    75    90    91    1
    76    90    92    1
    77    19    20   ar
    78    19    24   ar
    79    58    60    1
    80    58    61    1
    81    39    41    1
    82    39    42    1
    83    20    21   ar
    84    95    98    1
    85    95    96    1
    86    99   101    1
    87    99   100    1
    88    64    62    1
    89    61    62   ar
    90    61    69   ar
    91    24    23   ar
    92    71    69    1
    93    62    63   ar
    94    69    67   ar
    95    21    23   ar
    96    21    25    1
    97    26    25    1
    98    63    66    1
    99    63    65   ar
   100    25    28    1
   101    25    27    1
   102    67    65   ar
   103    67    70    1
   104    65    68    1
@<TRIPOS>MOLECULE
crystal_redock_e24_er3_1.pdbqt
 102 104 0 0 0
SMALL
GASTEIGER

@<TRIPOS>ATOM
      1 C          -5.2900   13.8540   68.7720 C.3     1  UNL11       0.0890
      2 H          -4.3860   13.9630   68.1730 H       1  UNL11       0.0870
      3 N          -5.8800   15.1760   68.9190 N.am    1  UNL11      -0.3460
      4 C          -5.6150   16.2470   67.8910 C.2     1  UNL11       0.2410
      5 O          -4.9210   16.0220   66.9550 O.2     1  UNL11      -0.2710
      6 H          -6.4660   15.3490   69.7240 H       1  UNL11       0.1630
      7 C          -6.2390   17.6080   68.0560 C.3     1  UNL11       0.0920
      8 H          -5.9430   18.2420   67.2200 H       1  UNL11       0.0880
      9 N          -7.6990   17.4860   68.0110 N.am    1  UNL11      -0.3460
     10 C          -8.4080   17.7630   66.7860 C.2     1  UNL11       0.2400
     11 O          -7.8190   18.0860   65.8270 O.2     1  UNL11      -0.2710
     12 H          -8.2210   17.2100   68.8310 H       1  UNL11       0.1630
     13 C          -9.9620   17.6340   66.7450 C.3     1  UNL11       0.0860
     14 H         -10.3040   16.8660   66.0520 H       1  UNL11       0.0860
     15 N         -10.4380   17.2450   68.0630 N.am    1  UNL11      -0.3430
     16 C         -11.1950   16.0010   68.2180 C.2     1  UNL11       0.2730
     17 O         -11.4190   15.3220   67.2770 O.2     1  UNL11      -0.2660
     18 H         -10.2440   17.8320   68.8610 H       1  UNL11       0.1630
     19 C         -11.7020   15.5770   69.6050 C.ar    1  UNL11       0.1540
     20 C         -12.3590   14.3520   69.9490 C.ar    1  UNL11      -0.0170
     21 C         -12.6160   14.4540   71.3340 C.ar    1  UNL11       0.0770
     22 H         -12.6090   13.5180   69.2930 H       1  UNL11       0.0910
     23 O         -12.1560   15.6040   71.7300 O.2     1  UNL11      -0.2180
     24 N         -11.6190   16.2780   70.7390 N.ar    1  UNL11      -0.1230
     25 C         -13.3030   13.4080   72.2030 C.3     1  UNL11      -0.0290
     26 H         -13.4950   13.8260   73.1910 H       1  UNL11       0.0360
     27 H         -14.2470   13.1170   71.7420 H       1  UNL11       0.0360
     28 H         -12.6590   12.5330   72.2960 H       1  UNL11       0.0360
     29 C         -10.5690   18.9550   66.3470 C.3     1  UNL11      -0.0490
     30 H          -9.8770   19.4910   65.6970 H       1  UNL11       0.0300
     31 H         -11.5050   18.7800   65.8160 H       1  UNL11       0.0300
     32 H         -10.7630   19.5490   67.2390 H       1  UNL11       0.0300
     33 C          -5.8130   18.2110   69.4270 C.3     1  UNL11      -0.0330
     34 H          -6.2160   17.5660   70.2090 H       1  UNL11       0.0420
     35 C          -4.2610   18.2260   69.5840 C.3     1  UNL11      -0.0710
     36 H          -3.8460   19.0540   69.0090 H       1  UNL11       0.0280
     37 H          -4.0040   18.3500   70.6360 H       1  UNL11       0.0280
     38 H          -3.8500   17.2860   69.2180 H       1  UNL11       0.0280
     39 C          -6.4160   19.6400   69.6210 C.3     1  UNL11      -0.0710
     40 H          -6.7990   19.7370   70.6370 H       1  UNL11       0.0280
     41 H          -5.6410   20.3870   69.4520 H       1  UNL11       0.0280
     42 H          -7.2280   19.7910   68.9100 H       1  UNL11       0.0280
     43 C          -6.3330   12.9190   68.0960 C.2     1  UNL11       0.2400
     44 O          -6.2030   12.6160   66.9550 O.2     1  UNL11      -0.2710
     45 N          -7.4900   12.3930   68.8760 N.am    1  UNL11      -0.3550
     46 H          -7.6090   12.6390   69.8480 H       1  UNL11       0.1620
     47 C          -8.4720   11.5030   68.2190 C.3     1  UNL11       0.0130
     48 H          -7.9830   11.0360   67.3640 H       1  UNL11       0.0720
     49 C          -9.6550   12.3220   67.7540 C.3     1  UNL11      -0.0380
     50 H         -10.5390   11.7510   68.0390 H       1  UNL11       0.0360
     51 H          -9.4980   13.3220   68.1580 H       1  UNL11       0.0360
     52 C          -9.7110   12.4760   66.2180 C.3     1  UNL11       0.0180
     53 H          -9.6490   13.5470   66.0260 H       1  UNL11       0.0480
     54 H          -8.9440   11.8060   65.8270 H       1  UNL11       0.0480
     55 C         -11.0520   12.0050   65.5900 C.2     1  UNL11       0.2590
     56 O         -12.0760   12.1500   66.1750 O.2     1  UNL11      -0.2650
     57 O         -11.0420   11.3850   64.3090 O.3     1  UNL11      -0.3170
     58 C         -10.1050   11.9590   63.3930 C.3     1  UNL11       0.0520
     59 H         -10.6950   12.2900   62.5380 H       1  UNL11       0.0820
     60 H          -9.5310   12.6820   63.9710 H       1  UNL11       0.0820
     61 C          -9.1460   10.8340   62.9210 C.ar    1  UNL11      -0.0340
     62 C          -8.3440   11.0260   61.8010 C.ar    1  UNL11      -0.0750
     63 C          -7.4820   10.0150   61.3770 C.ar    1  UNL11      -0.0820
     64 H          -8.3910   11.9680   61.2550 H       1  UNL11       0.0840
     65 C          -7.4260    8.8070   62.0780 C.ar    1  UNL11      -0.0830
     66 H          -6.8530   10.1700   60.5000 H       1  UNL11       0.0830
     67 C          -8.2300    8.6190   63.1940 C.ar    1  UNL11      -0.0820
     68 H          -6.7540    8.0120   61.7540 H       1  UNL11       0.0830
     69 C          -9.0910    9.6270   63.6220 C.ar    1  UNL11      -0.0750
     70 H          -8.1850    7.6750   63.7370 H       1  UNL11       0.0830
     71 H          -9.7190    9.4720   64.5000 H       1  UNL11       0.0840
     72 C          -8.9450   10.4380   69.2060 C.3     1  UNL11      -0.0390
     73 H          -8.3830    9.5390   68.9540 H       1  UNL11       0.0360
     74 H          -8.8380   10.8890   70.1930 H       1  UNL11       0.0360
     75 C         -10.4980   10.0960   69.0100 C.3     1  UNL11      -0.0010
     76 C         -11.3500   10.5830   70.3290 C.3     1  UNL11      -0.0350
     77 C         -12.1080    9.5490   70.7650 C.3     1  UNL11       0.0850
     78 H         -10.6730   10.7720   71.1620 H       1  UNL11       0.0360
     79 H         -12.0860   11.3350   70.0430 H       1  UNL11       0.0360
     80 N         -11.6070    8.3080   70.0660 N.4     1  UNL11      -0.0490
     81 H         -11.9000    9.4640   71.8330 H       1  UNL11       0.0750
     82 H         -13.1200    9.7650   70.4230 H       1  UNL11       0.0750
     83 C         -10.6810    8.8280   68.8500 C.3     1  UNL11       0.1930
     84 H         -11.0220    7.8220   70.7310 H       1  UNL11       0.2800
     85 H         -12.4190    7.8510   69.6780 H       1  UNL11       0.2800
     86 H         -11.0510    8.8080   67.8250 H       1  UNL11       0.1290
     87 H         -10.8700   10.4120   68.0350 H       1  UNL11       0.0460
     88 O          -9.4490    8.1050   68.8250 O.3     1  UNL11      -0.3690
     89 H          -9.1350    7.9770   69.7230 H       1  UNL11       0.2120
     90 C          -4.9350   13.3140   70.1480 C.3     1  UNL11      -0.0350
     91 H          -5.4980   13.9260   70.8530 H       1  UNL11       0.0370
     92 H          -5.1170   12.2410   70.0930 H       1  UNL11       0.0370
     93 C          -3.4280   13.4880   70.5190 C.3     1  UNL11      -0.0590
     94 H          -3.1240   12.6100   71.0890 H       1  UNL11       0.0380
     95 C          -2.5150   13.5740   69.2540 C.3     1  UNL11      -0.0730
     96 H          -2.4820   14.6050   68.9000 H       1  UNL11       0.0280
     97 H          -1.5080   13.2450   69.5090 H       1  UNL11       0.0280
     98 H          -2.9190   12.9330   68.4700 H       1  UNL11       0.0280
     99 C          -3.2240   14.7070   71.4220 C.3     1  UNL11      -0.0730
    100 H          -4.1940   15.1270   71.6900 H       1  UNL11       0.0280
    101 H          -2.6960   14.4050   72.3270 H       1  UNL11       0.0280
    102 H          -2.6370   15.4570   70.8930 H       1  UNL11       0.0280
@<TRIPOS>BOND
     1    66    63    1
     2    64    62    1
     3    63    62   ar
     4    63    65   ar
     5    68    65    1
     6    62    61   ar
     7    65    67   ar
     8    59    58    1
     9    61    58    1
    10    61    69   ar
    11    67    69   ar
    12    67    70    1
    13    58    60    1
    14    58    57    1
    15    69    71    1
    16    57    55    1
    17    55    56    2
    18    55    52    1
    19    30    29    1
    20    31    29    1
    21    11    10    2
    22    54    52    1
    23    53    52    1
    24    14    13    1
    25    52    49    1
    26    29    13    1
    27    29    32    1
    28    13    10    1
    29    13    15    1
    30    10     9   am
    31    44    43    2
    32     5     4    2
    33     8     7    1
    34    17    16    2
    35    48    47    1
    36    49    50    1
    37    49    51    1
    38    49    47    1
    39    86    83    1
    40     4     7    1
    41     4     3   am
    42     9     7    1
    43     9    12    1
    44    87    75    1
    45     7    33    1
    46    15    16   am
    47    15    18    1
    48    43     1    1
    49    43    45   am
    50     2     1    1
    51    16    19    1
    52    47    45    1
    53    47    72    1
    54    98    95    1
    55     1     3    1
    56     1    90    1
    57    88    83    1
    58    88    89    1
    59    83    75    1
    60    83    80    1
    61    45    46    1
    62    96    95    1
    63    42    39    1
    64     3     6    1
    65    73    72    1
    66    36    35    1
    67    75    72    1
    68    75    76    1
    69    72    74    1
    70    38    35    1
    71    95    97    1
    72    95    93    1
    73    22    20    1
    74    33    35    1
    75    33    39    1
    76    33    34    1
    77    41    39    1
    78    35    37    1
    79    19    20   ar
    80    19    24   ar
    81    39    40    1
    82    85    80    1
    83    20    21   ar
    84    79    76    1
    85    80    84    1
    86    80    77    1
    87    92    90    1
    88    90    93    1
    89    90    91    1
    90    76    77    1
    91    76    78    1
    92    82    77    1
    93    93    94    1
    94    93    99    1
    95    24    23   ar
    96    77    81    1
    97   102    99    1
    98    21    23   ar
    99    21    25    1
   100    99   100    1
   101    99   101    1
   102    27    25    1
   103    25    28    1
   104    25    26    1
@<TRIPOS>MOLECULE
crystal_redock_e32_er3_1.pdbqt
 102 104 0 0 0
SMALL
GASTEIGER

@<TRIPOS>ATOM
      1 C         -11.9260   13.9940   69.6550 C.3     1  UNL11       0.0890
      2 H         -12.9080   13.5680   69.4490 H       1  UNL11       0.0870
      3 N         -10.9370   12.9560   69.4070 N.am    1  UNL11      -0.3460
      4 C         -11.3740   11.5540   69.0660 C.2     1  UNL11       0.2410
      5 O         -12.5280   11.2840   69.0010 O.2     1  UNL11      -0.2710
      6 H          -9.9600   13.2060   69.4690 H       1  UNL11       0.1630
      7 C         -10.3360   10.4930   68.8060 C.3     1  UNL11       0.0920
      8 H         -10.2550   10.3270   67.7320 H       1  UNL11       0.0880
      9 N          -9.0280   10.9630   69.2730 N.am    1  UNL11      -0.3460
     10 C          -7.8920   10.9270   68.3850 C.2     1  UNL11       0.2400
     11 O          -8.0120   10.5220   67.2940 O.2     1  UNL11      -0.2710
     12 H          -8.9090   11.3140   70.2120 H       1  UNL11       0.1630
     13 C          -6.5020   11.4270   68.8880 C.3     1  UNL11       0.0860
     14 H          -5.6870   11.1500   68.2190 H       1  UNL11       0.0860
     15 N          -6.5150   12.8790   68.9480 N.am    1  UNL11      -0.3430
     16 C          -5.6640   13.6460   68.0360 C.2     1  UNL11       0.2730
     17 O          -4.9700   13.0860   67.2600 O.2     1  UNL11      -0.2660
     18 H          -7.1100   13.3490   69.6150 H       1  UNL11       0.1630
     19 C          -5.6700   15.1820   68.0860 C.ar    1  UNL11       0.1540
     20 C          -5.8830   16.0080   69.2350 C.ar    1  UNL11      -0.0170
     21 C          -5.7890   17.3330   68.7520 C.ar    1  UNL11       0.0770
     22 H          -6.0760   15.6950   70.2610 H       1  UNL11       0.0910
     23 O          -5.5480   17.2640   67.4760 O.2     1  UNL11      -0.2180
     24 N          -5.4750   16.0190   67.0640 N.ar    1  UNL11      -0.1230
     25 C          -5.9400   18.6050   69.5750 C.3     1  UNL11      -0.0290
     26 H          -5.1320   18.6640   70.3050 H       1  UNL11       0.0360
     27 H          -5.8970   19.4720   68.9150 H       1  UNL11       0.0360
     28 H          -6.8990   18.5910   70.0940 H       1  UNL11       0.0360
     29 C          -6.2250   10.8560   70.2560 C.3     1  UNL11      -0.0490
     30 H          -7.1660   10.5870   70.7350 H       1  UNL11       0.0300
     31 H          -5.5990    9.9690   70.1600 H       1  UNL11       0.0300
     32 H          -5.7100   11.6010   70.8620 H       1  UNL11       0.0300
     33 C         -10.7200    9.1930   69.5730 C.3     1  UNL11      -0.0330
     34 H         -11.8020    9.1970   69.7050 H       1  UNL11       0.0420
     35 C         -10.3530    7.9190   68.7500 C.3     1  UNL11      -0.0710
     36 H          -9.3150    7.6470   68.9460 H       1  UNL11       0.0280
     37 H         -11.0050    7.0970   69.0440 H       1  UNL11       0.0280
     38 H         -10.4810    8.1230   67.6880 H       1  UNL11       0.0280
     39 C         -10.0610    9.1630   70.9890 C.3     1  UNL11      -0.0710
     40 H          -9.3490    9.9840   71.0760 H       1  UNL11       0.0280
     41 H         -10.8330    9.2690   71.7520 H       1  UNL11       0.0280
     42 H          -9.5410    8.2150   71.1270 H       1  UNL11       0.0280
     43 C         -11.6090   15.2100   68.7390 C.2     1  UNL11       0.2400
     44 O         -12.0660   16.2770   68.9930 O.2     1  UNL11      -0.2710
     45 N         -10.7260   15.0470   67.5480 N.am    1  UNL11      -0.3550
     46 H         -10.3280   14.1460   67.3250 H       1  UNL11       0.1620
     47 C         -10.4330   16.2130   66.6870 C.3     1  UNL11       0.0130
     48 H         -11.1820   16.9780   66.8930 H       1  UNL11       0.0720
     49 C         -10.5070   15.7940   65.2360 C.3     1  UNL11      -0.0380
     50 H         -11.0430   16.5940   64.7260 H       1  UNL11       0.0360
     51 H          -9.4830   15.5530   64.9480 H       1  UNL11       0.0360
     52 C         -11.3350   14.5080   65.0250 C.3     1  UNL11       0.0180
     53 H         -11.9480   14.4010   65.9200 H       1  UNL11       0.0480
     54 H         -11.8090   14.6190   64.0500 H       1  UNL11       0.0480
     55 C         -10.4750   13.2170   64.9380 C.2     1  UNL11       0.2590
     56 O          -9.9060   12.8050   65.8970 O.2     1  UNL11      -0.2650
     57 O         -10.3630   12.5360   63.6940 O.3     1  UNL11      -0.3170
     58 C         -10.5470   11.1210   63.7860 C.3     1  UNL11       0.0520
     59 H         -10.5620   10.8940   64.8520 H       1  UNL11       0.0820
     60 H         -11.4160   10.8950   63.1690 H       1  UNL11       0.0820
     61 C          -9.3060   10.4350   63.1550 C.ar    1  UNL11      -0.0340
     62 C          -8.6770   11.0080   62.0550 C.ar    1  UNL11      -0.0750
     63 C          -7.5620   10.3920   61.4880 C.ar    1  UNL11      -0.0820
     64 H          -9.0570   11.9410   61.6370 H       1  UNL11       0.0840
     65 C          -7.0780    9.1960   62.0250 C.ar    1  UNL11      -0.0830
     66 H          -7.0700   10.8450   60.6280 H       1  UNL11       0.0830
     67 C          -7.7110    8.6260   63.1210 C.ar    1  UNL11      -0.0820
     68 H          -6.2060    8.7080   61.5880 H       1  UNL11       0.0830
     69 C          -8.8240    9.2390   63.6920 C.ar    1  UNL11      -0.0750
     70 H          -7.3320    7.6910   63.5360 H       1  UNL11       0.0830
     71 H          -9.3150    8.7860   64.5530 H       1  UNL11       0.0840
     72 C          -9.0340   16.7430   66.9950 C.3     1  UNL11      -0.0390
     73 H          -8.7020   16.1920   67.8750 H       1  UNL11       0.0360
     74 H          -8.4810   16.6610   66.0600 H       1  UNL11       0.0360
     75 C          -9.0630   18.2950   67.3920 C.3     1  UNL11      -0.0010
     76 C         -10.5980   18.8740   67.2780 C.3     1  UNL11      -0.0350
     77 C         -10.5850   19.9990   66.5230 C.3     1  UNL11       0.0850
     78 H         -11.2150   18.1860   66.7000 H       1  UNL11       0.0360
     79 H         -10.9390   19.2250   68.2520 H       1  UNL11       0.0360
     80 N          -9.2390   20.0580   65.8420 N.4     1  UNL11      -0.0490
     81 H         -11.3590   19.8530   65.7680 H       1  UNL11       0.0750
     82 H         -10.6620   20.8240   67.2300 H       1  UNL11       0.0750
     83 C          -8.3040   18.9910   66.6130 C.3     1  UNL11       0.1930
     84 H          -9.3820   19.7360   64.8960 H       1  UNL11       0.2800
     85 H          -8.8740   20.9850   66.0100 H       1  UNL11       0.2800
     86 H          -7.5480   19.3280   67.3220 H       1  UNL11       0.1290
     87 H          -8.5260   18.4940   68.3190 H       1  UNL11       0.0460
     88 O          -7.6070   18.1750   65.6700 O.3     1  UNL11      -0.3690
     89 H          -8.2350   17.6230   65.1990 H       1  UNL11       0.2120
     90 C         -11.8440   14.4180   71.1130 C.3     1  UNL11      -0.0350
     91 H         -11.2870   13.6260   71.6130 H       1  UNL11       0.0370
     92 H         -11.4510   15.4340   71.0970 H       1  UNL11       0.0370
     93 C         -13.2340   14.4950   71.8220 C.3     1  UNL11      -0.0590
     94 H         -13.9540   14.8750   71.0980 H       1  UNL11       0.0380
     95 C         -13.7320   13.0920   72.2970 C.3     1  UNL11      -0.0730
     96 H         -13.3070   12.3200   71.6550 H       1  UNL11       0.0280
     97 H         -13.4150   12.9230   73.3260 H       1  UNL11       0.0280
     98 H         -14.8200   13.0540   72.2410 H       1  UNL11       0.0280
     99 C         -13.1980   15.4840   72.9900 C.3     1  UNL11      -0.0730
    100 H         -14.0720   16.1340   72.9420 H       1  UNL11       0.0280
    101 H         -13.2050   14.9340   73.9310 H       1  UNL11       0.0280
    102 H         -12.2930   16.0860   72.9280 H       1  UNL11       0.0280
@<TRIPOS>BOND
     1    66    63    1
     2    63    65   ar
     3    63    62   ar
     4    68    65    1
     5    64    62    1
     6    65    67   ar
     7    62    61   ar
     8    67    70    1
     9    67    69   ar
    10    61    69   ar
    11    61    58    1
    12    60    58    1
    13    69    71    1
    14    57    58    1
    15    57    55    1
    16    58    59    1
    17    54    52    1
    18    50    49    1
    19    84    80    1
    20    55    52    1
    21    55    56    2
    22    51    49    1
    23    52    49    1
    24    52    53    1
    25    89    88    1
    26    49    47    1
    27    88    83    1
    28    81    77    1
    29    80    85    1
    30    80    77    1
    31    80    83    1
    32    74    72    1
    33    77    82    1
    34    77    76    1
    35    83    86    1
    36    83    75    1
    37    47    48    1
    38    47    72    1
    39    47    45    1
    40    78    76    1
    41    72    75    1
    42    72    73    1
    43    24    23   ar
    44    24    19   ar
    45    17    16    2
    46    76    75    1
    47    76    79    1
    48    11    10    2
    49    46    45    1
    50    75    87    1
    51    23    21   ar
    52    45    43   am
    53    38    35    1
    54     8     7    1
    55    16    19    1
    56    16    15   am
    57    19    20   ar
    58    14    13    1
    59    10    13    1
    60    10     9   am
    61    43    44    2
    62    43     1    1
    63    35    36    1
    64    35    37    1
    65    35    33    1
    66    21    20   ar
    67    21    25    1
    68     7     4    1
    69     7     9    1
    70     7    33    1
    71    13    15    1
    72    13    29    1
    73    27    25    1
    74    15    18    1
    75     5     4    2
    76     4     3   am
    77    20    22    1
    78     9    12    1
    79     3     6    1
    80     3     1    1
    81     2     1    1
    82    33    34    1
    83    33    39    1
    84    25    28    1
    85    25    26    1
    86     1    90    1
    87    31    29    1
    88    29    30    1
    89    29    32    1
    90    39    40    1
    91    39    42    1
    92    39    41    1
    93    92    90    1
    94    94    93    1
    95    90    91    1
    96    90    93    1
    97    96    95    1
    98    93    95    1
    99    93    99    1
   100    98    95    1
   101    95    97    1
   102   102    99    1
   103   100    99    1
   104    99   101    1
@<TRIPOS>MOLECULE
crystal_redock_e32_er3_1.pdbqt
 102 104 0 0 0
SMALL
GASTEIGER

@<TRIPOS>ATOM
      1 C          -9.1130    6.9160   66.5530 C.3     1  UNL11       0.0890
      2 H          -9.5050    6.4160   65.6670 H       1  UNL11       0.0870
      3 N          -8.7040    8.2550   66.1550 N.am    1  UNL11      -0.3460
      4 C          -8.2500    8.5250   64.7420 C.2     1  UNL11       0.2410
      5 O          -8.2200    7.6470   63.9440 O.2     1  UNL11      -0.2710
      6 H          -8.7340    8.9870   66.8500 H       1  UNL11       0.1630
      7 C          -7.8360    9.9180   64.3460 C.3     1  UNL11       0.0920
      8 H          -7.7880    9.9820   63.2590 H       1  UNL11       0.0880
      9 N          -8.8510   10.8760   64.7940 N.am    1  UNL11      -0.3460
     10 C          -9.7810   11.4360   63.8440 C.2     1  UNL11       0.2400
     11 O          -9.7250   11.1280   62.7160 O.2     1  UNL11      -0.2710
     12 H          -8.9110   11.1520   65.7630 H       1  UNL11       0.1630
     13 C         -10.8570   12.4580   64.3250 C.3     1  UNL11       0.0860
     14 H         -11.3300   12.1620   65.2620 H       1  UNL11       0.0860
     15 N         -10.2160   13.7390   64.5700 N.am    1  UNL11      -0.3430
     16 C         -10.8300   14.6880   65.5010 C.2     1  UNL11       0.2730
     17 O         -11.8420   14.4120   66.0460 O.2     1  UNL11      -0.2660
     18 H          -9.3520   13.9670   64.0980 H       1  UNL11       0.1630
     19 C         -10.1620   16.0450   65.7700 C.ar    1  UNL11       0.1540
     20 C          -8.9840   16.2900   66.5450 C.ar    1  UNL11      -0.0170
     21 C          -8.7920   17.6880   66.4810 C.ar    1  UNL11       0.0770
     22 H          -8.3650   15.5650   67.0730 H       1  UNL11       0.0910
     23 O          -9.7510   18.1780   65.7510 O.2     1  UNL11      -0.2180
     24 N         -10.5630   17.2390   65.3250 N.ar    1  UNL11      -0.1230
     25 C          -7.6680   18.4750   67.1430 C.3     1  UNL11      -0.0290
     26 H          -7.4470   19.3630   66.5500 H       1  UNL11       0.0360
     27 H          -7.9760   18.7750   68.1450 H       1  UNL11       0.0360
     28 H          -6.7770   17.8510   67.2090 H       1  UNL11       0.0360
     29 C         -11.9220   12.6070   63.2680 C.3     1  UNL11      -0.0490
     30 H         -11.5520   13.2480   62.4680 H       1  UNL11       0.0300
     31 H         -12.1700   11.6260   62.8620 H       1  UNL11       0.0300
     32 H         -12.8120   13.0540   63.7090 H       1  UNL11       0.0300
     33 C          -6.4720   10.2620   65.0140 C.3     1  UNL11      -0.0330
     34 H          -5.9500   10.9570   64.3560 H       1  UNL11       0.0420
     35 C          -6.6750   10.9780   66.3850 C.3     1  UNL11      -0.0710
     36 H          -5.9720   11.8070   66.4700 H       1  UNL11       0.0280
     37 H          -7.6940   11.3590   66.4490 H       1  UNL11       0.0280
     38 H          -6.5000   10.2690   67.1940 H       1  UNL11       0.0280
     39 C          -5.5860    8.9850   65.1670 C.3     1  UNL11      -0.0710
     40 H          -6.1370    8.1150   64.8100 H       1  UNL11       0.0280
     41 H          -4.6740    9.1020   64.5810 H       1  UNL11       0.0280
     42 H          -5.3270    8.8460   66.2170 H       1  UNL11       0.0280
     43 C         -10.1790    7.0380   67.6790 C.2     1  UNL11       0.2400
     44 O         -11.2120    6.4590   67.5790 O.2     1  UNL11      -0.2710
     45 N          -9.9080    7.8700   68.8860 N.am    1  UNL11      -0.3550
     46 H          -9.0320    8.3620   68.9840 H       1  UNL11       0.1620
     47 C         -10.9320    7.9740   69.9480 C.3     1  UNL11       0.0130
     48 H         -11.8830    7.6400   69.5320 H       1  UNL11       0.0720
     49 C         -11.0420    9.4140   70.3960 C.3     1  UNL11      -0.0380
     50 H         -12.0880    9.6870   70.2570 H       1  UNL11       0.0360
     51 H         -10.5970    9.4470   71.3910 H       1  UNL11       0.0360
     52 C         -10.2170   10.3800   69.5180 C.3     1  UNL11       0.0180
     53 H          -9.9880   11.2350   70.1540 H       1  UNL11       0.0480
     54 H          -9.4090    9.7800   69.0990 H       1  UNL11       0.0480
     55 C         -11.0030   10.9470   68.3030 C.2     1  UNL11       0.2590
     56 O         -10.8560   10.4830   67.2190 O.2     1  UNL11      -0.2650
     57 O         -11.8950   12.0380   68.4980 O.3     1  UNL11      -0.3170
     58 C         -11.2840   13.1920   69.0810 C.3     1  UNL11       0.0520
     59 H         -10.3400   12.8450   69.5020 H       1  UNL11       0.0820
     60 H         -11.2860   13.9530   68.3020 H       1  UNL11       0.0820
     61 C         -12.1900   13.6780   70.2440 C.ar    1  UNL11      -0.0340
     62 C         -12.7150   12.7610   71.1480 C.ar    1  UNL11      -0.0750
     63 C         -13.5300   13.1970   72.1920 C.ar    1  UNL11      -0.0820
     64 H         -12.4890   11.7000   71.0390 H       1  UNL11       0.0840
     65 C         -13.8210   14.5570   72.3280 C.ar    1  UNL11      -0.0830
     66 H         -13.9380   12.4760   72.9000 H       1  UNL11       0.0830
     67 C         -13.2970   15.4690   71.4210 C.ar    1  UNL11      -0.0820
     68 H         -14.4560   14.9070   73.1420 H       1  UNL11       0.0830
     69 C         -12.4810   15.0370   70.3780 C.ar    1  UNL11      -0.0750
     70 H         -13.5280   16.5290   71.5290 H       1  UNL11       0.0830
     71 H         -12.0720   15.7590   69.6700 H       1  UNL11       0.0840
     72 C         -10.5360    7.0990   71.1350 C.3     1  UNL11      -0.0390
     73 H         -11.4100    6.4820   71.3450 H       1  UNL11       0.0360
     74 H          -9.5940    6.6300   70.8490 H       1  UNL11       0.0360
     75 C         -10.2480    7.9740   72.4460 C.3     1  UNL11      -0.0010
     76 C          -8.6280    8.1830   72.6350 C.3     1  UNL11      -0.0350
     77 C          -8.2870    7.8310   73.8980 C.3     1  UNL11       0.0850
     78 H          -8.0840    7.4710   72.0160 H       1  UNL11       0.0360
     79 H          -8.3810    9.2440   72.5910 H       1  UNL11       0.0360
     80 N          -9.4660    7.0920   74.4840 N.4     1  UNL11      -0.0490
     81 H          -7.4510    7.1390   73.7920 H       1  UNL11       0.0750
     82 H          -8.1530    8.7690   74.4360 H       1  UNL11       0.0750
     83 C         -10.7120    7.3970   73.5040 C.3     1  UNL11       0.1930
     84 H          -9.2450    6.1080   74.4270 H       1  UNL11       0.2800
     85 H          -9.6520    7.5170   75.3820 H       1  UNL11       0.2800
     86 H         -11.4850    8.1080   73.7960 H       1  UNL11       0.1290
     87 H         -10.8730    8.8660   72.4930 H       1  UNL11       0.0460
     88 O         -11.4050    6.1850   73.1970 O.3     1  UNL11      -0.3690
     89 H         -11.3510    6.0160   72.2540 H       1  UNL11       0.2120
     90 C          -7.9010    6.1620   67.0760 C.3     1  UNL11      -0.0350
     91 H          -7.0560    6.8360   66.9310 H       1  UNL11       0.0370
     92 H          -8.1730    5.8400   68.0810 H       1  UNL11       0.0370
     93 C          -7.5730    4.8650   66.2700 C.3     1  UNL11      -0.0590
     94 H          -7.3460    4.0780   66.9880 H       1  UNL11       0.0380
     95 C          -8.7840    4.3870   65.4060 C.3     1  UNL11      -0.0730
     96 H          -8.4280    4.0680   64.4270 H       1  UNL11       0.0280
     97 H          -9.2780    3.5520   65.9030 H       1  UNL11       0.0280
     98 H          -9.4910    5.2080   65.2860 H       1  UNL11       0.0280
     99 C          -6.3280    5.0610   65.4010 C.3     1  UNL11      -0.0730
    100 H          -6.2520    4.2420   64.6850 H       1  UNL11       0.0280
    101 H          -6.4050    6.0070   64.8650 H       1  UNL11       0.0280
    102 H          -5.4420    5.0730   66.0340 H       1  UNL11       0.0280
@<TRIPOS>BOND
     1    30    29    1
     2    11    10    2
     3    31    29    1
     4     8     7    1
     5    29    32    1
     6    29    13    1
     7    10    13    1
     8    10     9   am
     9     5     4    2
    10    18    15    1
    11    13    15    1
    12    13    14    1
    13     7     4    1
    14     7     9    1
    15     7    33    1
    16    34    33    1
    17    96    95    1
    18    15    16   am
    19    41    39    1
    20   100    99    1
    21     4     3   am
    22     9    12    1
    23    40    39    1
    24   101    99    1
    25    33    39    1
    26    33    35    1
    27    39    42    1
    28    98    95    1
    29    24    23   ar
    30    24    19   ar
    31    99   102    1
    32    99    93    1
    33    95    97    1
    34    95    93    1
    35    16    19    1
    36    16    17    2
    37     2     1    1
    38    23    21   ar
    39    19    20   ar
    40     3     1    1
    41     3     6    1
    42    93    94    1
    43    93    90    1
    44    35    37    1
    45    35    36    1
    46    35    38    1
    47    21    20   ar
    48    21    25    1
    49    20    22    1
    50    26    25    1
    51     1    90    1
    52     1    43    1
    53    91    90    1
    54    90    92    1
    55    25    28    1
    56    25    27    1
    57    56    55    2
    58    44    43    2
    59    43    45   am
    60    60    58    1
    61    55    57    1
    62    55    52    1
    63    57    58    1
    64    45    46    1
    65    45    47    1
    66    58    59    1
    67    58    61    1
    68    54    52    1
    69    52    53    1
    70    52    49    1
    71    48    47    1
    72    71    69    1
    73    47    49    1
    74    47    72    1
    75    61    69   ar
    76    61    62   ar
    77    50    49    1
    78    69    67   ar
    79    49    51    1
    80    74    72    1
    81    64    62    1
    82    72    73    1
    83    72    75    1
    84    62    63   ar
    85    67    70    1
    86    67    65   ar
    87    78    76    1
    88    63    65   ar
    89    63    66    1
    90    89    88    1
    91    65    68    1
    92    75    87    1
    93    75    76    1
    94    75    83    1
    95    79    76    1
    96    76    77    1
    97    88    83    1
    98    83    86    1
    99    83    80    1
   100    81    77    1
   101    77    82    1
   102    77    80    1
   103    84    80    1
   104    80    85    1
@<TRIPOS>MOLECULE
crystal_redock_e32_er3_1.pdbqt
 102 104 0 0 0
SMALL
GASTEIGER

@<TRIPOS>ATOM
      1 C         -12.1970   13.8200   69.5080 C.3     1  UNL11       0.0890
      2 H         -13.1300   13.5700   69.0040 H       1  UNL11       0.0870
      3 N         -11.6880   12.6010   70.1190 N.am    1  UNL11      -0.3460
      4 C         -11.7680   11.2890   69.3820 C.2     1  UNL11       0.2410
      5 O         -12.2480   11.2380   68.2970 O.2     1  UNL11      -0.2710
      6 H         -11.2860   12.6660   71.0440 H       1  UNL11       0.1630
      7 C         -11.2320   10.0380   70.0270 C.3     1  UNL11       0.0920
      8 H         -11.3660    9.1970   69.3460 H       1  UNL11       0.0880
      9 N          -9.7920   10.1850   70.2560 N.am    1  UNL11      -0.3460
     10 C          -8.8530    9.4910   69.4090 C.2     1  UNL11       0.2400
     11 O          -9.2400    8.8100   68.5390 O.2     1  UNL11      -0.2710
     12 H          -9.4430   10.7670   71.0040 H       1  UNL11       0.1630
     13 C          -7.3210    9.6480   69.6600 C.3     1  UNL11       0.0860
     14 H          -6.7170    9.1090   68.9310 H       1  UNL11       0.0860
     15 N          -6.9650   11.0520   69.5370 N.am    1  UNL11      -0.3430
     16 C          -5.9160   11.4510   68.5960 C.2     1  UNL11       0.2730
     17 O          -5.3620   10.6340   67.9450 O.2     1  UNL11      -0.2660
     18 H          -7.4410   11.7430   70.0990 H       1  UNL11       0.1630
     19 C          -5.5310   12.9310   68.4540 C.ar    1  UNL11       0.1540
     20 C          -5.0420   13.8000   69.4810 C.ar    1  UNL11      -0.0170
     21 C          -4.8410   15.0430   68.8410 C.ar    1  UNL11       0.0770
     22 H          -4.8610   13.5640   70.5300 H       1  UNL11       0.0910
     23 O          -5.1770   14.8950   67.5930 O.2     1  UNL11      -0.2180
     24 N          -5.5830   13.6710   67.3430 N.ar    1  UNL11      -0.1230
     25 C          -4.3260   16.3200   69.4930 C.3     1  UNL11      -0.0290
     26 H          -5.0780   17.1040   69.4000 H       1  UNL11       0.0360
     27 H          -4.1230   16.1330   70.5470 H       1  UNL11       0.0360
     28 H          -3.4080   16.6360   68.9970 H       1  UNL11       0.0360
     29 C          -6.9810    9.1480   71.0410 C.3     1  UNL11      -0.0490
     30 H          -6.2860    8.3120   70.9640 H       1  UNL11       0.0300
     31 H          -6.5200    9.9520   71.6150 H       1  UNL11       0.0300
     32 H          -7.8910    8.8190   71.5410 H       1  UNL11       0.0300
     33 C         -11.9500    9.8090   71.3890 C.3     1  UNL11      -0.0330
     34 H         -11.7740   10.6900   72.0060 H       1  UNL11       0.0420
     35 C         -13.4930    9.6680   71.2010 C.3     1  UNL11      -0.0710
     36 H         -14.0050   10.3640   71.8670 H       1  UNL11       0.0280
     37 H         -13.7550    9.8960   70.1680 H       1  UNL11       0.0280
     38 H         -13.7960    8.6490   71.4380 H       1  UNL11       0.0280
     39 C         -11.3560    8.5700   72.1340 C.3     1  UNL11      -0.0710
     40 H         -12.1670    7.9420   72.4990 H       1  UNL11       0.0280
     41 H         -10.7330    7.9970   71.4460 H       1  UNL11       0.0280
     42 H         -10.7510    8.9090   72.9750 H       1  UNL11       0.0280
     43 C         -11.1240   14.3640   68.5220 C.2     1  UNL11       0.2400
     44 O         -10.0470   14.6650   68.9260 O.2     1  UNL11      -0.2710
     45 N         -11.4350   14.5010   67.0700 N.am    1  UNL11      -0.3550
     46 H         -12.3440   14.2440   66.7140 H       1  UNL11       0.1620
     47 C         -10.4040   15.0190   66.1450 C.3     1  UNL11       0.0130
     48 H          -9.4310   14.8800   66.6160 H       1  UNL11       0.0720
     49 C         -10.6500   16.4890   65.8940 C.3     1  UNL11      -0.0380
     50 H         -10.4440   16.6460   64.8350 H       1  UNL11       0.0360
     51 H         -11.6450   16.6930   66.2920 H       1  UNL11       0.0360
     52 C          -9.6740   17.4020   66.6680 C.3     1  UNL11       0.0180
     53 H          -9.8170   17.1600   67.7220 H       1  UNL11       0.0480
     54 H          -8.7000   17.2540   66.2020 H       1  UNL11       0.0480
     55 C          -9.9900   18.9170   66.5300 C.2     1  UNL11       0.2590
     56 O         -10.7090   19.3070   65.6680 O.2     1  UNL11      -0.2650
     57 O          -9.3990   19.8380   67.4380 O.3     1  UNL11      -0.3170
     58 C          -8.6960   19.2190   68.5200 C.3     1  UNL11       0.0520
     59 H          -9.2170   19.5270   69.4260 H       1  UNL11       0.0820
     60 H          -8.6300   18.1620   68.2620 H       1  UNL11       0.0820
     61 C          -7.2590   19.8050   68.5550 C.ar    1  UNL11      -0.0340
     62 C          -6.8360   20.6730   67.5540 C.ar    1  UNL11      -0.0750
     63 C          -5.5460   21.2000   67.5850 C.ar    1  UNL11      -0.0820
     64 H          -7.5160   20.9410   66.7440 H       1  UNL11       0.0840
     65 C          -4.6760   20.8540   68.6230 C.ar    1  UNL11      -0.0830
     66 H          -5.2190   21.8820   66.8000 H       1  UNL11       0.0830
     67 C          -5.1020   19.9850   69.6180 C.ar    1  UNL11      -0.0820
     68 H          -3.6660   21.2620   68.6550 H       1  UNL11       0.0830
     69 C          -6.3910   19.4570   69.5920 C.ar    1  UNL11      -0.0750
     70 H          -4.4200   19.7150   70.4250 H       1  UNL11       0.0830
     71 H          -6.7180   18.7760   70.3780 H       1  UNL11       0.0840
     72 C         -10.4670   14.2580   64.8230 C.3     1  UNL11      -0.0390
     73 H         -11.1060   14.8570   64.1730 H       1  UNL11       0.0360
     74 H          -9.4300   14.0710   64.5450 H       1  UNL11       0.0360
     75 C         -11.1750   12.8310   64.9940 C.3     1  UNL11      -0.0010
     76 C         -10.0410   11.6390   64.9840 C.3     1  UNL11      -0.0350
     77 C         -10.4050   10.6980   64.0800 C.3     1  UNL11       0.0850
     78 H          -9.1010   12.0220   64.5890 H       1  UNL11       0.0360
     79 H         -10.0560   11.1010   65.9320 H       1  UNL11       0.0360
     80 N         -11.5080   11.2960   63.2400 N.4     1  UNL11      -0.0490
     81 H          -9.5270   10.5410   63.4530 H       1  UNL11       0.0750
     82 H         -10.8120    9.8740   64.6650 H       1  UNL11       0.0750
     83 C         -12.0130   12.6060   64.0370 C.3     1  UNL11       0.1930
     84 H         -11.0810   11.5910   62.3740 H       1  UNL11       0.2800
     85 H         -12.2580   10.6190   63.2280 H       1  UNL11       0.2800
     86 H         -12.9500   12.5890   64.5940 H       1  UNL11       0.1290
     87 H         -11.8960   12.8220   65.8110 H       1  UNL11       0.0460
     88 O         -12.1200   13.7160   63.1430 O.3     1  UNL11      -0.3690
     89 H         -11.6860   14.4800   63.5290 H       1  UNL11       0.2120
     90 C         -12.4590   14.8490   70.5960 C.3     1  UNL11      -0.0350
     91 H         -11.4930   15.0180   71.0730 H       1  UNL11       0.0370
     92 H         -12.9720   15.6720   70.0980 H       1  UNL11       0.0370
     93 C         -13.4210   14.3430   71.7180 C.3     1  UNL11      -0.0590
     94 H         -13.5040   13.2610   71.6190 H       1  UNL11       0.0380
     95 C         -12.8730   14.6510   73.1480 C.3     1  UNL11      -0.0730
     96 H         -12.2310   13.8330   73.4740 H       1  UNL11       0.0280
     97 H         -12.2980   15.5770   73.1250 H       1  UNL11       0.0280
     98 H         -13.7070   14.7570   73.8410 H       1  UNL11       0.0280
     99 C         -14.8260   14.9250   71.5360 C.3     1  UNL11      -0.0730
    100 H         -15.3590   14.3580   70.7730 H       1  UNL11       0.0280
    101 H         -15.3680   14.8650   72.4800 H       1  UNL11       0.0280
    102 H         -14.7500   15.9680   71.2270 H       1  UNL11       0.0280
@<TRIPOS>BOND
     1    84    80    1
     2    88    89    1
     3    88    83    1
     4    85    80    1
     5    80    83    1
     6    80    77    1
     7    81    77    1
     8    83    86    1
     9    83    75    1
    10    77    82    1
    11    77    76    1
    12    73    72    1
    13    74    72    1
    14    78    76    1
    15    72    75    1
    16    72    47    1
    17    50    49    1
    18    76    75    1
    19    76    79    1
    20    75    87    1
    21    56    55    2
    22    49    47    1
    23    49    51    1
    24    49    52    1
    25    47    48    1
    26    47    45    1
    27    54    52    1
    28    55    52    1
    29    55    57    1
    30    52    53    1
    31    46    45    1
    32    64    62    1
    33    66    63    1
    34    45    43   am
    35    24    23   ar
    36    24    19   ar
    37    57    58    1
    38    62    63   ar
    39    62    61   ar
    40    63    65   ar
    41    23    21   ar
    42    17    16    2
    43    60    58    1
    44     5     4    2
    45    19    16    1
    46    19    20   ar
    47    58    61    1
    48    58    59    1
    49    43    44    2
    50    43     1    1
    51    11    10    2
    52    61    69   ar
    53    16    15   am
    54    65    68    1
    55    65    67   ar
    56    21    20   ar
    57    21    25    1
    58    14    13    1
    59    28    25    1
    60     2     1    1
    61     8     7    1
    62     4     7    1
    63     4     3   am
    64    26    25    1
    65    10    13    1
    66    10     9   am
    67    20    22    1
    68    25    27    1
    69     1     3    1
    70     1    90    1
    71    15    13    1
    72    15    18    1
    73    69    67   ar
    74    69    71    1
    75    67    70    1
    76    13    29    1
    77     7     9    1
    78     7    33    1
    79    92    90    1
    80     3     6    1
    81    37    35    1
    82     9    12    1
    83    90    91    1
    84    90    93    1
    85   100    99    1
    86    30    29    1
    87    29    32    1
    88    29    31    1
    89    35    33    1
    90    35    38    1
    91    35    36    1
    92   102    99    1
    93    33    34    1
    94    33    39    1
    95    41    39    1
    96    99    93    1
    97    99   101    1
    98    94    93    1
    99    93    95    1
   100    39    40    1
   101    39    42    1
   102    97    95    1
   103    95    96    1
   104    95    98    1
@<TRIPOS>MOLECULE
crystal_redock_e32_er3_1.pdbqt
 102 104 0 0 0
SMALL
GASTEIGER

@<TRIPOS>ATOM
      1 C          -8.3690    9.1920   65.7100 C.3     1  UNL11       0.0890
      2 H          -8.2970    9.1030   64.6260 H       1  UNL11       0.0870
      3 N          -9.5340   10.0120   66.0070 N.am    1  UNL11      -0.3460
      4 C         -10.0470   11.0020   64.9920 C.2     1  UNL11       0.2410
      5 O          -9.5030   11.1240   63.9440 O.2     1  UNL11      -0.2710
      6 H          -9.9810    9.8950   66.9050 H       1  UNL11       0.1630
      7 C         -11.2570   11.8380   65.3140 C.3     1  UNL11       0.0920
      8 H         -12.0970   11.1810   65.5410 H       1  UNL11       0.0880
      9 N         -10.9950   12.6380   66.5140 N.am    1  UNL11      -0.3460
     10 C         -11.4460   12.1720   67.8030 C.2     1  UNL11       0.2400
     11 O         -12.0230   11.1580   67.8910 O.2     1  UNL11      -0.2710
     12 H         -10.4990   13.5160   66.4530 H       1  UNL11       0.1630
     13 C         -11.1660   13.0290   69.0760 C.3     1  UNL11       0.0860
     14 H         -10.1500   12.9090   69.4500 H       1  UNL11       0.0860
     15 N         -11.3240   14.4350   68.7430 N.am    1  UNL11      -0.3430
     16 C         -10.1500   15.2200   68.3530 C.2     1  UNL11       0.2730
     17 O          -9.0840   14.7120   68.3140 O.2     1  UNL11      -0.2660
     18 H         -12.2390   14.8620   68.7810 H       1  UNL11       0.1630
     19 C         -10.3030   16.7070   67.9960 C.ar    1  UNL11       0.1540
     20 C         -10.2380   17.2940   66.6930 C.ar    1  UNL11      -0.0170
     21 C         -10.4380   18.6760   66.9070 C.ar    1  UNL11       0.0770
     22 H         -10.0710   16.7950   65.7390 H       1  UNL11       0.0910
     23 O         -10.6000   18.8510   68.1860 O.2     1  UNL11      -0.2180
     24 N         -10.5240   17.7160   68.8430 N.ar    1  UNL11      -0.1230
     25 C         -10.4620   19.7600   65.8370 C.3     1  UNL11      -0.0290
     26 H         -11.4450   20.2300   65.8180 H       1  UNL11       0.0360
     27 H          -9.7050   20.5110   66.0640 H       1  UNL11       0.0360
     28 H         -10.2520   19.3150   64.8640 H       1  UNL11       0.0360
     29 C         -12.1350   12.6450   70.1660 C.3     1  UNL11      -0.0490
     30 H         -13.0960   12.3850   69.7230 H       1  UNL11       0.0300
     31 H         -11.7430   11.7890   70.7150 H       1  UNL11       0.0300
     32 H         -12.2660   13.4850   70.8480 H       1  UNL11       0.0300
     33 C         -11.5640   12.7880   64.1190 C.3     1  UNL11      -0.0330
     34 H         -10.6450   12.8990   63.5430 H       1  UNL11       0.0420
     35 C         -12.6420   12.1770   63.1690 C.3     1  UNL11      -0.0710
     36 H         -13.6350   12.3810   63.5690 H       1  UNL11       0.0280
     37 H         -12.5490   12.6240   62.1800 H       1  UNL11       0.0280
     38 H         -12.4930   11.1000   63.0970 H       1  UNL11       0.0280
     39 C         -11.9920   14.2030   64.6240 C.3     1  UNL11      -0.0710
     40 H         -11.1170   14.7360   64.9960 H       1  UNL11       0.0280
     41 H         -12.4350   14.7640   63.8010 H       1  UNL11       0.0280
     42 H         -12.7210   14.0970   65.4260 H       1  UNL11       0.0280
     43 C          -8.5460    7.8100   66.4020 C.2     1  UNL11       0.2400
     44 O          -7.6050    7.2610   66.8770 O.2     1  UNL11      -0.2710
     45 N          -9.8930    7.1740   66.4810 N.am    1  UNL11      -0.3550
     46 H         -10.7010    7.6330   66.0870 H       1  UNL11       0.1620
     47 C         -10.0450    5.8610   67.1440 C.3     1  UNL11       0.0130
     48 H          -9.0570    5.5280   67.4600 H       1  UNL11       0.0720
     49 C         -10.6340    4.8720   66.1630 C.3     1  UNL11      -0.0380
     50 H         -11.1080    4.1010   66.7710 H       1  UNL11       0.0360
     51 H         -11.2310    5.4650   65.4710 H       1  UNL11       0.0360
     52 C          -9.5600    4.1590   65.3130 C.3     1  UNL11       0.0180
     53 H          -8.6250    4.6810   65.5200 H       1  UNL11       0.0480
     54 H          -9.6550    3.0980   65.5470 H       1  UNL11       0.0480
     55 C          -9.7900    4.2830   63.7820 C.2     1  UNL11       0.2590
     56 O         -10.7080    3.7360   63.2630 O.2     1  UNL11      -0.2650
     57 O          -8.8800    5.0480   63.0000 O.3     1  UNL11      -0.3170
     58 C          -7.6770    5.4020   63.6870 C.3     1  UNL11       0.0520
     59 H          -7.9560    5.5070   64.7360 H       1  UNL11       0.0820
     60 H          -6.9390    4.6560   63.3920 H       1  UNL11       0.0820
     61 C          -7.2130    6.7860   63.1610 C.ar    1  UNL11      -0.0340
     62 C          -5.8970    7.1960   63.3440 C.ar    1  UNL11      -0.0750
     63 C          -5.4810    8.4400   62.8710 C.ar    1  UNL11      -0.0820
     64 H          -5.1910    6.5440   63.8580 H       1  UNL11       0.0840
     65 C          -6.3880    9.2760   62.2150 C.ar    1  UNL11      -0.0830
     66 H          -4.4480    8.7580   63.0140 H       1  UNL11       0.0830
     67 C          -7.7010    8.8640   62.0370 C.ar    1  UNL11      -0.0820
     68 H          -6.0710   10.2500   61.8410 H       1  UNL11       0.0830
     69 C          -8.1210    7.6210   62.5060 C.ar    1  UNL11      -0.0750
     70 H          -8.4070    9.5200   61.5260 H       1  UNL11       0.0830
     71 H          -9.1540    7.3040   62.3620 H       1  UNL11       0.0840
     72 C         -10.9710    5.9960   68.3510 C.3     1  UNL11      -0.0390
     73 H         -11.6640    6.7980   68.0960 H       1  UNL11       0.0360
     74 H         -11.3480    4.9910   68.5410 H       1  UNL11       0.0360
     75 C         -10.1740    6.4570   69.6610 C.3     1  UNL11      -0.0010
     76 C         -10.6190    5.5290   70.9440 C.3     1  UNL11      -0.0350
     77 C         -10.9650    6.3420   71.9710 C.3     1  UNL11       0.0850
     78 H         -11.5430    4.9970   70.7170 H       1  UNL11       0.0360
     79 H          -9.7570    4.9850   71.3290 H       1  UNL11       0.0360
     80 N         -11.1110    7.7330   71.4040 N.4     1  UNL11      -0.0490
     81 H         -11.9420    5.9900   72.3040 H       1  UNL11       0.0750
     82 H         -10.1170    6.3240   72.6550 H       1  UNL11       0.0750
     83 C         -10.4180    7.6930   69.9460 C.3     1  UNL11       0.1930
     84 H         -12.1010    7.8920   71.2850 H       1  UNL11       0.2800
     85 H         -10.5690    8.3430   72.0000 H       1  UNL11       0.2800
     86 H          -9.4320    8.1310   69.7890 H       1  UNL11       0.1290
     87 H          -9.1050    6.5680   69.4770 H       1  UNL11       0.0460
     88 O         -11.2690    8.3110   68.9790 O.3     1  UNL11      -0.3690
     89 H         -11.4420    9.2180   69.2390 H       1  UNL11       0.2120
     90 C          -7.1270    9.8800   66.2540 C.3     1  UNL11      -0.0350
     91 H          -6.4920    9.0760   66.6280 H       1  UNL11       0.0370
     92 H          -6.7740   10.5200   65.4450 H       1  UNL11       0.0370
     93 C          -7.4120   10.8190   67.4690 C.3     1  UNL11      -0.0590
     94 H          -8.4920   10.9390   67.5480 H       1  UNL11       0.0380
     95 C          -6.9000   10.2130   68.8150 C.3     1  UNL11      -0.0730
     96 H          -7.7500    9.8800   69.4090 H       1  UNL11       0.0280
     97 H          -6.2470    9.3640   68.6060 H       1  UNL11       0.0280
     98 H          -6.3440   10.9710   69.3670 H       1  UNL11       0.0280
     99 C          -6.8150   12.2090   67.2370 C.3     1  UNL11      -0.0730
    100 H          -7.2040   12.6210   66.3050 H       1  UNL11       0.0280
    101 H          -7.0880   12.8640   68.0650 H       1  UNL11       0.0280
    102 H          -5.7300   12.1340   67.1750 H       1  UNL11       0.0280
@<TRIPOS>BOND
     1    70    67    1
     2    68    65    1
     3    67    65   ar
     4    67    69   ar
     5    37    35    1
     6    65    63   ar
     7    71    69    1
     8    69    61   ar
     9    63    66    1
    10    63    62   ar
    11    57    58    1
    12    57    55    1
    13    38    35    1
    14    61    62   ar
    15    61    58    1
    16    35    36    1
    17    35    33    1
    18    56    55    2
    19    62    64    1
    20    60    58    1
    21    34    33    1
    22    58    59    1
    23    55    52    1
    24    41    39    1
    25     5     4    2
    26    33    39    1
    27    33     7    1
    28    39    40    1
    29    39    42    1
    30     2     1    1
    31    28    25    1
    32     4     7    1
    33     4     3   am
    34    52    53    1
    35    52    54    1
    36    52    49    1
    37     7     8    1
    38     7     9    1
    39    92    90    1
    40    51    49    1
    41     1     3    1
    42     1    90    1
    43     1    43    1
    44    22    20    1
    45    26    25    1
    46    25    27    1
    47    25    21    1
    48     3     6    1
    49    46    45    1
    50    49    50    1
    51    49    47    1
    52    90    91    1
    53    90    93    1
    54   100    99    1
    55    43    45   am
    56    43    44    2
    57    12     9    1
    58    45    47    1
    59     9    10   am
    60    20    21   ar
    61    20    19   ar
    62    21    23   ar
    63    47    48    1
    64    47    72    1
    65   102    99    1
    66    99    93    1
    67    99   101    1
    68    93    94    1
    69    93    95    1
    70    10    11    2
    71    10    13    1
    72    19    16    1
    73    19    24   ar
    74    73    72    1
    75    23    24   ar
    76    17    16    2
    77    72    74    1
    78    72    75    1
    79    16    15   am
    80    97    95    1
    81    15    18    1
    82    15    13    1
    83    95    98    1
    84    95    96    1
    85    88    89    1
    86    88    83    1
    87    13    14    1
    88    13    29    1
    89    87    75    1
    90    75    83    1
    91    75    76    1
    92    30    29    1
    93    86    83    1
    94    83    80    1
    95    29    31    1
    96    29    32    1
    97    78    76    1
    98    76    79    1
    99    76    77    1
   100    84    80    1
   101    80    77    1
   102    80    85    1
   103    77    81    1
   104    77    82    1
@<TRIPOS>MOLECULE
crystal_redock_e32_er3_1.pdbqt
 102 104 0 0 0
SMALL
GASTEIGER

@<TRIPOS>ATOM
      1 C         -11.7760   13.5650   69.6170 C.3     1  UNL11       0.0890
      2 H         -12.7320   13.5430   69.0930 H       1  UNL11       0.0870
      3 N         -11.5480   12.2370   70.1690 N.am    1  UNL11      -0.3460
      4 C         -11.8420   11.0090   69.3450 C.2     1  UNL11       0.2410
      5 O         -12.2640   11.1140   68.2400 O.2     1  UNL11      -0.2710
      6 H         -11.1910   12.1700   71.1110 H       1  UNL11       0.1630
      7 C         -11.5950    9.6430   69.9300 C.3     1  UNL11       0.0920
      8 H         -12.2770    8.9280   69.4710 H       1  UNL11       0.0880
      9 N         -10.2320    9.2120   69.6070 N.am    1  UNL11      -0.3460
     10 C         -10.0210    8.0390   68.7940 C.2     1  UNL11       0.2400
     11 O         -10.9370    7.4300   68.3930 O.2     1  UNL11      -0.2710
     12 H          -9.4320    9.7260   69.9470 H       1  UNL11       0.1630
     13 C          -8.5680    7.5830   68.4560 C.3     1  UNL11       0.0860
     14 H          -8.3780    6.5450   68.7270 H       1  UNL11       0.0860
     15 N          -8.3650    7.6820   67.0200 N.am    1  UNL11      -0.3430
     16 C          -8.5680    8.9680   66.3490 C.2     1  UNL11       0.2730
     17 O          -8.8970    9.9160   66.9730 O.2     1  UNL11      -0.2660
     18 H          -8.0860    6.8650   66.4940 H       1  UNL11       0.1630
     19 C          -8.3550    9.0870   64.8320 C.ar    1  UNL11       0.1540
     20 C          -8.2670   10.2900   64.0630 C.ar    1  UNL11      -0.0170
     21 C          -8.0710    9.8580   62.7320 C.ar    1  UNL11       0.0770
     22 H          -8.3350   11.3200   64.4160 H       1  UNL11       0.0910
     23 O          -8.0490    8.5580   62.7470 O.2     1  UNL11      -0.2180
     24 N          -8.2130    8.0840   63.9610 N.ar    1  UNL11      -0.1230
     25 C          -7.9130   10.7510   61.5090 C.3     1  UNL11      -0.0290
     26 H          -6.8910   10.6820   61.1370 H       1  UNL11       0.0360
     27 H          -8.6050   10.4270   60.7310 H       1  UNL11       0.0360
     28 H          -8.1320   11.7840   61.7810 H       1  UNL11       0.0360
     29 C          -7.5810    8.4640   69.1790 C.3     1  UNL11      -0.0490
     30 H          -7.9730    9.4790   69.2350 H       1  UNL11       0.0300
     31 H          -7.4210    8.0800   70.1860 H       1  UNL11       0.0300
     32 H          -6.6350    8.4690   68.6370 H       1  UNL11       0.0300
     33 C         -11.7640    9.7040   71.4760 C.3     1  UNL11      -0.0330
     34 H         -11.2880   10.6210   71.8240 H       1  UNL11       0.0420
     35 C         -13.2690    9.7740   71.8810 C.3     1  UNL11      -0.0710
     36 H         -13.8720    9.2640   71.1290 H       1  UNL11       0.0280
     37 H         -13.4080    9.2890   72.8470 H       1  UNL11       0.0280
     38 H         -13.5790   10.8160   71.9500 H       1  UNL11       0.0280
     39 C         -11.0480    8.4980   72.1650 C.3     1  UNL11      -0.0710
     40 H         -11.7740    7.9240   72.7400 H       1  UNL11       0.0280
     41 H         -10.6000    7.8580   71.4040 H       1  UNL11       0.0280
     42 H         -10.2690    8.8700   72.8310 H       1  UNL11       0.0280
     43 C         -10.5950   13.9150   68.6670 C.2     1  UNL11       0.2400
     44 O          -9.6190   13.2360   68.6610 O.2     1  UNL11      -0.2710
     45 N         -10.6830   15.0940   67.7590 N.am    1  UNL11      -0.3550
     46 H         -11.5080   15.6760   67.7520 H       1  UNL11       0.1620
     47 C          -9.5520   15.4140   66.8610 C.3     1  UNL11       0.0130
     48 H          -8.7610   14.6860   67.0460 H       1  UNL11       0.0720
     49 C          -9.0510   16.8080   67.1640 C.3     1  UNL11      -0.0380
     50 H          -8.5740   16.7440   68.1430 H       1  UNL11       0.0360
     51 H          -8.4700   17.1080   66.2930 H       1  UNL11       0.0360
     52 C         -10.1940   17.8380   67.3020 C.3     1  UNL11       0.0180
     53 H         -11.1180   17.2590   67.2740 H       1  UNL11       0.0480
     54 H          -9.9500   18.4330   68.1830 H       1  UNL11       0.0480
     55 C         -10.2790   18.8400   66.1180 C.2     1  UNL11       0.2590
     56 O         -11.0210   18.6410   65.2120 O.2     1  UNL11      -0.2650
     57 O          -9.4500   19.9960   66.1230 O.3     1  UNL11      -0.3170
     58 C          -8.8060   20.2460   67.3750 C.3     1  UNL11       0.0520
     59 H          -9.2080   21.1960   67.7290 H       1  UNL11       0.0820
     60 H          -8.9480   19.3410   67.9660 H       1  UNL11       0.0820
     61 C          -7.2880   20.4240   67.1070 C.ar    1  UNL11      -0.0340
     62 C          -6.4270   20.7390   68.1530 C.ar    1  UNL11      -0.0750
     63 C          -5.0640   20.8990   67.9120 C.ar    1  UNL11      -0.0820
     64 H          -6.8210   20.8600   69.1620 H       1  UNL11       0.0840
     65 C          -4.5620   20.7450   66.6170 C.ar    1  UNL11      -0.0830
     66 H          -4.3920   21.1430   68.7340 H       1  UNL11       0.0830
     67 C          -5.4250   20.4340   65.5750 C.ar    1  UNL11      -0.0820
     68 H          -3.4970   20.8680   66.4190 H       1  UNL11       0.0830
     69 C          -6.7880   20.2710   65.8120 C.ar    1  UNL11      -0.0750
     70 H          -5.0300   20.3170   64.5650 H       1  UNL11       0.0830
     71 H          -7.4590   20.0250   64.9890 H       1  UNL11       0.0840
     72 C         -10.0100   15.3420   65.4060 C.3     1  UNL11      -0.0390
     73 H         -10.2760   16.3640   65.1350 H       1  UNL11       0.0360
     74 H          -9.2090   14.8280   64.8750 H       1  UNL11       0.0360
     75 C         -11.3320   14.4510   65.2450 C.3     1  UNL11      -0.0010
     76 C         -10.9250   12.9210   64.7980 C.3     1  UNL11      -0.0350
     77 C         -11.6540   12.5770   63.7090 C.3     1  UNL11       0.0850
     78 H          -9.8980   12.8990   64.4350 H       1  UNL11       0.0360
     79 H         -11.2500   12.2100   65.5580 H       1  UNL11       0.0360
     80 N         -12.2790   13.8440   63.1770 N.4     1  UNL11      -0.0490
     81 H         -10.9320   12.2040   62.9810 H       1  UNL11       0.0750
     82 H         -12.4400   11.9210   64.0810 H       1  UNL11       0.0750
     83 C         -12.1210   14.9430   64.3490 C.3     1  UNL11       0.1930
     84 H         -11.7170   14.1310   62.3890 H       1  UNL11       0.2800
     85 H         -13.2620   13.6470   63.0520 H       1  UNL11       0.2800
     86 H         -12.9750   15.2190   64.9680 H       1  UNL11       0.1290
     87 H         -12.0070   14.5560   66.0950 H       1  UNL11       0.0460
     88 O         -11.6260   16.1700   63.8110 O.3     1  UNL11      -0.3690
     89 H         -11.7030   16.1530   62.8540 H       1  UNL11       0.2120
     90 C         -11.8340   14.5720   70.7540 C.3     1  UNL11      -0.0350
     91 H         -10.8700   14.4960   71.2570 H       1  UNL11       0.0370
     92 H         -12.1340   15.5120   70.2910 H       1  UNL11       0.0370
     93 C         -12.9190   14.2420   71.8280 C.3     1  UNL11      -0.0590
     94 H         -13.0150   13.1570   71.8790 H       1  UNL11       0.0380
     95 C         -12.5160   14.7510   73.2490 C.3     1  UNL11      -0.0730
     96 H         -13.0570   15.6710   73.4710 H       1  UNL11       0.0280
     97 H         -12.7660   13.9930   73.9910 H       1  UNL11       0.0280
     98 H         -11.4440   14.9450   73.2740 H       1  UNL11       0.0280
     99 C         -14.2840   14.8000   71.4160 C.3     1  UNL11      -0.0730
    100 H         -14.2080   15.2520   70.4260 H       1  UNL11       0.0280
    101 H         -15.0150   13.9920   71.3910 H       1  UNL11       0.0280
    102 H         -14.6010   15.5540   72.1370 H       1  UNL11       0.0280
@<TRIPOS>BOND
     1    27    25    1
     2    26    25    1
     3    25    28    1
     4    25    21    1
     5    84    80    1
     6    21    23   ar
     7    21    20   ar
     8    23    24   ar
     9    89    88    1
    10    81    77    1
    11    85    80    1
    12    80    77    1
    13    80    83    1
    14    77    82    1
    15    77    76    1
    16    88    83    1
    17    24    19   ar
    18    20    22    1
    19    20    19   ar
    20    83    86    1
    21    83    75    1
    22    78    76    1
    23    70    67    1
    24    76    75    1
    25    76    79    1
    26    19    16    1
    27    74    72    1
    28    71    69    1
    29    73    72    1
    30    56    55    2
    31    75    72    1
    32    75    87    1
    33    72    47    1
    34    67    69   ar
    35    67    65   ar
    36    69    61   ar
    37    55    57    1
    38    55    52    1
    39    57    58    1
    40    51    49    1
    41    16    17    2
    42    16    15   am
    43    68    65    1
    44    18    15    1
    45    65    63   ar
    46    47    48    1
    47    47    49    1
    48    47    45    1
    49    15    13    1
    50    61    58    1
    51    61    62   ar
    52    49    52    1
    53    49    50    1
    54    53    52    1
    55    52    54    1
    56    58    59    1
    57    58    60    1
    58    46    45    1
    59    45    43   am
    60    63    62   ar
    61    63    66    1
    62    62    64    1
    63     5     4    2
    64    11    10    2
    65    13    14    1
    66    13    10    1
    67    13    29    1
    68    32    29    1
    69    44    43    2
    70    43     1    1
    71    10     9   am
    72     2     1    1
    73    29    30    1
    74    29    31    1
    75     4     7    1
    76     4     3   am
    77     8     7    1
    78     9     7    1
    79     9    12    1
    80     1     3    1
    81     1    90    1
    82     7    33    1
    83     3     6    1
    84    92    90    1
    85   100    99    1
    86    90    91    1
    87    90    93    1
    88    36    35    1
    89   101    99    1
    90    41    39    1
    91    99    93    1
    92    99   102    1
    93    33    34    1
    94    33    35    1
    95    33    39    1
    96    93    94    1
    97    93    95    1
    98    35    38    1
    99    35    37    1
   100    39    40    1
   101    39    42    1
   102    95    98    1
   103    95    96    1
   104    95    97    1
@<TRIPOS>MOLECULE
crystal_redock_e32_er3_1.pdbqt
 102 104 0 0 0
SMALL
GASTEIGER

@<TRIPOS>ATOM
      1 C          -6.9900   13.0240   68.0850 C.3     1  UNL11       0.0890
      2 H          -6.2500   12.8520   67.3030 H       1  UNL11       0.0870
      3 N          -7.2810   14.4500   68.1070 N.am    1  UNL11      -0.3460
      4 C          -6.2440   15.4460   67.6540 C.2     1  UNL11       0.2410
      5 O          -5.1800   15.0760   67.2800 O.2     1  UNL11      -0.2710
      6 H          -8.1920   14.7440   68.4310 H       1  UNL11       0.1630
      7 C          -6.5640   16.9170   67.6780 C.3     1  UNL11       0.0920
      8 H          -6.3380   17.3490   66.7030 H       1  UNL11       0.0880
      9 N          -8.0000   17.1020   67.9120 N.am    1  UNL11      -0.3460
     10 C          -8.8400   17.6190   66.8590 C.2     1  UNL11       0.2400
     11 O          -8.3770   17.8930   65.8200 O.2     1  UNL11      -0.2710
     12 H          -8.4130   16.8710   68.8040 H       1  UNL11       0.1630
     13 C         -10.3670   17.8150   67.1150 C.3     1  UNL11       0.0860
     14 H         -10.9870   17.2860   66.3920 H       1  UNL11       0.0860
     15 N         -10.6990   17.2750   68.4220 N.am    1  UNL11      -0.3430
     16 C         -11.3100   15.9480   68.5200 C.2     1  UNL11       0.2730
     17 O         -11.5330   15.3240   67.5410 O.2     1  UNL11      -0.2660
     18 H         -10.5080   17.8160   69.2540 H       1  UNL11       0.1630
     19 C         -11.6660   15.3630   69.8960 C.ar    1  UNL11       0.1540
     20 C         -11.7320   16.0640   71.1420 C.ar    1  UNL11      -0.0170
     21 C         -12.0980   15.0840   72.0920 C.ar    1  UNL11       0.0770
     22 H         -11.5430   17.1210   71.3290 H       1  UNL11       0.0910
     23 O         -12.2260   13.9560   71.4550 O.2     1  UNL11      -0.2180
     24 N         -11.9780   14.0940   70.1730 N.ar    1  UNL11      -0.1230
     25 C         -12.3050   15.3070   73.5840 C.3     1  UNL11      -0.0290
     26 H         -12.7140   14.4010   74.0340 H       1  UNL11       0.0360
     27 H         -11.3500   15.5450   74.0510 H       1  UNL11       0.0360
     28 H         -13.0000   16.1330   73.7350 H       1  UNL11       0.0360
     29 C         -10.7030   19.2840   67.0620 C.3     1  UNL11      -0.0490
     30 H         -10.7100   19.6180   66.0250 H       1  UNL11       0.0300
     31 H         -11.6860   19.4480   67.5030 H       1  UNL11       0.0300
     32 H          -9.9550   19.8480   67.6200 H       1  UNL11       0.0300
     33 C          -5.7630   17.6040   68.8230 C.3     1  UNL11      -0.0330
     34 H          -4.7360   17.7240   68.4790 H       1  UNL11       0.0420
     35 C          -6.3230   19.0270   69.1340 C.3     1  UNL11      -0.0710
     36 H          -7.2940   19.1490   68.6530 H       1  UNL11       0.0280
     37 H          -6.4350   19.1460   70.2120 H       1  UNL11       0.0280
     38 H          -5.6330   19.7800   68.7550 H       1  UNL11       0.0280
     39 C          -5.7420   16.7110   70.1050 C.3     1  UNL11      -0.0710
     40 H          -4.7220   16.6380   70.4800 H       1  UNL11       0.0280
     41 H          -6.3790   17.1570   70.8690 H       1  UNL11       0.0280
     42 H          -6.1120   15.7150   69.8590 H       1  UNL11       0.0280
     43 C          -8.3140   12.2520   67.8210 C.2     1  UNL11       0.2400
     44 O          -9.3550   12.7450   68.1150 O.2     1  UNL11      -0.2710
     45 N          -8.2860   10.9000   67.1920 N.am    1  UNL11      -0.3550
     46 H          -7.4080   10.4730   66.9330 H       1  UNL11       0.1620
     47 C          -9.5540   10.1800   66.9460 C.3     1  UNL11       0.0130
     48 H         -10.3660   10.7830   67.3500 H       1  UNL11       0.0720
     49 C          -9.5100    8.8390   67.6440 C.3     1  UNL11      -0.0380
     50 H          -8.5400    8.4090   67.3950 H       1  UNL11       0.0360
     51 H          -9.7670    9.0400   68.6840 H       1  UNL11       0.0360
     52 C         -10.5730    7.8530   67.1140 C.3     1  UNL11       0.0180
     53 H         -11.5350    8.2560   67.4340 H       1  UNL11       0.0480
     54 H         -10.3600    7.7300   66.0520 H       1  UNL11       0.0480
     55 C         -10.4760    6.4330   67.7370 C.2     1  UNL11       0.2590
     56 O         -10.0380    6.2830   68.8310 O.2     1  UNL11      -0.2650
     57 O         -10.9050    5.3080   66.9790 O.3     1  UNL11      -0.3170
     58 C          -9.8590    4.3850   66.6630 C.3     1  UNL11       0.0520
     59 H          -8.9820    4.7350   67.2090 H       1  UNL11       0.0820
     60 H         -10.2670    3.3950   66.8650 H       1  UNL11       0.0820
     61 C          -9.5670    4.4940   65.1430 C.ar    1  UNL11      -0.0340
     62 C          -8.5130    5.2820   64.6900 C.ar    1  UNL11      -0.0750
     63 C          -8.2500    5.3800   63.3250 C.ar    1  UNL11      -0.0820
     64 H          -7.8920    5.8220   65.4060 H       1  UNL11       0.0840
     65 C          -9.0490    4.6890   62.4090 C.ar    1  UNL11      -0.0830
     66 H          -7.4220    5.9960   62.9740 H       1  UNL11       0.0830
     67 C         -10.1010    3.9060   62.8650 C.ar    1  UNL11      -0.0820
     68 H          -8.8500    4.7590   61.3400 H       1  UNL11       0.0830
     69 C         -10.3650    3.8040   64.2290 C.ar    1  UNL11      -0.0750
     70 H         -10.7230    3.3700   62.1480 H       1  UNL11       0.0830
     71 H         -11.1930    3.1870   64.5790 H       1  UNL11       0.0840
     72 C          -9.7450    9.9680   65.4460 C.3     1  UNL11      -0.0390
     73 H          -8.7860    9.5990   65.0800 H       1  UNL11       0.0360
     74 H         -10.6380    9.3500   65.3510 H       1  UNL11       0.0360
     75 C         -10.0420   11.3470   64.6860 C.3     1  UNL11      -0.0010
     76 C         -11.4410   12.0050   65.2460 C.3     1  UNL11      -0.0350
     77 C         -12.2370   12.3000   64.1910 C.3     1  UNL11       0.0850
     78 H         -12.0120   11.2570   65.7950 H       1  UNL11       0.0360
     79 H         -11.2420   12.9780   65.6950 H       1  UNL11       0.0360
     80 N         -11.6500   11.6050   62.9860 N.4     1  UNL11      -0.0490
     81 H         -13.2050   11.8530   64.4220 H       1  UNL11       0.0750
     82 H         -12.1530   13.3780   64.0550 H       1  UNL11       0.0750
     83 C         -10.1570   11.1630   63.4130 C.3     1  UNL11       0.1930
     84 H         -12.2020   10.7730   62.8380 H       1  UNL11       0.2800
     85 H         -11.5820   12.3030   62.2580 H       1  UNL11       0.2800
     86 H          -9.2910   11.7190   63.0530 H       1  UNL11       0.1290
     87 H          -9.1670   11.9960   64.6520 H       1  UNL11       0.0460
     88 O          -9.9200    9.8050   63.0400 O.3     1  UNL11      -0.3690
     89 H          -9.8430    9.2650   63.8300 H       1  UNL11       0.2120
     90 C          -6.4190   12.6130   69.4330 C.3     1  UNL11      -0.0350
     91 H          -6.3700   13.5320   70.0170 H       1  UNL11       0.0370
     92 H          -7.0430   11.7860   69.7710 H       1  UNL11       0.0370
     93 C          -4.9600   12.0620   69.3540 C.3     1  UNL11      -0.0590
     94 H          -4.9110   11.1660   69.9730 H       1  UNL11       0.0380
     95 C          -4.5610   11.6570   67.8980 C.3     1  UNL11      -0.0730
     96 H          -4.7110   12.5060   67.2310 H       1  UNL11       0.0280
     97 H          -3.5120   11.3600   67.8780 H       1  UNL11       0.0280
     98 H          -5.1810   10.8230   67.5710 H       1  UNL11       0.0280
     99 C          -3.9630   13.0690   69.9310 C.3     1  UNL11      -0.0730
    100 H          -4.5010   13.8330   70.4930 H       1  UNL11       0.0280
    101 H          -3.2670   12.5530   70.5940 H       1  UNL11       0.0280
    102 H          -3.4090   13.5390   69.1190 H       1  UNL11       0.0280
@<TRIPOS>BOND
     1    68    65    1
     2    70    67    1
     3    85    80    1
     4    65    67   ar
     5    65    63   ar
     6    84    80    1
     7    67    69   ar
     8    66    63    1
     9    80    83    1
    10    80    77    1
    11    88    83    1
    12    88    89    1
    13    86    83    1
    14    63    62   ar
    15    83    75    1
    16    82    77    1
    17    77    81    1
    18    77    76    1
    19    69    71    1
    20    69    61   ar
    21    87    75    1
    22    75    76    1
    23    75    72    1
    24    62    61   ar
    25    62    64    1
    26    73    72    1
    27    61    58    1
    28    76    79    1
    29    76    78    1
    30    74    72    1
    31    72    47    1
    32    11    10    2
    33    30    29    1
    34    54    52    1
    35    14    13    1
    36    58    60    1
    37    58    57    1
    38    58    59    1
    39     8     7    1
    40    10    13    1
    41    10     9   am
    42    46    45    1
    43    47    45    1
    44    47    48    1
    45    47    49    1
    46    57    55    1
    47    29    13    1
    48    29    31    1
    49    29    32    1
    50    52    53    1
    51    52    49    1
    52    52    55    1
    53    13    15    1
    54    45    43   am
    55    96    95    1
    56     5     4    2
    57     2     1    1
    58    50    49    1
    59    17    16    2
    60    98    95    1
    61    49    51    1
    62     4     7    1
    63     4     3   am
    64     7     9    1
    65     7    33    1
    66    55    56    2
    67    43     1    1
    68    43    44    2
    69    97    95    1
    70    95    93    1
    71     9    12    1
    72     1     3    1
    73     1    90    1
    74     3     6    1
    75    15    16   am
    76    15    18    1
    77    34    33    1
    78    16    19    1
    79    36    35    1
    80    38    35    1
    81    33    35    1
    82    33    39    1
    83   102    99    1
    84    35    37    1
    85    93    90    1
    86    93    99    1
    87    93    94    1
    88    90    92    1
    89    90    91    1
    90    42    39    1
    91    19    24   ar
    92    19    20   ar
    93    99   100    1
    94    99   101    1
    95    39    40    1
    96    39    41    1
    97    24    23   ar
    98    20    22    1
    99    20    21   ar
   100    23    21   ar
   101    21    25    1
   102    25    28    1
   103    25    26    1
   104    25    27    1
@<TRIPOS>MOLECULE
crystal_redock_e32_er3_1.pdbqt
 102 104 0 0 0
SMALL
GASTEIGER

@<TRIPOS>ATOM
      1 C          -6.7690   10.0810   62.8930 C.3     1  UNL11       0.0890
      2 H          -6.1080   10.7420   62.3320 H       1  UNL11       0.0870
      3 N          -6.2660   10.0130   64.2570 N.am    1  UNL11      -0.3460
      4 C          -4.9950   10.7290   64.6370 C.2     1  UNL11       0.2410
      5 O          -4.3920   11.3520   63.8260 O.2     1  UNL11      -0.2710
      6 H          -6.7930    9.4750   64.9310 H       1  UNL11       0.1630
      7 C          -4.4910   10.6510   66.0540 C.3     1  UNL11       0.0920
      8 H          -3.6050   11.2770   66.1550 H       1  UNL11       0.0880
      9 N          -5.5070   11.1900   66.9640 N.am    1  UNL11      -0.3460
     10 C          -5.4390   12.5670   67.3860 C.2     1  UNL11       0.2400
     11 O          -4.5720   13.2560   67.0040 O.2     1  UNL11      -0.2710
     12 H          -6.2600   10.6080   67.3030 H       1  UNL11       0.1630
     13 C          -6.5210   13.1340   68.3560 C.3     1  UNL11       0.0860
     14 H          -6.0900   13.5990   69.2430 H       1  UNL11       0.0860
     15 N          -7.2750   14.1690   67.6690 N.am    1  UNL11      -0.3430
     16 C          -7.1430   15.5630   68.0980 C.2     1  UNL11       0.2730
     17 O          -6.4300   15.8410   68.9990 O.2     1  UNL11      -0.2660
     18 H          -7.8850   13.9220   66.9020 H       1  UNL11       0.1630
     19 C          -7.9340   16.6680   67.3790 C.ar    1  UNL11       0.1540
     20 C          -8.7500   17.6770   67.9800 C.ar    1  UNL11      -0.0170
     21 C          -9.2480   18.4350   66.8970 C.ar    1  UNL11       0.0770
     22 H          -8.9510   17.8360   69.0400 H       1  UNL11       0.0910
     23 O          -8.7660   17.9150   65.8060 O.2     1  UNL11      -0.2180
     24 N          -7.9970   16.8820   66.0620 N.ar    1  UNL11      -0.1230
     25 C         -10.1750   19.6400   66.9900 C.3     1  UNL11      -0.0290
     26 H          -9.9250   20.2250   67.8750 H       1  UNL11       0.0360
     27 H         -10.0570   20.2580   66.1000 H       1  UNL11       0.0360
     28 H         -11.2080   19.2990   67.0600 H       1  UNL11       0.0360
     29 C          -7.4440   12.0230   68.7880 C.3     1  UNL11      -0.0490
     30 H          -7.2540   11.7780   69.8330 H       1  UNL11       0.0300
     31 H          -8.4790   12.3450   68.6730 H       1  UNL11       0.0300
     32 H          -7.2650   11.1430   68.1710 H       1  UNL11       0.0300
     33 C          -4.2040    9.1660   66.4230 C.3     1  UNL11      -0.0330
     34 H          -5.1060    8.5940   66.2050 H       1  UNL11       0.0420
     35 C          -3.0530    8.5760   65.5500 C.3     1  UNL11      -0.0710
     36 H          -3.3580    7.6080   65.1520 H       1  UNL11       0.0280
     37 H          -2.8380    9.2560   64.7260 H       1  UNL11       0.0280
     38 H          -2.1600    8.4530   66.1620 H       1  UNL11       0.0280
     39 C          -3.8930    9.0180   67.9470 C.3     1  UNL11      -0.0710
     40 H          -4.6150    9.5960   68.5230 H       1  UNL11       0.0280
     41 H          -3.9600    7.9670   68.2310 H       1  UNL11       0.0280
     42 H          -2.8870    9.3860   68.1490 H       1  UNL11       0.0280
     43 C          -8.2330   10.6080   62.9310 C.2     1  UNL11       0.2400
     44 O          -8.9180   10.5200   61.9640 O.2     1  UNL11      -0.2710
     45 N          -8.7830   11.2130   64.1770 N.am    1  UNL11      -0.3550
     46 H          -8.2130   11.2890   65.0070 H       1  UNL11       0.1620
     47 C         -10.1770   11.7080   64.1970 C.3     1  UNL11       0.0130
     48 H         -10.5750   11.6320   63.1850 H       1  UNL11       0.0720
     49 C         -10.1890   13.1510   64.6500 C.3     1  UNL11      -0.0380
     50 H          -9.5330   13.1910   65.5200 H       1  UNL11       0.0360
     51 H          -9.9550   13.7390   63.7630 H       1  UNL11       0.0360
     52 C         -11.5810   13.6170   65.1300 C.3     1  UNL11       0.0180
     53 H         -11.9430   14.3020   64.3630 H       1  UNL11       0.0480
     54 H         -12.1360   12.7060   65.3540 H       1  UNL11       0.0480
     55 C         -11.5470   14.4340   66.4510 C.2     1  UNL11       0.2590
     56 O         -11.1650   15.5590   66.4550 O.2     1  UNL11      -0.2650
     57 O         -11.9650   13.8160   67.6630 O.3     1  UNL11      -0.3170
     58 C         -11.1540   14.1460   68.7940 C.3     1  UNL11       0.0520
     59 H         -10.4630   13.3110   68.9140 H       1  UNL11       0.0820
     60 H         -10.7710   15.1470   68.6010 H       1  UNL11       0.0820
     61 C         -12.0750   14.2050   70.0420 C.ar    1  UNL11      -0.0340
     62 C         -12.5670   15.4270   70.4870 C.ar    1  UNL11      -0.0750
     63 C         -13.3940   15.4800   71.6080 C.ar    1  UNL11      -0.0820
     64 H         -12.3060   16.3430   69.9570 H       1  UNL11       0.0840
     65 C         -13.7260   14.3050   72.2870 C.ar    1  UNL11      -0.0830
     66 H         -13.7810   16.4400   71.9530 H       1  UNL11       0.0830
     67 C         -13.2290   13.0880   71.8420 C.ar    1  UNL11      -0.0820
     68 H         -14.3720   14.3370   73.1640 H       1  UNL11       0.0830
     69 C         -12.4040   13.0290   70.7200 C.ar    1  UNL11      -0.0750
     70 H         -13.4880   12.1720   72.3750 H       1  UNL11       0.0830
     71 H         -12.0180   12.0690   70.3760 H       1  UNL11       0.0840
     72 C         -11.0110   10.8640   65.1590 C.3     1  UNL11      -0.0390
     73 H         -11.7130   11.5590   65.6210 H       1  UNL11       0.0360
     74 H         -11.3820   10.0290   64.5660 H       1  UNL11       0.0360
     75 C         -10.1150   10.2470   66.3350 C.3     1  UNL11      -0.0010
     76 C          -9.8360    8.6520   66.0490 C.3     1  UNL11      -0.0350
     77 C         -10.1640    7.9460   67.1570 C.3     1  UNL11       0.0850
     78 H         -10.5310    8.2810   65.2960 H       1  UNL11       0.0360
     79 H          -8.7670    8.4730   65.9400 H       1  UNL11       0.0360
     80 N         -10.9470    8.8730   68.0560 N.4     1  UNL11      -0.0490
     81 H         -10.8220    7.1480   66.8110 H       1  UNL11       0.0750
     82 H          -9.2170    7.7020   67.6380 H       1  UNL11       0.0750
     83 C         -10.7020   10.3610   67.4800 C.3     1  UNL11       0.1930
     84 H         -11.9210    8.6370   67.9330 H       1  UNL11       0.2800
     85 H         -10.5230    8.8100   68.9710 H       1  UNL11       0.2800
     86 H         -10.0210   11.0460   67.9850 H       1  UNL11       0.1290
     87 H          -9.2490   10.8690   66.5640 H       1  UNL11       0.0460
     88 O         -11.9430   11.0620   67.3810 O.3     1  UNL11      -0.3690
     89 H         -11.7750   12.0050   67.3330 H       1  UNL11       0.2120
     90 C          -6.7430    8.6890   62.2840 C.3     1  UNL11      -0.0350
     91 H          -7.7180    8.5610   61.8120 H       1  UNL11       0.0370
     92 H          -5.8370    8.6550   61.6790 H       1  UNL11       0.0370
     93 C          -6.6110    7.5450   63.3400 C.3     1  UNL11      -0.0590
     94 H          -6.5380    8.0100   64.3230 H       1  UNL11       0.0380
     95 C          -7.8580    6.6040   63.3480 C.3     1  UNL11      -0.0730
     96 H          -8.1290    6.3520   62.3230 H       1  UNL11       0.0280
     97 H          -7.6210    5.6920   63.8970 H       1  UNL11       0.0280
     98 H          -8.6930    7.1120   63.8310 H       1  UNL11       0.0280
     99 C          -5.3250    6.7440   63.1200 C.3     1  UNL11      -0.0730
    100 H          -4.9250    6.4260   64.0830 H       1  UNL11       0.0280
    101 H          -5.5440    5.8660   62.5100 H       1  UNL11       0.0280
    102 H          -4.5920    7.3670   62.6090 H       1  UNL11       0.0280
@<TRIPOS>BOND
     1    92    90    1
     2    91    90    1
     3    44    43    2
     4    90     1    1
     5    90    93    1
     6    96    95    1
     7     2     1    1
     8   101    99    1
     9   102    99    1
    10     1    43    1
    11     1     3    1
    12    43    45   am
    13    99    93    1
    14    99   100    1
    15    48    47    1
    16    93    95    1
    17    93    94    1
    18    95    98    1
    19    95    97    1
    20    51    49    1
    21     5     4    2
    22    45    47    1
    23    45    46    1
    24    47    49    1
    25    47    72    1
    26     3     4   am
    27     3     6    1
    28    53    52    1
    29    74    72    1
    30     4     7    1
    31    49    52    1
    32    49    50    1
    33    37    35    1
    34    52    54    1
    35    52    55    1
    36    36    35    1
    37    72    73    1
    38    72    75    1
    39    78    76    1
    40    35    38    1
    41    35    33    1
    42    23    24   ar
    43    23    21   ar
    44    79    76    1
    45    76    75    1
    46    76    77    1
    47     7     8    1
    48     7    33    1
    49     7     9    1
    50    24    19   ar
    51    27    25    1
    52    34    33    1
    53    75    87    1
    54    75    83    1
    55    33    39    1
    56    55    56    2
    57    55    57    1
    58    81    77    1
    59    21    25    1
    60    21    20   ar
    61    18    15    1
    62     9    12    1
    63     9    10   am
    64    25    28    1
    65    25    26    1
    66    11    10    2
    67    77    82    1
    68    77    80    1
    69    89    88    1
    70    19    20   ar
    71    19    16    1
    72    88    83    1
    73    10    13    1
    74    83    86    1
    75    83    80    1
    76    57    58    1
    77    15    16   am
    78    15    13    1
    79    84    80    1
    80    39    42    1
    81    39    41    1
    82    39    40    1
    83    20    22    1
    84    80    85    1
    85    16    17    2
    86    32    29    1
    87    13    29    1
    88    13    14    1
    89    60    58    1
    90    31    29    1
    91    29    30    1
    92    58    59    1
    93    58    61    1
    94    64    62    1
    95    61    62   ar
    96    61    69   ar
    97    71    69    1
    98    62    63   ar
    99    69    67   ar
   100    63    66    1
   101    63    65   ar
   102    67    65   ar
   103    67    70    1
   104    65    68    1
@<TRIPOS>MOLECULE
crystal_redock_e32_er3_1.pdbqt
 102 104 0 0 0
SMALL
GASTEIGER

@<TRIPOS>ATOM
      1 C          -6.2670   11.4120   67.1700 C.3     1  UNL11       0.0890
      2 H          -5.2440   11.1530   66.8970 H       1  UNL11       0.0870
      3 N          -7.0790   11.3210   65.9650 N.am    1  UNL11      -0.3460
      4 C          -7.0400   10.0770   65.1130 C.2     1  UNL11       0.2410
      5 O          -6.3460    9.1630   65.4160 O.2     1  UNL11      -0.2710
      6 H          -7.6610   12.1100   65.7230 H       1  UNL11       0.1630
      7 C          -7.8910    9.9980   63.8730 C.3     1  UNL11       0.0920
      8 H          -8.3700    9.0200   63.8280 H       1  UNL11       0.0880
      9 N          -8.9580   11.0000   63.9460 N.am    1  UNL11      -0.3460
     10 C         -10.0630   10.8100   64.8530 C.2     1  UNL11       0.2400
     11 O         -10.1100    9.8560   65.5300 O.2     1  UNL11      -0.2710
     12 H          -8.9320   11.8270   63.3680 H       1  UNL11       0.1630
     13 C         -11.1970   11.8790   64.9250 C.3     1  UNL11       0.0860
     14 H         -11.9300   11.6650   65.7030 H       1  UNL11       0.0860
     15 N         -10.6100   13.1690   65.2490 N.am    1  UNL11      -0.3430
     16 C         -11.4740   14.2600   65.7050 C.2     1  UNL11       0.2730
     17 O         -12.6400   14.0920   65.8040 O.2     1  UNL11      -0.2660
     18 H          -9.6130   13.3040   65.1590 H       1  UNL11       0.1630
     19 C         -10.8670   15.6280   66.0520 C.ar    1  UNL11       0.1540
     20 C         -10.7490   16.2170   67.3510 C.ar    1  UNL11      -0.0170
     21 C         -10.1270   17.4660   67.1290 C.ar    1  UNL11       0.0770
     22 H         -11.0670   15.8020   68.3080 H       1  UNL11       0.0910
     23 O          -9.9140   17.5710   65.8500 O.2     1  UNL11      -0.2180
     24 N         -10.3380   16.5110   65.2010 N.ar    1  UNL11      -0.1230
     25 C          -9.7700   18.4970   68.1920 C.3     1  UNL11      -0.0290
     26 H          -9.3990   19.4020   67.7110 H       1  UNL11       0.0360
     27 H         -10.6560   18.7340   68.7800 H       1  UNL11       0.0360
     28 H          -8.9980   18.0920   68.8470 H       1  UNL11       0.0360
     29 C         -11.9060   11.9540   63.5960 C.3     1  UNL11      -0.0490
     30 H         -11.1890   12.2080   62.8160 H       1  UNL11       0.0300
     31 H         -12.3600   10.9890   63.3720 H       1  UNL11       0.0300
     32 H         -12.6810   12.7190   63.6410 H       1  UNL11       0.0300
     33 C          -7.0080   10.2750   62.6200 C.3     1  UNL11      -0.0330
     34 H          -6.2110   10.9540   62.9230 H       1  UNL11       0.0420
     35 C          -6.3360    8.9670   62.0980 C.3     1  UNL11      -0.0710
     36 H          -6.5620    8.1450   62.7780 H       1  UNL11       0.0280
     37 H          -6.7210    8.7320   61.1060 H       1  UNL11       0.0280
     38 H          -5.2570    9.1090   62.0460 H       1  UNL11       0.0280
     39 C          -7.8370   10.9740   61.4950 C.3     1  UNL11      -0.0710
     40 H          -7.2770   10.9470   60.5610 H       1  UNL11       0.0280
     41 H          -8.7850   10.4510   61.3650 H       1  UNL11       0.0280
     42 H          -8.0280   12.0090   61.7760 H       1  UNL11       0.0280
     43 C          -6.8540   10.4430   68.2360 C.2     1  UNL11       0.2400
     44 O          -6.3100   10.3210   69.2860 O.2     1  UNL11      -0.2710
     45 N          -8.0990    9.6740   67.9520 N.am    1  UNL11      -0.3550
     46 H          -8.5720    9.7730   67.0660 H       1  UNL11       0.1620
     47 C          -8.6440    8.7580   68.9770 C.3     1  UNL11       0.0130
     48 H          -8.2640    9.0760   69.9480 H       1  UNL11       0.0720
     49 C          -8.1890    7.3470   68.6800 C.3     1  UNL11      -0.0380
     50 H          -8.5830    7.1120   67.6910 H       1  UNL11       0.0360
     51 H          -7.1130    7.3430   68.8530 H       1  UNL11       0.0360
     52 C          -8.7910    6.3070   69.6490 C.3     1  UNL11       0.0180
     53 H          -7.9410    5.8260   70.1320 H       1  UNL11       0.0480
     54 H          -9.5230    6.8500   70.2480 H       1  UNL11       0.0480
     55 C          -9.5780    5.1710   68.9370 C.2     1  UNL11       0.2590
     56 O          -9.9380    4.2150   69.5440 O.2     1  UNL11      -0.2650
     57 O          -9.8550    5.2800   67.5460 O.3     1  UNL11      -0.3170
     58 C          -9.3310    4.2050   66.7620 C.3     1  UNL11       0.0520
     59 H          -8.8630    3.5230   67.4720 H       1  UNL11       0.0820
     60 H         -10.1580    3.8620   66.1420 H       1  UNL11       0.0820
     61 C          -8.2280    4.7810   65.8350 C.ar    1  UNL11      -0.0340
     62 C          -6.9000    4.7790   66.2470 C.ar    1  UNL11      -0.0750
     63 C          -5.9090    5.2980   65.4140 C.ar    1  UNL11      -0.0820
     64 H          -6.6340    4.3720   67.2220 H       1  UNL11       0.0840
     65 C          -6.2520    5.8220   64.1650 C.ar    1  UNL11      -0.0830
     66 H          -4.8690    5.2920   65.7390 H       1  UNL11       0.0830
     67 C          -7.5800    5.8250   63.7590 C.ar    1  UNL11      -0.0820
     68 H          -5.4840    6.2280   63.5070 H       1  UNL11       0.0830
     69 C          -8.5730    5.3060   64.5870 C.ar    1  UNL11      -0.0750
     70 H          -7.8440    6.2360   62.7840 H       1  UNL11       0.0830
     71 H          -9.6130    5.3110   64.2610 H       1  UNL11       0.0840
     72 C         -10.1710    8.8160   68.9610 C.3     1  UNL11      -0.0390
     73 H         -10.4370    9.1610   67.9620 H       1  UNL11       0.0360
     74 H         -10.5010    7.8350   69.3050 H       1  UNL11       0.0360
     75 C         -10.7340    9.8960   70.0010 C.3     1  UNL11      -0.0010
     76 C         -11.3500    9.1340   71.3220 C.3     1  UNL11      -0.0350
     77 C         -12.6010    9.5990   71.5500 C.3     1  UNL11       0.0850
     78 H         -11.5060    8.0780   71.1050 H       1  UNL11       0.0360
     79 H         -10.8000    9.4310   72.2150 H       1  UNL11       0.0360
     80 N         -13.0180   10.3660   70.3190 N.4     1  UNL11      -0.0490
     81 H         -13.2290    8.7120   71.6460 H       1  UNL11       0.0750
     82 H         -12.5060   10.2930   72.3850 H       1  UNL11       0.0750
     83 C         -11.6670   10.6130   69.4700 C.3     1  UNL11       0.1930
     84 H         -13.6230    9.7530   69.7900 H       1  UNL11       0.2800
     85 H         -13.3630   11.2590   70.6410 H       1  UNL11       0.2800
     86 H         -11.1870   11.5920   69.4660 H       1  UNL11       0.1290
     87 H         -10.0260   10.7050   70.1800 H       1  UNL11       0.0460
     88 O         -11.8820   10.2870   68.0960 O.3     1  UNL11      -0.3690
     89 H         -11.7790   11.0770   67.5600 H       1  UNL11       0.2120
     90 C          -6.3150   12.8380   67.6930 C.3     1  UNL11      -0.0350
     91 H          -6.3230   12.7470   68.7800 H       1  UNL11       0.0370
     92 H          -5.4950   13.3560   67.1960 H       1  UNL11       0.0370
     93 C          -7.6200   13.6050   67.3060 C.3     1  UNL11      -0.0590
     94 H          -7.9350   13.2470   66.3260 H       1  UNL11       0.0380
     95 C          -8.7850   13.3300   68.3100 C.3     1  UNL11      -0.0730
     96 H          -8.4960   13.6720   69.3040 H       1  UNL11       0.0280
     97 H          -9.6780   13.8650   67.9860 H       1  UNL11       0.0280
     98 H          -8.9940   12.2600   68.3400 H       1  UNL11       0.0280
     99 C          -7.3550   15.1070   67.1780 C.3     1  UNL11      -0.0730
    100 H          -8.1570   15.5700   66.6040 H       1  UNL11       0.0280
    101 H          -7.3140   15.5540   68.1720 H       1  UNL11       0.0280
    102 H          -6.4040   15.2660   66.6690 H       1  UNL11       0.0280
@<TRIPOS>BOND
     1    40    39    1
     2    37    35    1
     3    41    39    1
     4    39    42    1
     5    39    33    1
     6    38    35    1
     7    35    33    1
     8    35    36    1
     9    33    34    1
    10    33     7    1
    11    70    67    1
    12    30    29    1
    13    12     9    1
    14    31    29    1
    15    68    65    1
    16    29    32    1
    17    29    13    1
    18    67    65   ar
    19    67    69   ar
    20     8     7    1
    21     7     9    1
    22     7     4    1
    23     9    10   am
    24    65    63   ar
    25    71    69    1
    26    69    61   ar
    27    10    13    1
    28    10    11    2
    29    13    15    1
    30    13    14    1
    31     4     5    2
    32     4     3   am
    33    18    15    1
    34    24    23   ar
    35    24    19   ar
    36    15    16   am
    37    63    66    1
    38    63    62   ar
    39    16    17    2
    40    16    19    1
    41     6     3    1
    42    61    62   ar
    43    61    58    1
    44    23    21   ar
    45     3     1    1
    46    19    20   ar
    47    60    58    1
    48    62    64    1
    49    94    93    1
    50   100    99    1
    51   102    99    1
    52    58    59    1
    53    58    57    1
    54     2     1    1
    55    46    45    1
    56    21    20   ar
    57    21    25    1
    58     1    90    1
    59     1    43    1
    60    99    93    1
    61    99   101    1
    62    92    90    1
    63    93    90    1
    64    93    95    1
    65    20    22    1
    66    57    55    1
    67    89    88    1
    68    50    49    1
    69    90    91    1
    70    26    25    1
    71    45    43   am
    72    45    47    1
    73    73    72    1
    74    97    95    1
    75    88    83    1
    76    25    27    1
    77    25    28    1
    78    43    44    2
    79    95    98    1
    80    95    96    1
    81    49    51    1
    82    49    47    1
    83    49    52    1
    84    55    56    2
    85    55    52    1
    86    72    47    1
    87    72    74    1
    88    72    75    1
    89    47    48    1
    90    86    83    1
    91    83    75    1
    92    83    80    1
    93    52    53    1
    94    52    54    1
    95    84    80    1
    96    75    87    1
    97    75    76    1
    98    80    85    1
    99    80    77    1
   100    78    76    1
   101    76    77    1
   102    76    79    1
   103    77    81    1
   104    77    82    1
@<TRIPOS>MOLECULE
crystal_redock_e32_er3_1.pdbqt
 102 104 0 0 0
SMALL
GASTEIGER

@<TRIPOS>ATOM
      1 C         -10.0790   10.2990   64.3630 C.3     1  UNL11       0.0890
      2 H         -11.0040    9.7690   64.5920 H       1  UNL11       0.0870
      3 N          -9.4940   10.7240   65.6260 N.am    1  UNL11      -0.3460
      4 C         -10.1020   10.2830   66.9340 C.2     1  UNL11       0.2410
      5 O         -11.0650    9.5890   66.9440 O.2     1  UNL11      -0.2710
      6 H          -8.6760   11.3160   65.5950 H       1  UNL11       0.1630
      7 C          -9.4800   10.7270   68.2310 C.3     1  UNL11       0.0920
      8 H          -8.3950   10.7200   68.1300 H       1  UNL11       0.0880
      9 N          -9.8790   12.1090   68.5180 N.am    1  UNL11      -0.3460
     10 C          -9.1110   13.2060   67.9830 C.2     1  UNL11       0.2400
     11 O          -8.1680   12.9960   67.3230 O.2     1  UNL11      -0.2710
     12 H         -10.6890   12.3060   69.0870 H       1  UNL11       0.1630
     13 C          -9.5390   14.6740   68.2940 C.3     1  UNL11       0.0860
     14 H         -10.2200   15.0820   67.5470 H       1  UNL11       0.0860
     15 N         -10.2490   14.7000   69.5620 N.am    1  UNL11      -0.3430
     16 C         -11.4030   15.5860   69.7250 C.2     1  UNL11       0.2730
     17 O         -11.7510   16.2770   68.8300 O.2     1  UNL11      -0.2660
     18 H          -9.9430   14.1080   70.3220 H       1  UNL11       0.1630
     19 C         -12.1640   15.6230   71.0590 C.ar    1  UNL11       0.1540
     20 C         -11.6080   15.7950   72.3670 C.ar    1  UNL11      -0.0170
     21 C         -12.7170   15.7550   73.2410 C.ar    1  UNL11       0.0770
     22 H         -10.5610   15.9290   72.6390 H       1  UNL11       0.0910
     23 O         -13.7800   15.5820   72.5110 O.2     1  UNL11      -0.2180
     24 N         -13.4820   15.5010   71.2350 N.ar    1  UNL11      -0.1230
     25 C         -12.6750   15.8920   74.7570 C.3     1  UNL11      -0.0290
     26 H         -13.6550   16.2000   75.1220 H       1  UNL11       0.0360
     27 H         -12.4070   14.9330   75.2010 H       1  UNL11       0.0360
     28 H         -11.9320   16.6400   75.0350 H       1  UNL11       0.0360
     29 C          -8.3160   15.5520   68.3680 C.3     1  UNL11      -0.0490
     30 H          -7.9500   15.5800   69.3950 H       1  UNL11       0.0300
     31 H          -7.5400   15.1500   67.7170 H       1  UNL11       0.0300
     32 H          -8.5730   16.5610   68.0480 H       1  UNL11       0.0300
     33 C          -9.9660    9.8010   69.3840 C.3     1  UNL11      -0.0330
     34 H         -10.2750    8.8550   68.9370 H       1  UNL11       0.0420
     35 C          -8.8130    9.4900   70.3880 C.3     1  UNL11      -0.0710
     36 H          -7.8650    9.8270   69.9690 H       1  UNL11       0.0280
     37 H          -9.0000   10.0110   71.3270 H       1  UNL11       0.0280
     38 H          -8.7700    8.4170   70.5700 H       1  UNL11       0.0280
     39 C         -11.2030   10.4170   70.1140 C.3     1  UNL11      -0.0710
     40 H         -11.5340   11.3060   69.5780 H       1  UNL11       0.0280
     41 H         -12.0110    9.6860   70.1400 H       1  UNL11       0.0280
     42 H         -10.9250   10.6880   71.1320 H       1  UNL11       0.0280
     43 C          -9.0530    9.3960   63.6200 C.2     1  UNL11       0.2400
     44 O          -8.6280    9.7320   62.5620 O.2     1  UNL11      -0.2710
     45 N          -8.5930    8.1170   64.2320 N.am    1  UNL11      -0.3550
     46 H          -8.9430    7.8240   65.1330 H       1  UNL11       0.1620
     47 C          -7.6160    7.2710   63.5140 C.3     1  UNL11       0.0130
     48 H          -7.7530    7.4340   62.4450 H       1  UNL11       0.0720
     49 C          -7.8690    5.8190   63.8520 C.3     1  UNL11      -0.0380
     50 H          -8.7310    5.5230   63.2540 H       1  UNL11       0.0360
     51 H          -6.9120    5.3150   63.7170 H       1  UNL11       0.0360
     52 C          -8.2690    5.6080   65.3280 C.3     1  UNL11       0.0180
     53 H          -7.4720    5.0060   65.7670 H       1  UNL11       0.0480
     54 H          -8.4800    6.6030   65.7220 H       1  UNL11       0.0480
     55 C          -9.5760    4.7880   65.5120 C.2     1  UNL11       0.2590
     56 O         -10.0320    4.1690   64.6060 O.2     1  UNL11      -0.2650
     57 O         -10.2310    4.7950   66.7750 O.3     1  UNL11      -0.3170
     58 C         -10.6220    6.0960   67.2210 C.3     1  UNL11       0.0520
     59 H          -9.8820    6.7830   66.8110 H       1  UNL11       0.0820
     60 H         -11.6720    6.1990   66.9470 H       1  UNL11       0.0820
     61 C         -10.5140    6.1240   68.7690 C.ar    1  UNL11      -0.0340
     62 C          -9.3310    5.7400   69.3920 C.ar    1  UNL11      -0.0750
     63 C          -9.2340    5.7650   70.7820 C.ar    1  UNL11      -0.0820
     64 H          -8.4800    5.4190   68.7910 H       1  UNL11       0.0840
     65 C         -10.3270    6.1740   71.5510 C.ar    1  UNL11      -0.0830
     66 H          -8.3050    5.4650   71.2670 H       1  UNL11       0.0830
     67 C         -11.5070    6.5530   70.9250 C.ar    1  UNL11      -0.0820
     68 H         -10.2600    6.1970   72.6380 H       1  UNL11       0.0830
     69 C         -11.6080    6.5320   69.5350 C.ar    1  UNL11      -0.0750
     70 H         -12.3590    6.8700   71.5270 H       1  UNL11       0.0830
     71 H         -12.5370    6.8330   69.0510 H       1  UNL11       0.0840
     72 C          -6.1970    7.6520   63.9320 C.3     1  UNL11      -0.0390
     73 H          -5.7220    6.7180   64.2320 H       1  UNL11       0.0360
     74 H          -5.7930    8.2240   63.0970 H       1  UNL11       0.0360
     75 C          -6.1950    8.6160   65.2110 C.3     1  UNL11      -0.0010
     76 C          -5.6420   10.1060   64.7880 C.3     1  UNL11      -0.0350
     77 C          -4.6570   10.4660   65.6450 C.3     1  UNL11       0.0850
     78 H          -5.1360   10.0570   63.8240 H       1  UNL11       0.0360
     79 H          -6.4150   10.8550   64.9600 H       1  UNL11       0.0360
     80 N          -4.2630    9.2250   66.4100 N.4     1  UNL11      -0.0490
     81 H          -3.8210   10.7750   65.0160 H       1  UNL11       0.0750
     82 H          -5.1140   11.1770   66.3320 H       1  UNL11       0.0750
     83 C          -5.4370    8.1500   66.1470 C.3     1  UNL11       0.1930
     84 H          -3.4130    8.8840   65.9840 H       1  UNL11       0.2800
     85 H          -4.2710    9.4780   67.3880 H       1  UNL11       0.2800
     86 H          -6.1800    7.9410   66.9170 H       1  UNL11       0.1290
     87 H          -7.1340    8.5740   65.7620 H       1  UNL11       0.0460
     88 O          -4.8760    6.8810   65.8040 O.3     1  UNL11      -0.3690
     89 H          -4.4860    6.4820   66.5850 H       1  UNL11       0.2120
     90 C         -10.3840   11.5270   63.5200 C.3     1  UNL11      -0.0350
     91 H          -9.4220   12.0120   63.3580 H       1  UNL11       0.0370
     92 H         -10.9580   11.1580   62.6700 H       1  UNL11       0.0370
     93 C         -11.2900   12.5740   64.2430 C.3     1  UNL11      -0.0590
     94 H         -11.7000   12.0980   65.1340 H       1  UNL11       0.0380
     95 C         -10.4850   13.8320   64.7030 C.3     1  UNL11      -0.0730
     96 H         -10.3280   14.4930   63.8510 H       1  UNL11       0.0280
     97 H         -11.0460   14.3590   65.4750 H       1  UNL11       0.0280
     98 H          -9.5210   13.5190   65.1030 H       1  UNL11       0.0280
     99 C         -12.4720   12.9770   63.3580 C.3     1  UNL11      -0.0730
    100 H         -12.5000   12.3390   62.4750 H       1  UNL11       0.0280
    101 H         -13.4010   12.8630   63.9190 H       1  UNL11       0.0280
    102 H         -12.3590   14.0170   63.0520 H       1  UNL11       0.0280
@<TRIPOS>BOND
     1    48    47    1
     2   100    99    1
     3    44    43    2
     4    92    90    1
     5   102    99    1
     6    74    72    1
     7    50    49    1
     8    99   101    1
     9    99    93    1
    10    91    90    1
    11    47    49    1
    12    47    72    1
    13    47    45    1
    14    90    93    1
    15    90     1    1
    16    43    45   am
    17    43     1    1
    18    51    49    1
    19    78    76    1
    20    96    95    1
    21    49    52    1
    22    72    73    1
    23    72    75    1
    24    45    46    1
    25    93    95    1
    26    93    94    1
    27     1     2    1
    28     1     3    1
    29    56    55    2
    30    95    98    1
    31    95    97    1
    32    76    79    1
    33    76    75    1
    34    76    77    1
    35    81    77    1
    36    75    87    1
    37    75    83    1
    38    52    55    1
    39    52    54    1
    40    52    53    1
    41    55    57    1
    42     6     3    1
    43     3     4   am
    44    77    82    1
    45    77    80    1
    46    88    83    1
    47    88    89    1
    48    84    80    1
    49    83    80    1
    50    83    86    1
    51    80    85    1
    52    57    58    1
    53    59    58    1
    54     4     5    2
    55     4     7    1
    56    60    58    1
    57    58    61    1
    58    11    10    2
    59    14    13    1
    60    31    29    1
    61    10    13    1
    62    10     9   am
    63    32    29    1
    64     8     7    1
    65     7     9    1
    66     7    33    1
    67    13    29    1
    68    13    15    1
    69    29    30    1
    70     9    12    1
    71    61    62   ar
    72    61    69   ar
    73    64    62    1
    74    17    16    2
    75    34    33    1
    76    71    69    1
    77    33    39    1
    78    33    35    1
    79    62    63   ar
    80    69    67   ar
    81    15    16   am
    82    15    18    1
    83    40    39    1
    84    16    19    1
    85    36    35    1
    86    39    41    1
    87    39    42    1
    88    35    38    1
    89    35    37    1
    90    63    66    1
    91    63    65   ar
    92    67    70    1
    93    67    65   ar
    94    19    24   ar
    95    19    20   ar
    96    24    23   ar
    97    65    68    1
    98    20    22    1
    99    20    21   ar
   100    23    21   ar
   101    21    25    1
   102    25    28    1
   103    25    26    1
   104    25    27    1
@<TRIPOS>MOLECULE
crystal_redock_e32_er3_1.pdbqt
 102 104 0 0 0
SMALL
GASTEIGER

@<TRIPOS>ATOM
      1 C         -10.6480    9.2970   70.0910 C.3     1  UNL11       0.0890
      2 H         -11.0160    8.3800   69.6300 H       1  UNL11       0.0870
      3 N          -9.2950    9.5200   69.6040 N.am    1  UNL11      -0.3460
      4 C          -8.8260    8.8620   68.3310 C.2     1  UNL11       0.2410
      5 O          -9.5550    8.1550   67.7170 O.2     1  UNL11      -0.2710
      6 H          -8.6890   10.1240   70.1420 H       1  UNL11       0.1630
      7 C          -7.4240    9.1090   67.8380 C.3     1  UNL11       0.0920
      8 H          -7.4250    9.1250   66.7480 H       1  UNL11       0.0880
      9 N          -6.9710   10.4280   68.2900 N.am    1  UNL11      -0.3460
     10 C          -7.0070   11.5510   67.3860 C.2     1  UNL11       0.2400
     11 O          -7.3960   11.4110   66.2910 O.2     1  UNL11      -0.2710
     12 H          -6.6320   10.5630   69.2320 H       1  UNL11       0.1630
     13 C          -6.5210   12.9510   67.8720 C.3     1  UNL11       0.0860
     14 H          -5.6170   13.2840   67.3630 H       1  UNL11       0.0860
     15 N          -7.5500   13.9360   67.5790 N.am    1  UNL11      -0.3430
     16 C          -7.1620   15.3140   67.2700 C.2     1  UNL11       0.2730
     17 O          -6.0210   15.6210   67.2640 O.2     1  UNL11      -0.2660
     18 H          -8.5230   13.6650   67.5890 H       1  UNL11       0.1630
     19 C          -8.2390   16.3640   66.9560 C.ar    1  UNL11       0.1540
     20 C          -8.6870   17.4240   67.8070 C.ar    1  UNL11      -0.0170
     21 C          -9.6770   18.0980   67.0570 C.ar    1  UNL11       0.0770
     22 H          -8.3470   17.6660   68.8140 H       1  UNL11       0.0910
     23 O          -9.7760   17.4900   65.9110 O.2     1  UNL11      -0.2180
     24 N          -8.9470   16.4750   65.8290 N.ar    1  UNL11      -0.1230
     25 C         -10.4780   19.3120   67.5080 C.3     1  UNL11      -0.0290
     26 H         -11.5360   19.1480   67.3010 H       1  UNL11       0.0360
     27 H         -10.3360   19.4650   68.5770 H       1  UNL11       0.0360
     28 H         -10.1350   20.1950   66.9660 H       1  UNL11       0.0360
     29 C          -6.2570   12.9070   69.3560 C.3     1  UNL11      -0.0490
     30 H          -7.1590   13.1990   69.8950 H       1  UNL11       0.0300
     31 H          -5.9720   11.8960   69.6450 H       1  UNL11       0.0300
     32 H          -5.4490   13.5970   69.6010 H       1  UNL11       0.0300
     33 C          -6.4750    8.0140   68.4070 C.3     1  UNL11      -0.0330
     34 H          -7.0680    7.3670   69.0530 H       1  UNL11       0.0420
     35 C          -5.8850    7.1250   67.2680 C.3     1  UNL11      -0.0710
     36 H          -6.6840    6.5370   66.8160 H       1  UNL11       0.0280
     37 H          -5.4300    7.7620   66.5090 H       1  UNL11       0.0280
     38 H          -5.1310    6.4570   67.6820 H       1  UNL11       0.0280
     39 C          -5.3410    8.6520   69.2720 C.3     1  UNL11      -0.0710
     40 H          -4.7740    7.8640   69.7670 H       1  UNL11       0.0280
     41 H          -4.6740    9.2290   68.6290 H       1  UNL11       0.0280
     42 H          -5.7820    9.3090   70.0210 H       1  UNL11       0.0280
     43 C         -11.5180   10.5320   69.7190 C.2     1  UNL11       0.2400
     44 O         -12.6930   10.5030   69.9000 O.2     1  UNL11      -0.2710
     45 N         -10.8860   11.7540   69.1460 N.am    1  UNL11      -0.3550
     46 H          -9.8890   11.7920   68.9930 H       1  UNL11       0.1620
     47 C         -11.7270   12.9200   68.7990 C.3     1  UNL11       0.0130
     48 H         -12.6690   12.8260   69.3380 H       1  UNL11       0.0720
     49 C         -11.9830   12.9250   67.3090 C.3     1  UNL11      -0.0380
     50 H         -12.2130   11.8930   67.0450 H       1  UNL11       0.0360
     51 H         -12.7220   13.7090   67.1400 H       1  UNL11       0.0360
     52 C         -10.7360   13.3180   66.4870 C.3     1  UNL11       0.0180
     53 H         -10.3630   14.2380   66.9380 H       1  UNL11       0.0480
     54 H         -10.1050   12.4280   66.4650 H       1  UNL11       0.0480
     55 C         -11.0450   13.6610   65.0040 C.2     1  UNL11       0.2590
     56 O         -11.6950   14.6180   64.7290 O.2     1  UNL11      -0.2650
     57 O         -10.5530   12.8110   63.9750 O.3     1  UNL11      -0.3170
     58 C         -10.8120   11.4220   64.1940 C.3     1  UNL11       0.0520
     59 H         -10.8180   11.2900   65.2760 H       1  UNL11       0.0820
     60 H         -11.7040   11.1920   63.6130 H       1  UNL11       0.0820
     61 C          -9.6230   10.6150   63.6070 C.ar    1  UNL11      -0.0340
     62 C          -9.2220    9.4270   64.2100 C.ar    1  UNL11      -0.0750
     63 C          -8.1540    8.7020   63.6840 C.ar    1  UNL11      -0.0820
     64 H          -9.7450    9.0630   65.0950 H       1  UNL11       0.0840
     65 C          -7.4840    9.1710   62.5510 C.ar    1  UNL11      -0.0830
     66 H          -7.8440    7.7700   64.1570 H       1  UNL11       0.0830
     67 C          -7.8850   10.3590   61.9540 C.ar    1  UNL11      -0.0820
     68 H          -6.6480    8.6100   62.1320 H       1  UNL11       0.0830
     69 C          -8.9540   11.0850   62.4760 C.ar    1  UNL11      -0.0750
     70 H          -7.3590   10.7230   61.0720 H       1  UNL11       0.0830
     71 H          -9.2640   12.0170   62.0010 H       1  UNL11       0.0840
     72 C         -11.0120   14.2090   69.1980 C.3     1  UNL11      -0.0390
     73 H          -9.9810   13.9190   69.4000 H       1  UNL11       0.0360
     74 H         -11.2320   14.9210   68.4020 H       1  UNL11       0.0360
     75 C         -11.6060   14.8200   70.5550 C.3     1  UNL11      -0.0010
     76 C         -12.5280   13.6930   71.3200 C.3     1  UNL11      -0.0350
     77 C         -13.7320   14.2400   71.6120 C.3     1  UNL11       0.0850
     78 H         -12.7750   12.8840   70.6330 H       1  UNL11       0.0360
     79 H         -12.1060   13.4680   72.2990 H       1  UNL11       0.0360
     80 N         -13.8350   15.5260   70.8290 N.4     1  UNL11      -0.0490
     81 H         -14.4720   13.5340   71.2340 H       1  UNL11       0.0750
     82 H         -13.6950   14.4740   72.6750 H       1  UNL11       0.0750
     83 C         -12.3390   15.8570   70.3190 C.3     1  UNL11       0.1930
     84 H         -14.4110   15.3260   70.0240 H       1  UNL11       0.2800
     85 H         -14.1150   16.2400   71.4860 H       1  UNL11       0.2800
     86 H         -11.7470   16.6320   70.8060 H       1  UNL11       0.1290
     87 H         -10.8440   15.3240   71.1490 H       1  UNL11       0.0460
     88 O         -12.3550   16.2020   68.9330 O.3     1  UNL11      -0.3690
     89 H         -12.3180   17.1570   68.8410 H       1  UNL11       0.2120
     90 C         -10.6100    9.1350   71.6020 C.3     1  UNL11      -0.0350
     91 H          -9.5700    8.9150   71.8430 H       1  UNL11       0.0370
     92 H         -11.0830   10.0330   72.0010 H       1  UNL11       0.0370
     93 C         -11.4500    7.9250   72.1240 C.3     1  UNL11      -0.0590
     94 H         -12.3610    8.3230   72.5710 H       1  UNL11       0.0380
     95 C         -11.8680    6.9580   70.9710 C.3     1  UNL11      -0.0730
     96 H         -11.4860    5.9590   71.1790 H       1  UNL11       0.0280
     97 H         -12.9560    6.9240   70.9010 H       1  UNL11       0.0280
     98 H         -11.4550    7.3160   70.0280 H       1  UNL11       0.0280
     99 C         -10.6960    7.1700   73.2220 C.3     1  UNL11      -0.0730
    100 H         -10.2970    7.8820   73.9450 H       1  UNL11       0.0280
    101 H         -11.3790    6.4850   73.7250 H       1  UNL11       0.0280
    102 H          -9.8770    6.6050   72.7780 H       1  UNL11       0.0280
@<TRIPOS>BOND
     1    70    67    1
     2    67    69   ar
     3    67    65   ar
     4    71    69    1
     5    68    65    1
     6    69    61   ar
     7    65    63   ar
     8    61    58    1
     9    61    62   ar
    10    60    58    1
    11    63    66    1
    12    63    62   ar
    13    57    58    1
    14    57    55    1
    15    58    59    1
    16    62    64    1
    17    56    55    2
    18    55    52    1
    19    24    23   ar
    20    24    19   ar
    21    23    21   ar
    22    11    10    2
    23    54    52    1
    24    52    53    1
    25    52    49    1
    26    37    35    1
    27     8     7    1
    28    36    35    1
    29    19    16    1
    30    19    20   ar
    31    28    25    1
    32    50    49    1
    33    21    25    1
    34    21    20   ar
    35    51    49    1
    36    17    16    2
    37    35    38    1
    38    35    33    1
    39    16    15   am
    40    26    25    1
    41    49    47    1
    42    14    13    1
    43    10    13    1
    44    10     9   am
    45    25    27    1
    46    15    18    1
    47    15    13    1
    48     5     4    2
    49    20    22    1
    50     7     9    1
    51     7     4    1
    52     7    33    1
    53    13    29    1
    54     9    12    1
    55     4     3   am
    56    74    72    1
    57    33    34    1
    58    33    39    1
    59    41    39    1
    60    47    45    1
    61    47    72    1
    62    47    48    1
    63    89    88    1
    64    88    83    1
    65    46    45    1
    66    45    43   am
    67    72    73    1
    68    72    75    1
    69    39    40    1
    70    39    42    1
    71    29    32    1
    72    29    31    1
    73    29    30    1
    74     3     1    1
    75     3     6    1
    76     2     1    1
    77    43    44    2
    78    43     1    1
    79    84    80    1
    80    98    95    1
    81     1    90    1
    82    83    75    1
    83    83    86    1
    84    83    80    1
    85    75    87    1
    86    75    76    1
    87    78    76    1
    88    80    85    1
    89    80    77    1
    90    97    95    1
    91    95    96    1
    92    95    93    1
    93    81    77    1
    94    76    77    1
    95    76    79    1
    96    90    91    1
    97    90    92    1
    98    90    93    1
    99    77    82    1
   100    93    94    1
   101    93    99    1
   102   102    99    1
   103    99   101    1
   104    99   100    1
@<TRIPOS>MOLECULE
crystal_redock_e32_er3_1.pdbqt
 102 104 0 0 0
SMALL
GASTEIGER

@<TRIPOS>ATOM
      1 C         -11.7770   10.7070   70.3250 C.3     1  UNL11       0.0890
      2 H         -10.9900   10.2930   70.9560 H       1  UNL11       0.0870
      3 N         -11.7400   12.1540   70.4720 N.am    1  UNL11      -0.3460
      4 C         -12.6520   12.8440   71.4560 C.2     1  UNL11       0.2410
      5 O         -13.4090   12.2130   72.1170 O.2     1  UNL11      -0.2710
      6 H         -11.0910   12.6730   69.8990 H       1  UNL11       0.1630
      7 C         -12.5960   14.3420   71.5990 C.3     1  UNL11       0.0920
      8 H         -11.6550   14.6220   72.0720 H       1  UNL11       0.0880
      9 N         -12.6130   14.9610   70.2700 N.am    1  UNL11      -0.3460
     10 C         -11.4100   15.5500   69.7340 C.2     1  UNL11       0.2400
     11 O         -10.4210   15.5360   70.3590 O.2     1  UNL11      -0.2710
     12 H         -13.4600   14.9820   69.7200 H       1  UNL11       0.1630
     13 C         -11.4350   16.2100   68.3200 C.3     1  UNL11       0.0860
     14 H         -12.2290   16.9490   68.2140 H       1  UNL11       0.0860
     15 N         -10.1820   16.9130   68.1060 N.am    1  UNL11      -0.3430
     16 C         -10.2020   18.3370   67.7620 C.2     1  UNL11       0.2730
     17 O         -11.2330   18.9060   67.6570 O.2     1  UNL11      -0.2660
     18 H          -9.3050   16.4180   68.1940 H       1  UNL11       0.1630
     19 C          -8.8840   19.0930   67.5340 C.ar    1  UNL11       0.1540
     20 C          -8.2720   19.4040   66.2790 C.ar    1  UNL11      -0.0170
     21 C          -7.0900   20.1020   66.6140 C.ar    1  UNL11       0.0770
     22 H          -8.6300   19.1610   65.2780 H       1  UNL11       0.0910
     23 O          -7.0400   20.1780   67.9120 O.2     1  UNL11      -0.2180
     24 N          -8.0760   19.5960   68.4710 N.ar    1  UNL11      -0.1230
     25 C          -6.0660   20.6620   65.6360 C.3     1  UNL11      -0.0290
     26 H          -5.5240   19.8400   65.1670 H       1  UNL11       0.0360
     27 H          -6.5760   21.2460   64.8700 H       1  UNL11       0.0360
     28 H          -5.3630   21.3010   66.1720 H       1  UNL11       0.0360
     29 C         -11.6170   15.1450   67.2680 C.3     1  UNL11      -0.0490
     30 H         -11.2620   15.5180   66.3080 H       1  UNL11       0.0300
     31 H         -11.0470   14.2590   67.5470 H       1  UNL11       0.0300
     32 H         -12.6730   14.8890   67.1900 H       1  UNL11       0.0300
     33 C         -13.8300   14.8320   72.4120 C.3     1  UNL11      -0.0330
     34 H         -14.1430   14.0130   73.0600 H       1  UNL11       0.0420
     35 C         -13.4630   16.0410   73.3280 C.3     1  UNL11      -0.0710
     36 H         -12.3970   16.0160   73.5540 H       1  UNL11       0.0280
     37 H         -13.7030   16.9720   72.8130 H       1  UNL11       0.0280
     38 H         -14.0330   15.9800   74.2540 H       1  UNL11       0.0280
     39 C         -15.0220   15.1800   71.4640 C.3     1  UNL11      -0.0710
     40 H         -15.4390   14.2620   71.0520 H       1  UNL11       0.0280
     41 H         -15.7920   15.7080   72.0270 H       1  UNL11       0.0280
     42 H         -14.6670   15.8150   70.6520 H       1  UNL11       0.0280
     43 C         -11.5730   10.3560   68.8240 C.2     1  UNL11       0.2400
     44 O         -12.0380   11.0560   67.9840 O.2     1  UNL11      -0.2710
     45 N         -10.7890    9.1500   68.4320 N.am    1  UNL11      -0.3550
     46 H         -10.3850    8.5490   69.1370 H       1  UNL11       0.1620
     47 C         -10.6020    8.8300   67.0000 C.3     1  UNL11       0.0130
     48 H         -11.5880    8.7550   66.5420 H       1  UNL11       0.0720
     49 C          -9.8720    7.5130   66.8740 C.3     1  UNL11      -0.0380
     50 H         -10.6030    6.8060   66.4800 H       1  UNL11       0.0360
     51 H          -8.9660    7.7320   66.3080 H       1  UNL11       0.0360
     52 C          -9.4100    6.9500   68.2350 C.3     1  UNL11       0.0180
     53 H          -8.3310    7.1040   68.2690 H       1  UNL11       0.0480
     54 H         -10.0510    7.4200   68.9820 H       1  UNL11       0.0480
     55 C          -9.6280    5.4190   68.3870 C.2     1  UNL11       0.2590
     56 O         -10.4110    4.9960   69.1750 O.2     1  UNL11      -0.2650
     57 O          -8.8720    4.5240   67.5800 O.3     1  UNL11      -0.3170
     58 C          -9.6280    3.8990   66.5390 C.3     1  UNL11       0.0520
     59 H          -9.3790    2.8390   66.5890 H       1  UNL11       0.0820
     60 H         -10.6570    4.2240   66.6850 H       1  UNL11       0.0820
     61 C          -9.1250    4.4580   65.1810 C.ar    1  UNL11      -0.0340
     62 C          -7.9920    5.2640   65.1360 C.ar    1  UNL11      -0.0750
     63 C          -7.5400    5.7660   63.9170 C.ar    1  UNL11      -0.0820
     64 H          -7.4580    5.5020   66.0560 H       1  UNL11       0.0840
     65 C          -8.2280    5.4620   62.7390 C.ar    1  UNL11      -0.0830
     66 H          -6.6510    6.3960   63.8840 H       1  UNL11       0.0830
     67 C          -9.3600    4.6600   62.7890 C.ar    1  UNL11      -0.0820
     68 H          -7.8810    5.8500   61.7810 H       1  UNL11       0.0830
     69 C          -9.8140    4.1540   64.0050 C.ar    1  UNL11      -0.0750
     70 H          -9.8960    4.4260   61.8680 H       1  UNL11       0.0830
     71 H         -10.7030    3.5240   64.0360 H       1  UNL11       0.0840
     72 C          -9.7870    9.9320   66.3270 C.3     1  UNL11      -0.0390
     73 H         -10.0930   10.8580   66.8150 H       1  UNL11       0.0360
     74 H          -8.7500    9.6030   66.3860 H       1  UNL11       0.0360
     75 C         -10.1510   10.0740   64.7740 C.3     1  UNL11      -0.0010
     76 C          -8.8740    9.5990   63.8530 C.3     1  UNL11      -0.0350
     77 C          -8.6040   10.5700   62.9480 C.3     1  UNL11       0.0850
     78 H          -7.9710    9.5580   64.4610 H       1  UNL11       0.0360
     79 H          -9.1550    8.7460   63.2360 H       1  UNL11       0.0360
     80 N          -9.3660   11.8000   63.3790 N.4     1  UNL11      -0.0490
     81 H          -7.5340   10.7640   63.0400 H       1  UNL11       0.0750
     82 H          -9.0130   10.2110   62.0050 H       1  UNL11       0.0750
     83 C         -10.4420   11.2960   64.4710 C.3     1  UNL11       0.1930
     84 H          -8.6990   12.4030   63.8390 H       1  UNL11       0.2800
     85 H          -9.8650   12.1270   62.5640 H       1  UNL11       0.2800
     86 H         -11.4940   11.1890   64.2050 H       1  UNL11       0.1290
     87 H         -11.1230    9.6400   64.5360 H       1  UNL11       0.0460
     88 O         -10.4230   12.1530   65.6140 O.3     1  UNL11      -0.3690
     89 H          -9.5420   12.1590   65.9950 H       1  UNL11       0.2120
     90 C         -13.1320   10.1960   70.7900 C.3     1  UNL11      -0.0350
     91 H         -13.6210   11.0530   71.2530 H       1  UNL11       0.0370
     92 H         -13.5770    9.7220   69.9150 H       1  UNL11       0.0370
     93 C         -13.0410    9.0920   71.8910 C.3     1  UNL11      -0.0590
     94 H         -13.1610    9.5790   72.8590 H       1  UNL11       0.0380
     95 C         -14.1730    8.0250   71.7510 C.3     1  UNL11      -0.0730
     96 H         -13.7370    7.0670   71.4670 H       1  UNL11       0.0280
     97 H         -14.6920    7.9190   72.7040 H       1  UNL11       0.0280
     98 H         -14.8800    8.3440   70.9850 H       1  UNL11       0.0280
     99 C         -11.6620    8.4270   71.8860 C.3     1  UNL11      -0.0730
    100 H         -11.1070    8.7330   72.7730 H       1  UNL11       0.0280
    101 H         -11.7820    7.3430   71.8880 H       1  UNL11       0.0280
    102 H         -11.1160    8.7290   70.9930 H       1  UNL11       0.0280
@<TRIPOS>BOND
     1    68    65    1
     2    70    67    1
     3    82    77    1
     4    85    80    1
     5    65    67   ar
     6    65    63   ar
     7    67    69   ar
     8    77    81    1
     9    77    80    1
    10    77    76    1
    11    79    76    1
    12    80    84    1
    13    80    83    1
    14    76    78    1
    15    76    75    1
    16    66    63    1
    17    63    62   ar
    18    69    71    1
    19    69    61   ar
    20    86    83    1
    21    83    75    1
    22    83    88    1
    23    87    75    1
    24    75    72    1
    25    27    25    1
    26    62    61   ar
    27    62    64    1
    28    26    25    1
    29    61    58    1
    30    22    20    1
    31    88    89    1
    32    25    28    1
    33    25    21    1
    34    20    21   ar
    35    20    19   ar
    36    30    29    1
    37    51    49    1
    38    72    74    1
    39    72    73    1
    40    72    47    1
    41    50    49    1
    42    58    59    1
    43    58    60    1
    44    58    57    1
    45    48    47    1
    46    21    23   ar
    47    49    47    1
    48    49    52    1
    49    47    45    1
    50    32    29    1
    51    29    31    1
    52    29    13    1
    53    19    16    1
    54    19    24   ar
    55    57    55    1
    56    17    16    2
    57    16    15   am
    58    23    24   ar
    59    44    43    2
    60    15    18    1
    61    15    13    1
    62    14    13    1
    63    52    53    1
    64    52    55    1
    65    52    54    1
    66    13    10    1
    67    55    56    2
    68    45    43   am
    69    45    46    1
    70    43     1    1
    71    12     9    1
    72    10     9   am
    73    10    11    2
    74     6     3    1
    75    92    90    1
    76     9     7    1
    77     1     3    1
    78     1    90    1
    79     1     2    1
    80     3     4   am
    81    42    39    1
    82    90    91    1
    83    90    93    1
    84    98    95    1
    85   102    99    1
    86    40    39    1
    87     4     7    1
    88     4     5    2
    89    39    41    1
    90    39    33    1
    91    96    95    1
    92     7     8    1
    93     7    33    1
    94    95    93    1
    95    95    97    1
    96    99   101    1
    97    99    93    1
    98    99   100    1
    99    93    94    1
   100    33    34    1
   101    33    35    1
   102    37    35    1
   103    35    36    1
   104    35    38    1
@<TRIPOS>MOLECULE
crystal_redock_e32_er3_1.pdbqt
 102 104 0 0 0
SMALL
GASTEIGER

@<TRIPOS>ATOM
      1 C          -8.2870    6.2760   63.5720 C.3     1  UNL11       0.0890
      2 H          -8.9210    6.4450   62.7010 H       1  UNL11       0.0870
      3 N          -8.1430    7.5490   64.2630 N.am    1  UNL11      -0.3460
      4 C          -8.3270    8.8460   63.5160 C.2     1  UNL11       0.2410
      5 O          -8.5880    8.8400   62.3580 O.2     1  UNL11      -0.2710
      6 H          -7.9180    7.5320   65.2480 H       1  UNL11       0.1630
      7 C          -8.1790   10.1540   64.2480 C.3     1  UNL11       0.0920
      8 H          -7.7440   10.8940   63.5760 H       1  UNL11       0.0880
      9 N          -9.5030   10.6480   64.6380 N.am    1  UNL11      -0.3460
     10 C         -10.1670   11.6420   63.8310 C.2     1  UNL11       0.2400
     11 O          -9.6510   12.0560   62.8660 O.2     1  UNL11      -0.2710
     12 H          -9.9610   10.3020   65.4690 H       1  UNL11       0.1630
     13 C         -11.5750   12.1660   64.2530 C.3     1  UNL11       0.0860
     14 H         -11.8890   11.7930   65.2270 H       1  UNL11       0.0860
     15 N         -11.5260   13.6150   64.3580 N.am    1  UNL11      -0.3430
     16 C         -10.7450   14.2340   65.4310 C.2     1  UNL11       0.2730
     17 O         -10.1610   13.5580   66.2050 O.2     1  UNL11      -0.2660
     18 H         -12.0300   14.1850   63.6930 H       1  UNL11       0.1630
     19 C         -10.6830   15.7650   65.5530 C.ar    1  UNL11       0.1540
     20 C         -10.2130   16.5250   66.6710 C.ar    1  UNL11      -0.0170
     21 C         -10.3640   17.8750   66.2820 C.ar    1  UNL11       0.0770
     22 H          -9.8220   16.1540   67.6180 H       1  UNL11       0.0910
     23 O         -10.8620   17.8780   65.0800 O.2     1  UNL11      -0.2180
     24 N         -11.0570   16.6590   64.6340 N.ar    1  UNL11      -0.1230
     25 C         -10.0090   19.0980   67.1170 C.3     1  UNL11      -0.0290
     26 H         -10.5390   19.9690   66.7300 H       1  UNL11       0.0360
     27 H         -10.2980   18.9270   68.1530 H       1  UNL11       0.0360
     28 H          -8.9340   19.2750   67.0640 H       1  UNL11       0.0360
     29 C         -12.5960   11.7570   63.2220 C.3     1  UNL11      -0.0490
     30 H         -12.2020   11.9480   62.2240 H       1  UNL11       0.0300
     31 H         -12.8160   10.6950   63.3300 H       1  UNL11       0.0300
     32 H         -13.5090   12.3340   63.3670 H       1  UNL11       0.0300
     33 C          -7.3120    9.9400   65.5230 C.3     1  UNL11      -0.0330
     34 H          -7.3970    8.8900   65.8060 H       1  UNL11       0.0420
     35 C          -5.8050   10.2280   65.2410 C.3     1  UNL11      -0.0710
     36 H          -5.6500   11.3050   65.1640 H       1  UNL11       0.0280
     37 H          -5.2000    9.8330   66.0570 H       1  UNL11       0.0280
     38 H          -5.5120    9.7510   64.3070 H       1  UNL11       0.0280
     39 C          -7.8420   10.8050   66.7120 C.3     1  UNL11      -0.0710
     40 H          -8.7020   10.3120   67.1650 H       1  UNL11       0.0280
     41 H          -7.0540   10.9200   67.4570 H       1  UNL11       0.0280
     42 H          -8.1390   11.7860   66.3420 H       1  UNL11       0.0280
     43 C          -8.9070    5.2450   64.5580 C.2     1  UNL11       0.2400
     44 O          -9.5750    4.3550   64.1400 O.2     1  UNL11      -0.2710
     45 N          -8.6600    5.3620   66.0240 N.am    1  UNL11      -0.3550
     46 H          -8.0900    6.1100   66.3900 H       1  UNL11       0.1620
     47 C          -9.2550    4.3720   66.9480 C.3     1  UNL11       0.0130
     48 H         -10.1020    3.9080   66.4430 H       1  UNL11       0.0720
     49 C          -9.7240    5.0780   68.2010 C.3     1  UNL11      -0.0380
     50 H         -10.1520    4.3000   68.8340 H       1  UNL11       0.0360
     51 H          -8.8700    5.6570   68.5500 H       1  UNL11       0.0360
     52 C         -10.8570    6.0910   67.9290 C.3     1  UNL11       0.0180
     53 H         -11.3490    5.7480   67.0180 H       1  UNL11       0.0480
     54 H         -11.4210    6.1610   68.8590 H       1  UNL11       0.0480
     55 C         -10.3520    7.5290   67.6260 C.2     1  UNL11       0.2590
     56 O         -10.3450    7.9440   66.5130 O.2     1  UNL11      -0.2650
     57 O          -9.8840    8.3430   68.6950 O.3     1  UNL11      -0.3170
     58 C         -10.3280    7.9180   69.9870 C.3     1  UNL11       0.0520
     59 H         -10.8810    6.9940   69.8200 H       1  UNL11       0.0820
     60 H          -9.4390    7.9130   70.6180 H       1  UNL11       0.0820
     61 C         -11.3110    8.9880   70.5320 C.ar    1  UNL11      -0.0340
     62 C         -11.3000   10.2760   70.0060 C.ar    1  UNL11      -0.0750
     63 C         -12.1830   11.2370   70.4960 C.ar    1  UNL11      -0.0820
     64 H         -10.6010   10.5310   69.2100 H       1  UNL11       0.0840
     65 C         -13.0770   10.9070   71.5180 C.ar    1  UNL11      -0.0830
     66 H         -12.1740   12.2450   70.0790 H       1  UNL11       0.0830
     67 C         -13.0810    9.6220   72.0420 C.ar    1  UNL11      -0.0820
     68 H         -13.7710   11.6530   71.9060 H       1  UNL11       0.0830
     69 C         -12.2020    8.6570   71.5540 C.ar    1  UNL11      -0.0750
     70 H         -13.7790    9.3690   72.8410 H       1  UNL11       0.0830
     71 H         -12.2120    7.6500   71.9710 H       1  UNL11       0.0840
     72 C          -8.2130    3.3180   67.3170 C.3     1  UNL11      -0.0390
     73 H          -8.5500    2.3980   66.8380 H       1  UNL11       0.0360
     74 H          -7.2520    3.7530   67.0460 H       1  UNL11       0.0360
     75 C          -8.1800    3.0440   68.8950 C.3     1  UNL11      -0.0010
     76 C          -6.9620    3.9040   69.5870 C.3     1  UNL11      -0.0350
     77 C          -6.2110    3.0660   70.3420 C.3     1  UNL11       0.0850
     78 H          -6.2670    4.2490   68.8220 H       1  UNL11       0.0360
     79 H          -7.3670    4.6080   70.3140 H       1  UNL11       0.0360
     80 N          -6.6090    1.6590   69.9680 N.4     1  UNL11      -0.0490
     81 H          -5.1800    3.2380   70.0300 H       1  UNL11       0.0750
     82 H          -6.5080    3.2570   71.3720 H       1  UNL11       0.0750
     83 C          -7.9930    1.7910   69.1480 C.3     1  UNL11       0.1930
     84 H          -5.8950    1.3160   69.3410 H       1  UNL11       0.2800
     85 H          -6.7940    1.1740   70.8350 H       1  UNL11       0.2800
     86 H          -8.9430    1.5400   69.6200 H       1  UNL11       0.1290
     87 H          -9.1680    3.1290   69.3490 H       1  UNL11       0.0460
     88 O          -7.9380    1.0030   67.9570 O.3     1  UNL11      -0.3690
     89 H          -8.7090    0.4340   67.9150 H       1  UNL11       0.2120
     90 C          -6.9160    5.7960   63.1250 C.3     1  UNL11      -0.0350
     91 H          -6.9240    4.7160   63.2760 H       1  UNL11       0.0370
     92 H          -6.7790    6.2050   62.1240 H       1  UNL11       0.0370
     93 C          -5.7430    6.3530   63.9940 C.3     1  UNL11      -0.0590
     94 H          -6.1780    6.9600   64.7870 H       1  UNL11       0.0380
     95 C          -4.9140    5.2120   64.6670 C.3     1  UNL11      -0.0730
     96 H          -5.5930    4.4690   65.0860 H       1  UNL11       0.0280
     97 H          -4.2740    4.7390   63.9210 H       1  UNL11       0.0280
     98 H          -4.2980    5.6310   65.4620 H       1  UNL11       0.0280
     99 C          -4.8370    7.2680   63.1660 C.3     1  UNL11      -0.0730
    100 H          -4.1650    6.6620   62.5580 H       1  UNL11       0.0280
    101 H          -5.4500    7.8940   62.5170 H       1  UNL11       0.0280
    102 H          -4.2530    7.9010   63.8340 H       1  UNL11       0.0280
@<TRIPOS>BOND
     1    92    90    1
     2    30    29    1
     3     5     4    2
     4   101    99    1
     5   100    99    1
     6     2     1    1
     7    11    10    2
     8    90    91    1
     9    90     1    1
    10    90    93    1
    11    99   102    1
    12    99    93    1
    13    29    31    1
    14    29    32    1
    15    29    13    1
    16     4     7    1
    17     4     3   am
    18     1     3    1
    19     1    43    1
    20     8     7    1
    21    18    15    1
    22    10    13    1
    23    10     9   am
    24    97    95    1
    25    93    95    1
    26    93    94    1
    27    44    43    2
    28     7     9    1
    29     7    33    1
    30    13    15    1
    31    13    14    1
    32     3     6    1
    33    38    35    1
    34    15    16   am
    35    43    45   am
    36    24    23   ar
    37    24    19   ar
    38     9    12    1
    39    95    96    1
    40    95    98    1
    41    23    21   ar
    42    36    35    1
    43    35    33    1
    44    35    37    1
    45    16    19    1
    46    16    17    2
    47    33    34    1
    48    33    39    1
    49    19    20   ar
    50    45    46    1
    51    45    47    1
    52    21    20   ar
    53    21    25    1
    54    42    39    1
    55    48    47    1
    56    56    55    2
    57    20    22    1
    58    39    40    1
    59    39    41    1
    60    26    25    1
    61    73    72    1
    62    47    72    1
    63    47    49    1
    64    53    52    1
    65    74    72    1
    66    28    25    1
    67    25    27    1
    68    72    75    1
    69    55    52    1
    70    55    57    1
    71    89    88    1
    72    52    49    1
    73    52    54    1
    74    88    83    1
    75    49    51    1
    76    49    50    1
    77    57    58    1
    78    78    76    1
    79    75    83    1
    80    75    87    1
    81    75    76    1
    82    83    86    1
    83    83    80    1
    84    64    62    1
    85    84    80    1
    86    76    79    1
    87    76    77    1
    88    59    58    1
    89    80    77    1
    90    80    85    1
    91    58    61    1
    92    58    60    1
    93    62    63   ar
    94    62    61   ar
    95    81    77    1
    96    66    63    1
    97    77    82    1
    98    63    65   ar
    99    61    69   ar
   100    65    68    1
   101    65    67   ar
   102    69    71    1
   103    69    67   ar
   104    67    70    1
@<TRIPOS>MOLECULE
crystal_redock_e32_er3_1.pdbqt
 102 104 0 0 0
SMALL
GASTEIGER

@<TRIPOS>ATOM
      1 C          -8.8280    8.8920   69.5860 C.3     1  UNL11       0.0890
      2 H          -8.4210    8.7180   70.5830 H       1  UNL11       0.0870
      3 N          -8.2440   10.1260   69.0830 N.am    1  UNL11      -0.3460
      4 C          -7.0680   10.7550   69.7860 C.2     1  UNL11       0.2410
      5 O          -6.6090   10.2490   70.7580 O.2     1  UNL11      -0.2710
      6 H          -8.6510   10.5420   68.2570 H       1  UNL11       0.1630
      7 C          -6.4730   12.0300   69.2490 C.3     1  UNL11       0.0920
      8 H          -6.1400   11.8650   68.2240 H       1  UNL11       0.0880
      9 N          -7.5030   13.0710   69.2080 N.am    1  UNL11      -0.3460
     10 C          -8.1050   13.4400   67.9500 C.2     1  UNL11       0.2400
     11 O          -7.7710   12.9100   66.9610 O.2     1  UNL11      -0.2710
     12 H          -7.8010   13.5380   70.0520 H       1  UNL11       0.1630
     13 C          -9.2000   14.5520   67.9120 C.3     1  UNL11       0.0860
     14 H          -9.9720   14.3580   67.1680 H       1  UNL11       0.0860
     15 N          -9.8690   14.5990   69.2020 N.am    1  UNL11      -0.3430
     16 C         -11.3050   14.8760   69.2600 C.2     1  UNL11       0.2730
     17 O         -11.9130   15.0630   68.2630 O.2     1  UNL11      -0.2660
     18 H          -9.3410   14.4400   70.0490 H       1  UNL11       0.1630
     19 C         -12.0260   14.9270   70.6160 C.ar    1  UNL11       0.1540
     20 C         -11.6060   15.6250   71.7930 C.ar    1  UNL11      -0.0170
     21 C         -12.6060   15.3540   72.7520 C.ar    1  UNL11       0.0770
     22 H         -10.7120   16.2340   71.9290 H       1  UNL11       0.0910
     23 O         -13.4930   14.5910   72.1830 O.2     1  UNL11      -0.2180
     24 N         -13.1760   14.3270   70.9370 N.ar    1  UNL11      -0.1230
     25 C         -12.6400   15.8640   74.1870 C.3     1  UNL11      -0.0290
     26 H         -13.5200   16.4920   74.3300 H       1  UNL11       0.0360
     27 H         -12.6840   15.0170   74.8720 H       1  UNL11       0.0360
     28 H         -11.7410   16.4470   74.3880 H       1  UNL11       0.0360
     29 C          -8.5580   15.8830   67.6150 C.3     1  UNL11      -0.0490
     30 H          -9.2080   16.6860   67.9630 H       1  UNL11       0.0300
     31 H          -7.5970   15.9460   68.1260 H       1  UNL11       0.0300
     32 H          -8.4050   15.9800   66.5400 H       1  UNL11       0.0300
     33 C          -5.3100   12.4900   70.1750 C.3     1  UNL11      -0.0330
     34 H          -5.1210   11.6890   70.8890 H       1  UNL11       0.0420
     35 C          -3.9950   12.7180   69.3670 C.3     1  UNL11      -0.0710
     36 H          -3.1380   12.4360   69.9800 H       1  UNL11       0.0280
     37 H          -4.0130   12.1070   68.4650 H       1  UNL11       0.0280
     38 H          -3.9150   13.7690   69.0920 H       1  UNL11       0.0280
     39 C          -5.7090   13.7690   70.9800 C.3     1  UNL11      -0.0710
     40 H          -4.9830   13.9410   71.7740 H       1  UNL11       0.0280
     41 H          -5.7250   14.6300   70.3100 H       1  UNL11       0.0280
     42 H          -6.6980   13.6300   71.4150 H       1  UNL11       0.0280
     43 C          -8.4780    7.7410   68.6000 C.2     1  UNL11       0.2400
     44 O          -8.7210    6.6150   68.8950 O.2     1  UNL11      -0.2710
     45 N          -7.8470    8.0420   67.2840 N.am    1  UNL11      -0.3550
     46 H          -7.6400    8.9950   67.0200 H       1  UNL11       0.1620
     47 C          -7.5210    6.9370   66.3570 C.3     1  UNL11       0.0130
     48 H          -7.2950    6.0540   66.9540 H       1  UNL11       0.0720
     49 C          -6.3180    7.3200   65.5260 C.3     1  UNL11      -0.0380
     50 H          -5.4750    6.7850   65.9630 H       1  UNL11       0.0360
     51 H          -6.6040    7.1330   64.4900 H       1  UNL11       0.0360
     52 C          -5.9770    8.8230   65.6200 C.3     1  UNL11       0.0180
     53 H          -6.2550    9.1250   66.6300 H       1  UNL11       0.0480
     54 H          -4.9420    8.9130   65.2900 H       1  UNL11       0.0480
     55 C          -6.8120    9.7160   64.6610 C.2     1  UNL11       0.2590
     56 O          -6.3790   10.0310   63.6000 O.2     1  UNL11      -0.2650
     57 O          -8.0990   10.1640   65.0700 O.3     1  UNL11      -0.3170
     58 C          -9.1000   10.0670   64.0520 C.3     1  UNL11       0.0520
     59 H          -8.6240   10.4170   63.1360 H       1  UNL11       0.0820
     60 H          -9.4830    9.0490   64.1120 H       1  UNL11       0.0820
     61 C         -10.2480   11.0460   64.4150 C.ar    1  UNL11      -0.0340
     62 C         -10.5680   11.2820   65.7480 C.ar    1  UNL11      -0.0750
     63 C         -11.5990   12.1610   66.0740 C.ar    1  UNL11      -0.0820
     64 H         -10.0100   10.7780   66.5380 H       1  UNL11       0.0840
     65 C         -12.3140   12.8040   65.0600 C.ar    1  UNL11      -0.0830
     66 H         -11.8460   12.3450   67.1200 H       1  UNL11       0.0830
     67 C         -11.9940   12.5630   63.7310 C.ar    1  UNL11      -0.0820
     68 H         -13.1220   13.4940   65.3060 H       1  UNL11       0.0830
     69 C         -10.9620   11.6870   63.4010 C.ar    1  UNL11      -0.0750
     70 H         -12.5550   13.0650   62.9420 H       1  UNL11       0.0830
     71 H         -10.7160   11.5040   62.3550 H       1  UNL11       0.0840
     72 C          -8.7100    6.6660   65.4380 C.3     1  UNL11      -0.0390
     73 H          -9.5520    7.1900   65.8910 H       1  UNL11       0.0360
     74 H          -8.3730    6.9390   64.4380 H       1  UNL11       0.0360
     75 C          -9.0880    5.1090   65.4000 C.3     1  UNL11      -0.0010
     76 C          -9.2330    4.6050   63.8420 C.3     1  UNL11      -0.0350
     77 C         -10.4190    3.9680   63.6970 C.3     1  UNL11       0.0850
     78 H          -9.3220    5.4650   63.1780 H       1  UNL11       0.0360
     79 H          -8.4980    3.8280   63.6310 H       1  UNL11       0.0360
     80 N         -11.2380    4.2770   64.9270 N.4     1  UNL11      -0.0490
     81 H         -10.8930    4.4280   62.8300 H       1  UNL11       0.0750
     82 H         -10.1790    2.9050   63.6880 H       1  UNL11       0.0750
     83 C         -10.2050    4.8850   66.0080 C.3     1  UNL11       0.1930
     84 H         -11.8900    5.0010   64.6630 H       1  UNL11       0.2800
     85 H         -11.5810    3.3910   65.2730 H       1  UNL11       0.2800
     86 H          -9.8570    4.2770   66.8440 H       1  UNL11       0.1290
     87 H          -8.4530    4.5140   66.0570 H       1  UNL11       0.0460
     88 O         -10.7470    6.0690   66.5960 O.3     1  UNL11      -0.3690
     89 H         -11.6410    5.8960   66.8970 H       1  UNL11       0.2120
     90 C         -10.3370    9.0540   69.6670 C.3     1  UNL11      -0.0350
     91 H         -10.5160   10.1280   69.6100 H       1  UNL11       0.0370
     92 H         -10.7400    8.3930   68.8990 H       1  UNL11       0.0370
     93 C         -10.9470    8.5760   71.0240 C.3     1  UNL11      -0.0590
     94 H         -11.4030    7.6010   70.8570 H       1  UNL11       0.0380
     95 C          -9.8580    8.4090   72.1320 C.3     1  UNL11      -0.0730
     96 H          -9.0170    9.0670   71.9170 H       1  UNL11       0.0280
     97 H         -10.2840    8.6700   73.1020 H       1  UNL11       0.0280
     98 H          -9.5160    7.3740   72.1520 H       1  UNL11       0.0280
     99 C         -12.0560    9.5230   71.4880 C.3     1  UNL11      -0.0730
    100 H         -12.1150    9.5090   72.5770 H       1  UNL11       0.0280
    101 H         -11.8340   10.5360   71.1500 H       1  UNL11       0.0280
    102 H         -13.0090    9.2010   71.0680 H       1  UNL11       0.0280
@<TRIPOS>BOND
     1    71    69    1
     2    81    77    1
     3    70    67    1
     4    59    58    1
     5    78    76    1
     6    69    67   ar
     7    69    61   ar
     8    56    55    2
     9    79    76    1
    10    82    77    1
    11    77    76    1
    12    77    80    1
    13    67    65   ar
    14    76    75    1
    15    58    60    1
    16    58    61    1
    17    58    57    1
    18    61    62   ar
    19    74    72    1
    20    51    49    1
    21    55    57    1
    22    55    52    1
    23    84    80    1
    24    80    85    1
    25    80    83    1
    26    65    68    1
    27    65    63   ar
    28    54    52    1
    29    75    72    1
    30    75    83    1
    31    75    87    1
    32    72    73    1
    33    72    47    1
    34    49    52    1
    35    49    50    1
    36    49    47    1
    37    52    53    1
    38    62    63   ar
    39    62    64    1
    40    83    88    1
    41    83    86    1
    42    63    66    1
    43    47    48    1
    44    47    45    1
    45    32    29    1
    46    88    89    1
    47    11    10    2
    48    46    45    1
    49    14    13    1
    50    45    43   am
    51    29    13    1
    52    29    30    1
    53    29    31    1
    54    13    10    1
    55    13    15    1
    56    10     9   am
    57     8     7    1
    58     6     3    1
    59    17    16    2
    60    37    35    1
    61    43    44    2
    62    43     1    1
    63    92    90    1
    64     3     1    1
    65     3     4   am
    66    38    35    1
    67    15    16   am
    68    15    18    1
    69     9     7    1
    70     9    12    1
    71     7     4    1
    72     7    33    1
    73    16    19    1
    74    35    36    1
    75    35    33    1
    76     1    90    1
    77     1     2    1
    78    91    90    1
    79    90    93    1
    80     4     5    2
    81    33    34    1
    82    33    39    1
    83    41    39    1
    84    19    24   ar
    85    19    20   ar
    86    94    93    1
    87    24    23   ar
    88    39    42    1
    89    39    40    1
    90    93    99    1
    91    93    95    1
    92   102    99    1
    93   101    99    1
    94    99   100    1
    95    20    22    1
    96    20    21   ar
    97    96    95    1
    98    95    98    1
    99    95    97    1
   100    23    21   ar
   101    21    25    1
   102    25    26    1
   103    25    28    1
   104    25    27    1
@<TRIPOS>MOLECULE
crystal_redock_e32_er3_1.pdbqt
 102 104 0 0 0
SMALL
GASTEIGER

@<TRIPOS>ATOM
      1 C          -8.7230   13.5430   68.4540 C.3     1  UNL11       0.0890
      2 H          -8.7850   14.6300   68.5150 H       1  UNL11       0.0870
      3 N          -9.8640   12.9980   69.1750 N.am    1  UNL11      -0.3460
      4 C         -11.1730   13.7450   69.2040 C.2     1  UNL11       0.2410
      5 O         -11.2840   14.7850   68.6430 O.2     1  UNL11      -0.2710
      6 H          -9.7480   12.1130   69.6480 H       1  UNL11       0.1630
      7 C         -12.3450   13.1630   69.9500 C.3     1  UNL11       0.0920
      8 H         -13.1590   12.9760   69.2500 H       1  UNL11       0.0880
      9 N         -11.9650   11.8700   70.5270 N.am    1  UNL11      -0.3460
     10 C         -11.9900   10.6810   69.7100 C.2     1  UNL11       0.2400
     11 O         -12.3150   10.7470   68.5880 O.2     1  UNL11      -0.2710
     12 H         -11.6840   11.7970   71.4940 H       1  UNL11       0.1630
     13 C         -11.5870    9.3070   70.3300 C.3     1  UNL11       0.0860
     14 H         -12.4210    8.8060   70.8210 H       1  UNL11       0.0860
     15 N         -11.1380    8.4240   69.2670 N.am    1  UNL11      -0.3430
     16 C         -11.2450    6.9740   69.4410 C.2     1  UNL11       0.2730
     17 O         -11.6920    6.5280   70.4410 O.2     1  UNL11      -0.2660
     18 H         -10.7550    8.8130   68.4170 H       1  UNL11       0.1630
     19 C         -10.7760    6.0280   68.3250 C.ar    1  UNL11       0.1540
     20 C          -9.8940    4.9080   68.4540 C.ar    1  UNL11      -0.0170
     21 C          -9.7850    4.3790   67.1490 C.ar    1  UNL11       0.0770
     22 H          -9.4070    4.5370   69.3560 H       1  UNL11       0.0910
     23 O         -10.5230    5.1140   66.3700 O.2     1  UNL11      -0.2180
     24 N         -11.1110    6.0830   67.0330 N.ar    1  UNL11      -0.1230
     25 C          -8.9570    3.1700   66.7320 C.3     1  UNL11      -0.0290
     26 H          -9.5490    2.5330   66.0750 H       1  UNL11       0.0360
     27 H          -8.0640    3.5060   66.2060 H       1  UNL11       0.0360
     28 H          -8.6660    2.6060   67.6190 H       1  UNL11       0.0360
     29 C         -10.4810    9.5110   71.3340 C.3     1  UNL11      -0.0490
     30 H          -9.7210    8.7420   71.1990 H       1  UNL11       0.0300
     31 H         -10.0340   10.4950   71.1880 H       1  UNL11       0.0300
     32 H         -10.8890    9.4440   72.3430 H       1  UNL11       0.0300
     33 C         -12.7670   14.1330   71.0920 C.3     1  UNL11      -0.0330
     34 H         -13.4350   14.8780   70.6610 H       1  UNL11       0.0420
     35 C         -13.5580   13.3850   72.2110 C.3     1  UNL11      -0.0710
     36 H         -14.6060   13.6820   72.1740 H       1  UNL11       0.0280
     37 H         -13.4800   12.3100   72.0530 H       1  UNL11       0.0280
     38 H         -13.1400   13.6420   73.1840 H       1  UNL11       0.0280
     39 C         -11.5250   14.8790   71.6790 C.3     1  UNL11      -0.0710
     40 H         -10.7920   14.1500   72.0210 H       1  UNL11       0.0280
     41 H         -11.0800   15.5070   70.9060 H       1  UNL11       0.0280
     42 H         -11.8390   15.5010   72.5170 H       1  UNL11       0.0280
     43 C          -8.7750   13.0330   66.9850 C.2     1  UNL11       0.2400
     44 O          -7.7640   12.7990   66.4050 O.2     1  UNL11      -0.2710
     45 N         -10.0850   12.8280   66.3050 N.am    1  UNL11      -0.3550
     46 H         -10.9500   13.0190   66.7890 H       1  UNL11       0.1620
     47 C         -10.1170   12.3410   64.9090 C.3     1  UNL11       0.0130
     48 H          -9.1420   12.5360   64.4630 H       1  UNL11       0.0720
     49 C         -11.1920   13.0820   64.1460 C.3     1  UNL11      -0.0380
     50 H         -10.6730   13.6150   63.3490 H       1  UNL11       0.0360
     51 H         -11.9470   12.3350   63.9010 H       1  UNL11       0.0360
     52 C         -11.9010   14.1560   65.0000 C.3     1  UNL11       0.0180
     53 H         -12.9480   13.8550   65.0440 H       1  UNL11       0.0480
     54 H         -11.3180   14.2360   65.9180 H       1  UNL11       0.0480
     55 C         -11.8890   15.5720   64.3610 C.2     1  UNL11       0.2590
     56 O         -12.7470   15.9010   63.6070 O.2     1  UNL11      -0.2650
     57 O         -10.8330   16.4710   64.6770 O.3     1  UNL11      -0.3170
     58 C         -10.2550   16.2580   65.9680 C.3     1  UNL11       0.0520
     59 H         -11.0330   15.7810   66.5650 H       1  UNL11       0.0820
     60 H          -9.3120   15.7420   65.7890 H       1  UNL11       0.0820
     61 C          -9.9430   17.6470   66.5880 C.ar    1  UNL11      -0.0340
     62 C          -9.1320   17.7410   67.7140 C.ar    1  UNL11      -0.0750
     63 C          -8.8520   18.9880   68.2710 C.ar    1  UNL11      -0.0820
     64 H          -8.7160   16.8380   68.1600 H       1  UNL11       0.0840
     65 C          -9.3890   20.1440   67.6980 C.ar    1  UNL11      -0.0830
     66 H          -8.2140   19.0590   69.1520 H       1  UNL11       0.0830
     67 C         -10.2000   20.0450   66.5760 C.ar    1  UNL11      -0.0820
     68 H          -9.1750   21.1230   68.1260 H       1  UNL11       0.0830
     69 C         -10.4810   18.8010   66.0150 C.ar    1  UNL11      -0.0750
     70 H         -10.6200   20.9490   66.1320 H       1  UNL11       0.0830
     71 H         -11.1180   18.7310   65.1330 H       1  UNL11       0.0840
     72 C         -10.4190   10.8440   64.8910 C.3     1  UNL11      -0.0390
     73 H         -11.1210   10.6800   65.7090 H       1  UNL11       0.0360
     74 H         -10.7160   10.6200   63.8660 H       1  UNL11       0.0360
     75 C          -9.1130    9.9720   65.2070 C.3     1  UNL11      -0.0010
     76 C          -8.5580    9.2740   63.8250 C.3     1  UNL11      -0.0350
     77 C          -8.3900    7.9480   64.0440 C.3     1  UNL11       0.0850
     78 H          -9.3270    9.3090   63.0540 H       1  UNL11       0.0360
     79 H          -7.5500    9.6260   63.6070 H       1  UNL11       0.0360
     80 N          -9.0870    7.6220   65.3420 N.4     1  UNL11      -0.0490
     81 H          -8.9120    7.4490   63.2260 H       1  UNL11       0.0750
     82 H          -7.3170    7.8070   64.1720 H       1  UNL11       0.0750
     83 C          -9.3690    9.0390   66.0620 C.3     1  UNL11       0.1930
     84 H          -9.9730    7.2050   65.0950 H       1  UNL11       0.2800
     85 H          -8.4240    7.1040   65.9010 H       1  UNL11       0.2800
     86 H          -8.7550    9.3660   66.9020 H       1  UNL11       0.1290
     87 H          -8.3890   10.5170   65.8120 H       1  UNL11       0.0460
     88 O         -10.7180    9.0940   66.5320 O.3     1  UNL11      -0.3690
     89 H         -11.1010    9.9440   66.3050 H       1  UNL11       0.2120
     90 C          -7.4420   13.0630   69.1170 C.3     1  UNL11      -0.0350
     91 H          -7.7500   12.6580   70.0810 H       1  UNL11       0.0370
     92 H          -6.9610   12.4160   68.3830 H       1  UNL11       0.0370
     93 C          -6.4270   14.2110   69.4250 C.3     1  UNL11      -0.0590
     94 H          -5.9780   14.0030   70.3960 H       1  UNL11       0.0380
     95 C          -5.2760   14.2770   68.3710 C.3     1  UNL11      -0.0730
     96 H          -4.4270   14.8140   68.7950 H       1  UNL11       0.0280
     97 H          -4.9690   13.2660   68.1040 H       1  UNL11       0.0280
     98 H          -5.6280   14.7980   67.4810 H       1  UNL11       0.0280
     99 C          -7.1440   15.5590   69.5340 C.3     1  UNL11      -0.0730
    100 H          -7.7130   15.7440   68.6220 H       1  UNL11       0.0280
    101 H          -7.8220   15.5410   70.3880 H       1  UNL11       0.0280
    102 H          -6.4090   16.3510   69.6710 H       1  UNL11       0.0280
@<TRIPOS>BOND
     1    78    76    1
     2    81    77    1
     3    50    49    1
     4    56    55    2
     5    79    76    1
     6    76    77    1
     7    76    75    1
     8    74    72    1
     9    51    49    1
    10    77    82    1
    11    77    80    1
    12    49    47    1
    13    49    52    1
    14    55    57    1
    15    55    52    1
    16    48    47    1
    17    57    58    1
    18    72    47    1
    19    72    75    1
    20    72    73    1
    21    47    45    1
    22    52    53    1
    23    52    54    1
    24    84    80    1
    25    71    69    1
    26    75    87    1
    27    75    83    1
    28    80    85    1
    29    80    83    1
    30    60    58    1
    31    58    59    1
    32    58    61    1
    33    69    67   ar
    34    69    61   ar
    35    83    88    1
    36    83    86    1
    37    26    25    1
    38    70    67    1
    39    27    25    1
    40    89    88    1
    41    45    46    1
    42    45    43   am
    43    23    24   ar
    44    23    21   ar
    45    44    43    2
    46    67    65   ar
    47    61    62   ar
    48    25    21    1
    49    25    28    1
    50    43     1    1
    51    24    19   ar
    52    21    20   ar
    53    98    95    1
    54    65    68    1
    55    65    63   ar
    56    62    64    1
    57    62    63   ar
    58    97    95    1
    59    63    66    1
    60    19    20   ar
    61    19    16    1
    62    95    96    1
    63    95    93    1
    64    92    90    1
    65    18    15    1
    66    20    22    1
    67     1     2    1
    68     1    90    1
    69     1     3    1
    70    11    10    2
    71   100    99    1
    72     5     4    2
    73    90    93    1
    74    90    91    1
    75     3     4   am
    76     3     6    1
    77     4     7    1
    78     8     7    1
    79    15    16   am
    80    15    13    1
    81    93    99    1
    82    93    94    1
    83    16    17    2
    84    99   102    1
    85    99   101    1
    86    10    13    1
    87    10     9   am
    88     7     9    1
    89     7    33    1
    90    13    14    1
    91    13    29    1
    92     9    12    1
    93    34    33    1
    94    41    39    1
    95    33    39    1
    96    33    35    1
    97    31    29    1
    98    30    29    1
    99    29    32    1
   100    39    40    1
   101    39    42    1
   102    37    35    1
   103    36    35    1
   104    35    38    1
@<TRIPOS>MOLECULE
crystal_redock_e32_er3_1.pdbqt
 102 104 0 0 0
SMALL
GASTEIGER

@<TRIPOS>ATOM
      1 C          -6.6980   13.0180   68.1260 C.3     1  UNL11       0.0890
      2 H          -5.6850   12.8900   67.7450 H       1  UNL11       0.0870
      3 N          -7.0350   14.4290   68.0090 N.am    1  UNL11      -0.3460
      4 C          -5.9680   15.4420   67.6800 C.2     1  UNL11       0.2410
      5 O          -4.8440   15.0980   67.5160 O.2     1  UNL11      -0.2710
      6 H          -7.9970   14.7010   68.1550 H       1  UNL11       0.1630
      7 C          -6.3360   16.8980   67.5570 C.3     1  UNL11       0.0920
      8 H          -6.1330   17.2340   66.5400 H       1  UNL11       0.0880
      9 N          -7.7750   17.0600   67.7890 N.am    1  UNL11      -0.3460
     10 C          -8.5910   17.7300   66.8070 C.2     1  UNL11       0.2400
     11 O          -8.1070   18.1470   65.8260 O.2     1  UNL11      -0.2710
     12 H          -8.2060   16.7070   68.6310 H       1  UNL11       0.1630
     13 C         -10.1210   17.9030   67.0600 C.3     1  UNL11       0.0860
     14 H         -10.7310   17.3570   66.3410 H       1  UNL11       0.0860
     15 N         -10.4450   17.3660   68.3720 N.am    1  UNL11      -0.3430
     16 C         -11.2420   16.1410   68.4730 C.2     1  UNL11       0.2730
     17 O         -11.6190   15.5970   67.4940 O.2     1  UNL11      -0.2660
     18 H         -10.1200   17.8390   69.2030 H       1  UNL11       0.1630
     19 C         -11.5900   15.5610   69.8530 C.ar    1  UNL11       0.1540
     20 C         -11.6630   16.2690   71.0940 C.ar    1  UNL11      -0.0170
     21 C         -12.0180   15.2910   72.0500 C.ar    1  UNL11       0.0770
     22 H         -11.4860   17.3290   71.2750 H       1  UNL11       0.0910
     23 O         -12.1350   14.1580   71.4200 O.2     1  UNL11      -0.2180
     24 N         -11.8890   14.2910   70.1370 N.ar    1  UNL11      -0.1230
     25 C         -12.2270   15.5200   73.5410 C.3     1  UNL11      -0.0290
     26 H         -11.9920   16.5570   73.7860 H       1  UNL11       0.0360
     27 H         -13.2660   15.3130   73.7980 H       1  UNL11       0.0360
     28 H         -11.5730   14.8560   74.1060 H       1  UNL11       0.0360
     29 C         -10.4820   19.3650   66.9970 C.3     1  UNL11      -0.0490
     30 H         -11.4880   19.5080   67.3920 H       1  UNL11       0.0300
     31 H          -9.7730   19.9410   67.5910 H       1  UNL11       0.0300
     32 H         -10.4480   19.7030   65.9620 H       1  UNL11       0.0300
     33 C          -5.5470   17.7230   68.6160 C.3     1  UNL11      -0.0330
     34 H          -4.4910   17.6770   68.3480 H       1  UNL11       0.0420
     35 C          -5.9710   19.2250   68.5960 C.3     1  UNL11      -0.0710
     36 H          -5.7770   19.6440   67.6090 H       1  UNL11       0.0280
     37 H          -7.0340   19.3050   68.8220 H       1  UNL11       0.0280
     38 H          -5.3970   19.7730   69.3430 H       1  UNL11       0.0280
     39 C          -5.7110   17.1060   70.0420 C.3     1  UNL11      -0.0710
     40 H          -6.1160   17.8580   70.7180 H       1  UNL11       0.0280
     41 H          -6.3930   16.2560   69.9940 H       1  UNL11       0.0280
     42 H          -4.7400   16.7730   70.4070 H       1  UNL11       0.0280
     43 C          -7.7390   12.1910   67.3180 C.2     1  UNL11       0.2400
     44 O          -7.3680   11.4050   66.5080 O.2     1  UNL11      -0.2710
     45 N          -9.1980   12.3740   67.5600 N.am    1  UNL11      -0.3550
     46 H          -9.5250   13.0360   68.2500 H       1  UNL11       0.1620
     47 C         -10.1750   11.5800   66.7850 C.3     1  UNL11       0.0130
     48 H          -9.6470   11.1230   65.9480 H       1  UNL11       0.0720
     49 C         -11.2650   12.4920   66.2710 C.3     1  UNL11      -0.0380
     50 H         -12.1810   11.9020   66.2980 H       1  UNL11       0.0360
     51 H         -11.1870   13.4060   66.8610 H       1  UNL11       0.0360
     52 C         -11.0560   12.9050   64.7970 C.3     1  UNL11       0.0180
     53 H         -11.6570   13.8030   64.6540 H       1  UNL11       0.0480
     54 H          -9.9770   12.9420   64.6510 H       1  UNL11       0.0480
     55 C         -11.5910   11.8650   63.7740 C.2     1  UNL11       0.2590
     56 O         -12.7390   11.8550   63.4670 O.2     1  UNL11      -0.2650
     57 O         -10.6940   10.9120   63.2150 O.3     1  UNL11      -0.3170
     58 C          -9.3290   11.3420   63.1910 C.3     1  UNL11       0.0520
     59 H          -9.1870   11.8180   62.2210 H       1  UNL11       0.0820
     60 H          -9.1850   11.9160   64.1060 H       1  UNL11       0.0820
     61 C          -8.4290   10.0800   63.2560 C.ar    1  UNL11      -0.0340
     62 C          -7.3760    9.9280   62.3590 C.ar    1  UNL11      -0.0750
     63 C          -6.5670    8.7940   62.4170 C.ar    1  UNL11      -0.0820
     64 H          -7.1850   10.6980   61.6110 H       1  UNL11       0.0840
     65 C          -6.8150    7.8080   63.3750 C.ar    1  UNL11      -0.0830
     66 H          -5.7420    8.6800   61.7140 H       1  UNL11       0.0830
     67 C          -7.8690    7.9630   64.2670 C.ar    1  UNL11      -0.0820
     68 H          -6.1870    6.9190   63.4280 H       1  UNL11       0.0830
     69 C          -8.6790    9.0950   64.2140 C.ar    1  UNL11      -0.0750
     70 H          -8.0610    7.1900   65.0120 H       1  UNL11       0.0830
     71 H          -9.5030    9.2090   64.9180 H       1  UNL11       0.0840
     72 C         -10.7900   10.5030   67.6770 C.3     1  UNL11      -0.0390
     73 H         -11.8680   10.5980   67.5450 H       1  UNL11       0.0360
     74 H         -10.2870    9.5760   67.4010 H       1  UNL11       0.0360
     75 C         -10.4770   10.7670   69.2250 C.3     1  UNL11      -0.0010
     76 C          -9.5070    9.5760   69.8120 C.3     1  UNL11      -0.0350
     77 C         -10.0630    9.0770   70.9420 C.3     1  UNL11       0.0850
     78 H          -9.5070    8.7250   69.1310 H       1  UNL11       0.0360
     79 H          -8.5630    9.9990   70.1570 H       1  UNL11       0.0360
     80 N         -11.4810    9.5910   71.0010 N.4     1  UNL11      -0.0490
     81 H         -10.0820    7.9960   70.8050 H       1  UNL11       0.0750
     82 H          -9.4930    9.5130   71.7630 H       1  UNL11       0.0750
     83 C         -11.5630   10.7910   69.9240 C.3     1  UNL11       0.1930
     84 H         -12.0720    8.8360   70.6860 H       1  UNL11       0.2800
     85 H         -11.6070    9.9800   71.9250 H       1  UNL11       0.2800
     86 H         -11.5640   11.8310   70.2520 H       1  UNL11       0.1290
     87 H         -10.1700   11.7960   69.4150 H       1  UNL11       0.0460
     88 O         -12.7300   10.6460   69.1120 O.3     1  UNL11      -0.3690
     89 H         -13.0680    9.7510   69.1950 H       1  UNL11       0.2120
     90 C          -6.7510   12.6150   69.5910 C.3     1  UNL11      -0.0350
     91 H          -7.4910   13.2740   70.0460 H       1  UNL11       0.0370
     92 H          -6.9120   11.5360   69.5880 H       1  UNL11       0.0370
     93 C          -5.4120   12.8590   70.3570 C.3     1  UNL11      -0.0590
     94 H          -4.7070   13.3040   69.6560 H       1  UNL11       0.0380
     95 C          -5.5890   13.8510   71.5510 C.3     1  UNL11      -0.0730
     96 H          -4.8010   14.6030   71.5170 H       1  UNL11       0.0280
     97 H          -6.5610   14.3390   71.4770 H       1  UNL11       0.0280
     98 H          -5.5280   13.3020   72.4910 H       1  UNL11       0.0280
     99 C          -4.8060   11.5360   70.8340 C.3     1  UNL11      -0.0730
    100 H          -3.7210   11.5800   70.7410 H       1  UNL11       0.0280
    101 H          -5.0760   11.3680   71.8770 H       1  UNL11       0.0280
    102 H          -5.1910   10.7190   70.2230 H       1  UNL11       0.0280
@<TRIPOS>BOND
     1    64    62    1
     2    66    63    1
     3    59    58    1
     4    62    63   ar
     5    62    61   ar
     6    63    65   ar
     7    58    57    1
     8    58    61    1
     9    58    60    1
    10    57    55    1
    11    61    69   ar
    12    65    68    1
    13    65    67   ar
    14    56    55    2
    15    55    52    1
    16    69    67   ar
    17    69    71    1
    18    67    70    1
    19    54    52    1
    20    53    52    1
    21    52    49    1
    22    11    10    2
    23    48    47    1
    24    32    29    1
    25    49    50    1
    26    49    47    1
    27    49    51    1
    28    14    13    1
    29    44    43    2
    30     8     7    1
    31    47    45    1
    32    47    72    1
    33    10    13    1
    34    10     9   am
    35    29    13    1
    36    29    30    1
    37    29    31    1
    38    13    15    1
    39    43    45   am
    40    43     1    1
    41    74    72    1
    42    17    16    2
    43     5     4    2
    44    73    72    1
    45     7     4    1
    46     7     9    1
    47     7    33    1
    48    45    46    1
    49    36    35    1
    50    72    75    1
    51     4     3   am
    52     2     1    1
    53     9    12    1
    54     3     1    1
    55     3     6    1
    56     1    90    1
    57    34    33    1
    58    15    16   am
    59    15    18    1
    60    16    19    1
    61    35    33    1
    62    35    37    1
    63    35    38    1
    64    33    39    1
    65    88    89    1
    66    88    83    1
    67    78    76    1
    68    75    87    1
    69    75    76    1
    70    75    83    1
    71    92    90    1
    72    90    91    1
    73    90    93    1
    74    94    93    1
    75    76    79    1
    76    76    77    1
    77    19    24   ar
    78    19    20   ar
    79    83    86    1
    80    83    80    1
    81    41    39    1
    82    39    42    1
    83    39    40    1
    84    24    23   ar
    85   102    99    1
    86    93    99    1
    87    93    95    1
    88    84    80    1
    89   100    99    1
    90    81    77    1
    91    99   101    1
    92    77    80    1
    93    77    82    1
    94    80    85    1
    95    20    22    1
    96    20    21   ar
    97    23    21   ar
    98    97    95    1
    99    96    95    1
   100    95    98    1
   101    21    25    1
   102    25    26    1
   103    25    27    1
   104    25    28    1
@<TRIPOS>MOLECULE
crystal_redock_e32_er3_1.pdbqt
 102 104 0 0 0
SMALL
GASTEIGER

@<TRIPOS>ATOM
      1 C          -6.3780   14.0700   67.9270 C.3     1  UNL11       0.0890
      2 H          -5.8190   14.0730   66.9910 H       1  UNL11       0.0870
      3 N          -6.6390   15.4550   68.2870 N.am    1  UNL11      -0.3460
      4 C          -6.0130   16.5780   67.4980 C.2     1  UNL11       0.2410
      5 O          -5.3000   16.3420   66.5800 O.2     1  UNL11      -0.2710
      6 H          -7.2470   15.6360   69.0730 H       1  UNL11       0.1630
      7 C          -6.2990   18.0060   67.8810 C.3     1  UNL11       0.0920
      8 H          -6.0000   18.6630   67.0650 H       1  UNL11       0.0880
      9 N          -7.7420   18.1820   68.0730 N.am    1  UNL11      -0.3460
     10 C          -8.6230   18.2030   66.9310 C.2     1  UNL11       0.2400
     11 O          -8.1870   18.0820   65.8510 O.2     1  UNL11      -0.2710
     12 H          -8.1320   18.2900   68.9980 H       1  UNL11       0.1630
     13 C         -10.1570   18.3940   67.1410 C.3     1  UNL11       0.0860
     14 H         -10.7510   17.9330   66.3510 H       1  UNL11       0.0860
     15 N         -10.5470   17.7490   68.3840 N.am    1  UNL11      -0.3430
     16 C         -11.0340   16.3680   68.3580 C.2     1  UNL11       0.2730
     17 O         -11.1110   15.7860   67.3320 O.2     1  UNL11      -0.2660
     18 H         -10.4800   18.2550   69.2550 H       1  UNL11       0.1630
     19 C         -11.4470   15.6730   69.6650 C.ar    1  UNL11       0.1540
     20 C         -11.6070   16.2770   70.9520 C.ar    1  UNL11      -0.0170
     21 C         -11.9940   15.2190   71.8050 C.ar    1  UNL11       0.0770
     22 H         -11.4650   17.3230   71.2260 H       1  UNL11       0.0910
     23 O         -12.0480   14.1390   71.0820 O.2     1  UNL11      -0.2180
     24 N         -11.7330   14.3780   69.8300 N.ar    1  UNL11      -0.1230
     25 C         -12.2930   15.3250   73.2940 C.3     1  UNL11      -0.0290
     26 H         -13.1490   15.9830   73.4480 H       1  UNL11       0.0360
     27 H         -12.5200   14.3350   73.6900 H       1  UNL11       0.0360
     28 H         -11.4240   15.7320   73.8120 H       1  UNL11       0.0360
     29 C         -10.4810   19.8650   67.1990 C.3     1  UNL11      -0.0490
     30 H         -11.3620   20.0190   67.8220 H       1  UNL11       0.0300
     31 H          -9.6350   20.4060   67.6230 H       1  UNL11       0.0300
     32 H         -10.6800   20.2330   66.1920 H       1  UNL11       0.0300
     33 C          -5.5580   18.3460   69.2080 C.3     1  UNL11      -0.0330
     34 H          -5.7780   17.5520   69.9200 H       1  UNL11       0.0420
     35 C          -4.0110   18.3760   69.0020 C.3     1  UNL11      -0.0710
     36 H          -3.7100   19.3660   68.6570 H       1  UNL11       0.0280
     37 H          -3.5150   18.1550   69.9470 H       1  UNL11       0.0280
     38 H          -3.7290   17.6310   68.2600 H       1  UNL11       0.0280
     39 C          -6.0760   19.6920   69.8090 C.3     1  UNL11      -0.0710
     40 H          -6.5010   19.5100   70.7950 H       1  UNL11       0.0280
     41 H          -5.2460   20.3950   69.8950 H       1  UNL11       0.0280
     42 H          -6.8400   20.1110   69.1550 H       1  UNL11       0.0280
     43 C          -7.7390   13.3270   67.7950 C.2     1  UNL11       0.2400
     44 O          -8.6720   13.6860   68.4370 O.2     1  UNL11      -0.2710
     45 N          -7.8800   12.1730   66.8630 N.am    1  UNL11      -0.3550
     46 H          -7.0950   11.8620   66.3090 H       1  UNL11       0.1620
     47 C          -9.1800   11.4780   66.7480 C.3     1  UNL11       0.0130
     48 H          -9.9680   12.2090   66.9290 H       1  UNL11       0.0720
     49 C          -9.2510   10.3770   67.7810 C.3     1  UNL11      -0.0380
     50 H          -8.4980   10.6250   68.5290 H       1  UNL11       0.0360
     51 H         -10.3010   10.3080   68.0670 H       1  UNL11       0.0360
     52 C          -8.8620    8.9950   67.2120 C.3     1  UNL11       0.0180
     53 H          -8.9120    9.0970   66.1280 H       1  UNL11       0.0480
     54 H          -7.9180    8.7330   67.6920 H       1  UNL11       0.0480
     55 C          -9.8590    7.8620   67.5820 C.2     1  UNL11       0.2590
     56 O         -10.8570    7.7090   66.9570 O.2     1  UNL11      -0.2650
     57 O          -9.5710    7.0140   68.6880 O.3     1  UNL11      -0.3170
     58 C          -9.3260    7.7150   69.9110 C.3     1  UNL11       0.0520
     59 H          -8.7920    7.0130   70.5510 H       1  UNL11       0.0820
     60 H          -8.8580    8.6560   69.6230 H       1  UNL11       0.0820
     61 C         -10.6980    8.0300   70.5650 C.ar    1  UNL11      -0.0340
     62 C         -11.0400    9.3440   70.8680 C.ar    1  UNL11      -0.0750
     63 C         -12.2720    9.6270   71.4550 C.ar    1  UNL11      -0.0820
     64 H         -10.3430   10.1520   70.6440 H       1  UNL11       0.0840
     65 C         -13.1630    8.5890   71.7430 C.ar    1  UNL11      -0.0830
     66 H         -12.5380   10.6580   71.6890 H       1  UNL11       0.0830
     67 C         -12.8160    7.2790   71.4420 C.ar    1  UNL11      -0.0820
     68 H         -14.1290    8.8020   72.2020 H       1  UNL11       0.0830
     69 C         -11.5870    6.9920   70.8520 C.ar    1  UNL11      -0.0750
     70 H         -13.5120    6.4710   71.6700 H       1  UNL11       0.0830
     71 H         -11.3220    5.9600   70.6180 H       1  UNL11       0.0840
     72 C          -9.3240   10.8770   65.3510 C.3     1  UNL11      -0.0390
     73 H          -8.3040   10.7150   64.9990 H       1  UNL11       0.0360
     74 H         -10.0000   10.0310   65.4680 H       1  UNL11       0.0360
     75 C         -10.0180   11.9010   64.3340 C.3     1  UNL11      -0.0010
     76 C         -11.3010   12.6300   65.0610 C.3     1  UNL11      -0.0350
     77 C         -12.3840   12.5080   64.2570 C.3     1  UNL11       0.0850
     78 H         -11.5850   12.0790   65.9570 H       1  UNL11       0.0360
     79 H         -11.1400   13.7070   65.1110 H       1  UNL11       0.0360
     80 N         -12.0400   11.4830   63.2040 N.4     1  UNL11      -0.0490
     81 H         -13.1760   12.1110   64.8940 H       1  UNL11       0.0750
     82 H         -12.5040   13.4800   63.7810 H       1  UNL11       0.0750
     83 C         -10.4380   11.2950   63.2740 C.3     1  UNL11       0.1930
     84 H         -12.4780   10.6200   63.4900 H       1  UNL11       0.2800
     85 H         -12.2760   11.8980   62.3130 H       1  UNL11       0.2800
     86 H          -9.7940   11.7460   62.5190 H       1  UNL11       0.1290
     87 H          -9.2930   12.5500   63.8420 H       1  UNL11       0.0460
     88 O         -10.1050    9.9050   63.2800 O.3     1  UNL11      -0.3690
     89 H         -10.8640    9.3960   63.5740 H       1  UNL11       0.2120
     90 C          -5.5450   13.4210   69.0210 C.3     1  UNL11      -0.0350
     91 H          -6.1850   12.6510   69.4530 H       1  UNL11       0.0370
     92 H          -4.6060   13.1440   68.5430 H       1  UNL11       0.0370
     93 C          -5.1780   14.3930   70.1870 C.3     1  UNL11      -0.0590
     94 H          -5.7180   15.3260   70.0240 H       1  UNL11       0.0380
     95 C          -5.6070   13.8310   71.5810 C.3     1  UNL11      -0.0730
     96 H          -5.9600   14.6490   72.2090 H       1  UNL11       0.0280
     97 H          -6.4080   13.1030   71.4470 H       1  UNL11       0.0280
     98 H          -4.7530   13.3490   72.0570 H       1  UNL11       0.0280
     99 C          -3.6830   14.7250   70.1710 C.3     1  UNL11      -0.0730
    100 H          -3.3380   14.7980   69.1400 H       1  UNL11       0.0280
    101 H          -3.5170   15.6770   70.6780 H       1  UNL11       0.0280
    102 H          -3.1310   13.9390   70.6860 H       1  UNL11       0.0280
@<TRIPOS>BOND
     1    85    80    1
     2    86    83    1
     3    80    83    1
     4    80    84    1
     5    80    77    1
     6    83    88    1
     7    83    75    1
     8    88    89    1
     9    82    77    1
    10    87    75    1
    11    77    81    1
    12    77    76    1
    13    75    76    1
    14    75    72    1
    15    73    72    1
    16    76    79    1
    17    76    78    1
    18    72    74    1
    19    72    47    1
    20    11    10    2
    21    53    52    1
    22    32    29    1
    23    46    45    1
    24    14    13    1
    25     5     4    2
    26    47    45    1
    27    47    48    1
    28    47    49    1
    29    45    43   am
    30    10    13    1
    31    10     9   am
    32    56    55    2
    33     2     1    1
    34     8     7    1
    35    13    29    1
    36    13    15    1
    37    29    31    1
    38    29    30    1
    39    52    55    1
    40    52    54    1
    41    52    49    1
    42    17    16    2
    43     4     7    1
    44     4     3   am
    45    55    57    1
    46    49    51    1
    47    49    50    1
    48    43     1    1
    49    43    44    2
    50     7     9    1
    51     7    33    1
    52     1     3    1
    53     1    90    1
    54     9    12    1
    55    38    35    1
    56     3     6    1
    57    16    15   am
    58    16    19    1
    59    15    18    1
    60    92    90    1
    61    36    35    1
    62    57    58    1
    63    35    33    1
    64    35    37    1
    65    90    91    1
    66    90    93    1
    67   100    99    1
    68    42    39    1
    69    33    39    1
    70    33    34    1
    71    60    58    1
    72    19    24   ar
    73    19    20   ar
    74    39    41    1
    75    39    40    1
    76    24    23   ar
    77    58    59    1
    78    58    61    1
    79    94    93    1
    80    99    93    1
    81    99   101    1
    82    99   102    1
    83    93    95    1
    84    61    69   ar
    85    61    62   ar
    86    71    69    1
    87    64    62    1
    88    69    67   ar
    89    62    63   ar
    90    20    22    1
    91    20    21   ar
    92    23    21   ar
    93    67    70    1
    94    67    65   ar
    95    97    95    1
    96    63    66    1
    97    63    65   ar
    98    95    98    1
    99    95    96    1
   100    65    68    1
   101    21    25    1
   102    25    26    1
   103    25    27    1
   104    25    28    1
@<TRIPOS>MOLECULE
crystal_redock_e32_er3_1.pdbqt
 102 104 0 0 0
SMALL
GASTEIGER

@<TRIPOS>ATOM
      1 C         -11.0000    9.9690   69.5980 C.3     1  UNL11       0.0890
      2 H         -11.5070    9.1300   69.1220 H       1  UNL11       0.0870
      3 N          -9.5840    9.8630   69.2780 N.am    1  UNL11      -0.3460
      4 C          -8.9500    8.5110   69.0670 C.2     1  UNL11       0.2410
      5 O          -9.5990    7.5220   69.1630 O.2     1  UNL11      -0.2710
      6 H          -9.0480   10.7170   69.2030 H       1  UNL11       0.1630
      7 C          -7.4840    8.4210   68.7310 C.3     1  UNL11       0.0920
      8 H          -7.2530    7.4060   68.4080 H       1  UNL11       0.0880
      9 N          -7.1840    9.3130   67.6070 N.am    1  UNL11      -0.3460
     10 C          -6.8070    8.7600   66.3290 C.2     1  UNL11       0.2400
     11 O          -6.7390    7.6000   66.1890 O.2     1  UNL11      -0.2710
     12 H          -7.2370   10.3150   67.7130 H       1  UNL11       0.1630
     13 C          -6.4860    9.7140   65.1370 C.3     1  UNL11       0.0860
     14 H          -6.3810    9.1850   64.1900 H       1  UNL11       0.0860
     15 N          -7.5870   10.6490   64.9720 N.am    1  UNL11      -0.3430
     16 C          -8.8110   10.2100   64.2990 C.2     1  UNL11       0.2730
     17 O          -8.8990    9.1040   63.8900 O.2     1  UNL11      -0.2660
     18 H          -7.5020   11.5930   65.3220 H       1  UNL11       0.1630
     19 C          -9.9830   11.1880   64.1190 C.ar    1  UNL11       0.1540
     20 C         -10.6020   11.9910   65.1280 C.ar    1  UNL11      -0.0170
     21 C         -11.6180   12.7040   64.4530 C.ar    1  UNL11       0.0770
     22 H         -10.3530   12.0470   66.1880 H       1  UNL11       0.0910
     23 O         -11.5770   12.3460   63.2030 O.2     1  UNL11      -0.2180
     24 N         -10.6320   11.4620   62.9830 N.ar    1  UNL11      -0.1230
     25 C         -12.5810   13.7060   65.0750 C.3     1  UNL11      -0.0290
     26 H         -13.5280   13.2130   65.2950 H       1  UNL11       0.0360
     27 H         -12.1520   14.0980   65.9980 H       1  UNL11       0.0360
     28 H         -12.7530   14.5270   64.3780 H       1  UNL11       0.0360
     29 C          -5.2090   10.4640   65.4200 C.3     1  UNL11      -0.0490
     30 H          -4.3600    9.8900   65.0500 H       1  UNL11       0.0300
     31 H          -5.2390   11.4330   64.9210 H       1  UNL11       0.0300
     32 H          -5.1060   10.6110   66.4950 H       1  UNL11       0.0300
     33 C          -6.6410    8.8480   69.9680 C.3     1  UNL11      -0.0330
     34 H          -6.8750    9.8910   70.1810 H       1  UNL11       0.0420
     35 C          -7.0220    8.0140   71.2310 C.3     1  UNL11      -0.0710
     36 H          -6.2140    7.3200   71.4650 H       1  UNL11       0.0280
     37 H          -7.1800    8.6850   72.0750 H       1  UNL11       0.0280
     38 H          -7.9360    7.4550   71.0340 H       1  UNL11       0.0280
     39 C          -5.1120    8.7490   69.6630 C.3     1  UNL11      -0.0710
     40 H          -4.5640    8.6110   70.5950 H       1  UNL11       0.0280
     41 H          -4.9270    7.9000   69.0040 H       1  UNL11       0.0280
     42 H          -4.7780    9.6660   69.1770 H       1  UNL11       0.0280
     43 C         -11.5230   11.3410   69.0820 C.2     1  UNL11       0.2400
     44 O         -12.3590   11.3750   68.2390 O.2     1  UNL11      -0.2710
     45 N         -10.9870   12.6120   69.6470 N.am    1  UNL11      -0.3550
     46 H         -10.2790   12.5950   70.3670 H       1  UNL11       0.1620
     47 C         -11.4950   13.9080   69.1470 C.3     1  UNL11       0.0130
     48 H         -12.5320   13.7660   68.8410 H       1  UNL11       0.0720
     49 C         -10.6630   14.3480   67.9640 C.3     1  UNL11      -0.0380
     50 H          -9.6250   14.2300   68.2740 H       1  UNL11       0.0360
     51 H         -11.0460   13.7880   67.1110 H       1  UNL11       0.0360
     52 C         -10.8490   15.8430   67.6240 C.3     1  UNL11       0.0180
     53 H         -11.9150   15.9720   67.4320 H       1  UNL11       0.0480
     54 H         -10.3720   16.3920   68.4360 H       1  UNL11       0.0480
     55 C         -10.1230   16.2840   66.3230 C.2     1  UNL11       0.2590
     56 O          -9.4620   15.5110   65.7090 O.2     1  UNL11      -0.2650
     57 O         -10.2460   17.6300   65.8790 O.3     1  UNL11      -0.3170
     58 C         -10.4620   18.5730   66.9320 C.3     1  UNL11       0.0520
     59 H         -11.0470   19.3800   66.4900 H       1  UNL11       0.0820
     60 H         -10.8690   17.9990   67.7640 H       1  UNL11       0.0820
     61 C          -9.0820   19.1420   67.3580 C.ar    1  UNL11      -0.0340
     62 C          -8.4110   20.0340   66.5280 C.ar    1  UNL11      -0.0750
     63 C          -7.1710   20.5450   66.9090 C.ar    1  UNL11      -0.0820
     64 H          -8.8560   20.3340   65.5790 H       1  UNL11       0.0840
     65 C          -6.6010   20.1580   68.1250 C.ar    1  UNL11      -0.0830
     66 H          -6.6490   21.2460   66.2580 H       1  UNL11       0.0830
     67 C          -7.2740   19.2650   68.9480 C.ar    1  UNL11      -0.0820
     68 H          -5.6330   20.5530   68.4310 H       1  UNL11       0.0830
     69 C          -8.5140   18.7540   68.5720 C.ar    1  UNL11      -0.0750
     70 H          -6.8250   18.9640   69.8960 H       1  UNL11       0.0830
     71 H          -9.0360   18.0540   69.2250 H       1  UNL11       0.0840
     72 C         -11.4070   14.9580   70.2520 C.3     1  UNL11      -0.0390
     73 H         -10.3600   14.9730   70.5550 H       1  UNL11       0.0360
     74 H         -11.8670   15.8550   69.8380 H       1  UNL11       0.0360
     75 C         -12.2650   14.5380   71.5390 C.3     1  UNL11      -0.0010
     76 C         -13.7840   14.1050   71.0820 C.3     1  UNL11      -0.0350
     77 C         -14.6780   14.7910   71.8340 C.3     1  UNL11       0.0850
     78 H         -13.9830   14.4530   70.0690 H       1  UNL11       0.0360
     79 H         -13.9720   13.0650   71.3490 H       1  UNL11       0.0360
     80 N         -13.9150   15.8910   72.5320 N.4     1  UNL11      -0.0490
     81 H         -15.3740   15.2380   71.1230 H       1  UNL11       0.0750
     82 H         -15.0380   14.0810   72.5770 H       1  UNL11       0.0750
     83 C         -12.3530   15.5140   72.3800 C.3     1  UNL11       0.1930
     84 H         -14.0940   16.7380   72.0120 H       1  UNL11       0.2800
     85 H         -14.1650   15.8360   73.5100 H       1  UNL11       0.2800
     86 H         -11.7990   15.0990   73.2230 H       1  UNL11       0.1290
     87 H         -11.7250   13.8470   72.1870 H       1  UNL11       0.0460
     88 O         -11.6080   16.6580   71.9590 O.3     1  UNL11      -0.3690
     89 H         -10.7180   16.3900   71.7200 H       1  UNL11       0.2120
     90 C         -11.1750    9.8900   71.1060 C.3     1  UNL11      -0.0350
     91 H         -10.1750    9.7120   71.5040 H       1  UNL11       0.0370
     92 H         -11.7180   10.7940   71.3820 H       1  UNL11       0.0370
     93 C         -12.0540    8.6860   71.5720 C.3     1  UNL11      -0.0590
     94 H         -12.3240    8.1110   70.6860 H       1  UNL11       0.0380
     95 C         -11.2840    7.7340   72.5430 C.3     1  UNL11      -0.0730
     96 H         -11.2840    6.7230   72.1350 H       1  UNL11       0.0280
     97 H         -10.2570    8.0820   72.6530 H       1  UNL11       0.0280
     98 H         -11.7750    7.7350   73.5160 H       1  UNL11       0.0280
     99 C         -13.3570    9.1760   72.2090 C.3     1  UNL11      -0.0730
    100 H         -13.1300    9.9080   72.9850 H       1  UNL11       0.0280
    101 H         -13.9840    9.6380   71.4450 H       1  UNL11       0.0280
    102 H         -13.8860    8.3310   72.6500 H       1  UNL11       0.0280
@<TRIPOS>BOND
     1    24    23   ar
     2    24    19   ar
     3    23    21   ar
     4    17    16    2
     5    19    16    1
     6    19    20   ar
     7    14    13    1
     8    16    15   am
     9    28    25    1
    10    21    25    1
    11    21    20   ar
    12    31    29    1
    13    15    13    1
    14    15    18    1
    15    30    29    1
    16    25    26    1
    17    25    27    1
    18    20    22    1
    19    13    29    1
    20    13    10    1
    21    29    32    1
    22    64    62    1
    23    56    55    2
    24    57    55    1
    25    57    58    1
    26    11    10    2
    27    66    63    1
    28    55    52    1
    29    10     9   am
    30    59    58    1
    31    62    63   ar
    32    62    61   ar
    33    63    65   ar
    34    58    61    1
    35    58    60    1
    36    51    49    1
    37    61    69   ar
    38    53    52    1
    39     9    12    1
    40     9     7    1
    41    52    49    1
    42    52    54    1
    43    49    50    1
    44    49    47    1
    45    65    68    1
    46    65    67   ar
    47    44    43    2
    48     8     7    1
    49    69    67   ar
    50    69    71    1
    51     7     4    1
    52     7    33    1
    53    48    47    1
    54    67    70    1
    55    41    39    1
    56     4     5    2
    57     4     3   am
    58    43     1    1
    59    43    45   am
    60     2     1    1
    61    47    45    1
    62    47    72    1
    63    42    39    1
    64     6     3    1
    65     3     1    1
    66     1    90    1
    67    45    46    1
    68    39    33    1
    69    39    40    1
    70    74    72    1
    71    33    34    1
    72    33    35    1
    73    78    76    1
    74    72    73    1
    75    72    75    1
    76    94    93    1
    77    38    35    1
    78    76    79    1
    79    76    75    1
    80    76    77    1
    81    90    92    1
    82    90    91    1
    83    90    93    1
    84    81    77    1
    85    35    36    1
    86    35    37    1
    87   101    99    1
    88    75    87    1
    89    75    83    1
    90    93    99    1
    91    93    95    1
    92    89    88    1
    93    77    80    1
    94    77    82    1
    95    88    83    1
    96    84    80    1
    97    96    95    1
    98    99   102    1
    99    99   100    1
   100    83    80    1
   101    83    86    1
   102    80    85    1
   103    95    97    1
   104    95    98    1
@<TRIPOS>MOLECULE
crystal_redock_e32_er3_1.pdbqt
 102 104 0 0 0
SMALL
GASTEIGER

@<TRIPOS>ATOM
      1 C          -8.1330   12.6170   67.6770 C.3     1  UNL11       0.0890
      2 H          -8.2040   13.3270   66.8520 H       1  UNL11       0.0870
      3 N          -9.3670   12.7080   68.4420 N.am    1  UNL11      -0.3460
      4 C         -10.4970   13.5850   67.9630 C.2     1  UNL11       0.2410
      5 O         -10.3880   14.2100   66.9600 O.2     1  UNL11      -0.2710
      6 H          -9.4400   12.1700   69.2940 H       1  UNL11       0.1630
      7 C         -11.7700   13.6630   68.7640 C.3     1  UNL11       0.0920
      8 H         -12.6210   13.5140   68.1000 H       1  UNL11       0.0880
      9 N         -11.7940   12.5790   69.7510 N.am    1  UNL11      -0.3460
     10 C         -11.9700   11.2150   69.3180 C.2     1  UNL11       0.2400
     11 O         -12.0950   10.9710   68.1800 O.2     1  UNL11      -0.2710
     12 H         -11.6890   12.7740   70.7370 H       1  UNL11       0.1630
     13 C         -11.9980   10.0660   70.3740 C.3     1  UNL11       0.0860
     14 H         -12.2220    9.0940   69.9330 H       1  UNL11       0.0860
     15 N         -10.6830    9.9530   70.9830 N.am    1  UNL11      -0.3430
     16 C         -10.2360    8.6580   71.5000 C.2     1  UNL11       0.2730
     17 O         -10.9430    7.7140   71.4240 O.2     1  UNL11      -0.2660
     18 H         -10.0870   10.7660   71.0460 H       1  UNL11       0.1630
     19 C          -8.8480    8.5240   72.1450 C.ar    1  UNL11       0.1540
     20 C          -8.5220    7.8450   73.3620 C.ar    1  UNL11      -0.0170
     21 C          -7.1270    8.0140   73.5100 C.ar    1  UNL11       0.0770
     22 H          -9.1940    7.3110   74.0340 H       1  UNL11       0.0910
     23 O          -6.7110    8.7100   72.4920 O.2     1  UNL11      -0.2180
     24 N          -7.6970    9.0200   71.6820 N.ar    1  UNL11      -0.1230
     25 C          -6.2700    7.4800   74.6500 C.3     1  UNL11      -0.0290
     26 H          -6.5170    8.0110   75.5700 H       1  UNL11       0.0360
     27 H          -6.4630    6.4160   74.7820 H       1  UNL11       0.0360
     28 H          -5.2160    7.6320   74.4150 H       1  UNL11       0.0360
     29 C         -13.0310   10.3730   71.4280 C.3     1  UNL11      -0.0490
     30 H         -12.6810   11.1950   72.0520 H       1  UNL11       0.0300
     31 H         -13.9680   10.6550   70.9470 H       1  UNL11       0.0300
     32 H         -13.1910    9.4900   72.0470 H       1  UNL11       0.0300
     33 C         -11.8360   15.0330   69.5010 C.3     1  UNL11      -0.0330
     34 H         -12.2330   15.7660   68.7980 H       1  UNL11       0.0420
     35 C         -12.8090   14.9770   70.7200 C.3     1  UNL11      -0.0710
     36 H         -13.1490   15.9850   70.9600 H       1  UNL11       0.0280
     37 H         -13.6670   14.3540   70.4710 H       1  UNL11       0.0280
     38 H         -12.2900   14.5550   71.5800 H       1  UNL11       0.0280
     39 C         -10.4100   15.5040   69.9350 C.3     1  UNL11      -0.0710
     40 H         -10.3810   15.6210   71.0180 H       1  UNL11       0.0280
     41 H          -9.6730   14.7600   69.6300 H       1  UNL11       0.0280
     42 H         -10.1830   16.4580   69.4600 H       1  UNL11       0.0280
     43 C          -7.9660   11.1530   67.1780 C.2     1  UNL11       0.2400
     44 O          -6.9970   10.5330   67.4780 O.2     1  UNL11      -0.2710
     45 N          -9.0190   10.5200   66.3340 N.am    1  UNL11      -0.3550
     46 H          -9.8480   11.0350   66.0760 H       1  UNL11       0.1620
     47 C          -8.8460    9.1270   65.8690 C.3     1  UNL11       0.0130
     48 H          -7.9400    8.7300   66.3270 H       1  UNL11       0.0720
     49 C          -8.7120    9.1160   64.3630 C.3     1  UNL11      -0.0380
     50 H          -8.5900    8.0680   64.0860 H       1  UNL11       0.0360
     51 H          -9.5630    9.6840   63.9870 H       1  UNL11       0.0360
     52 C          -7.4450    9.8480   63.8690 C.3     1  UNL11       0.0180
     53 H          -7.6150   10.0510   62.8110 H       1  UNL11       0.0480
     54 H          -7.2920   10.6740   64.5640 H       1  UNL11       0.0480
     55 C          -6.1550    8.9850   63.9380 C.2     1  UNL11       0.2590
     56 O          -5.3960    9.1070   64.8440 O.2     1  UNL11      -0.2650
     57 O          -5.8830    8.0550   62.8970 O.3     1  UNL11      -0.3170
     58 C          -5.5350    6.7470   63.3620 C.3     1  UNL11       0.0520
     59 H          -5.1280    6.2250   62.4960 H       1  UNL11       0.0820
     60 H          -4.9160    6.9020   64.2450 H       1  UNL11       0.0820
     61 C          -6.8410    6.0310   63.7980 C.ar    1  UNL11      -0.0340
     62 C          -7.0540    5.7240   65.1380 C.ar    1  UNL11      -0.0750
     63 C          -8.2260    5.0810   65.5300 C.ar    1  UNL11      -0.0820
     64 H          -6.3010    5.9880   65.8810 H       1  UNL11       0.0840
     65 C          -9.1890    4.7420   64.5750 C.ar    1  UNL11      -0.0830
     66 H          -8.3910    4.8440   66.5810 H       1  UNL11       0.0830
     67 C          -8.9710    5.0470   63.2380 C.ar    1  UNL11      -0.0820
     68 H         -10.1090    4.2390   64.8720 H       1  UNL11       0.0830
     69 C          -7.8010    5.6920   62.8420 C.ar    1  UNL11      -0.0750
     70 H          -9.7230    4.7790   62.4950 H       1  UNL11       0.0830
     71 H          -7.6380    5.9290   61.7910 H       1  UNL11       0.0840
     72 C         -10.0570    8.2920   66.2790 C.3     1  UNL11      -0.0390
     73 H         -10.9250    8.9200   66.0770 H       1  UNL11       0.0360
     74 H          -9.9420    7.3400   65.7610 H       1  UNL11       0.0360
     75 C         -10.0560    7.9780   67.8500 C.3     1  UNL11      -0.0010
     76 C          -8.5430    7.5540   68.3350 C.3     1  UNL11      -0.0350
     77 C          -8.6160    6.3890   69.0230 C.3     1  UNL11       0.0850
     78 H          -7.9310    7.3020   67.4710 H       1  UNL11       0.0360
     79 H          -8.1750    8.2640   69.0760 H       1  UNL11       0.0360
     80 N          -9.9880    5.8130   68.7710 N.4     1  UNL11      -0.0490
     81 H          -7.8680    5.7370   68.5710 H       1  UNL11       0.0750
     82 H          -8.5350    6.6660   70.0740 H       1  UNL11       0.0750
     83 C         -10.8630    7.0110   68.1340 C.3     1  UNL11       0.1930
     84 H          -9.8730    5.0930   68.0720 H       1  UNL11       0.2800
     85 H         -10.3720    5.5810   69.6760 H       1  UNL11       0.2800
     86 H         -11.6010    7.5390   68.7380 H       1  UNL11       0.1290
     87 H         -10.5630    8.7520   68.4260 H       1  UNL11       0.0460
     88 O         -11.5730    6.5460   66.9850 O.3     1  UNL11      -0.3690
     89 H         -11.3780    5.6170   66.8430 H       1  UNL11       0.2120
     90 C          -6.9640   12.9870   68.5760 C.3     1  UNL11      -0.0350
     91 H          -7.0870   12.3810   69.4740 H       1  UNL11       0.0370
     92 H          -6.0750   12.8690   67.9560 H       1  UNL11       0.0370
     93 C          -6.9800   14.4780   69.0430 C.3     1  UNL11      -0.0590
     94 H          -7.9610   14.6780   69.4750 H       1  UNL11       0.0380
     95 C          -5.9080   14.7620   70.1440 C.3     1  UNL11      -0.0730
     96 H          -5.4110   15.7080   69.9300 H       1  UNL11       0.0280
     97 H          -6.3940   14.8180   71.1180 H       1  UNL11       0.0280
     98 H          -5.1730   13.9580   70.1500 H       1  UNL11       0.0280
     99 C          -6.8050   15.4250   67.8540 C.3     1  UNL11      -0.0730
    100 H          -5.8470   15.2300   67.3710 H       1  UNL11       0.0280
    101 H          -7.6120   15.2640   67.1390 H       1  UNL11       0.0280
    102 H          -6.8320   16.4570   68.2040 H       1  UNL11       0.0280
@<TRIPOS>BOND
     1    71    69    1
     2    70    67    1
     3    59    58    1
     4    53    52    1
     5    69    67   ar
     6    69    61   ar
     7    57    58    1
     8    57    55    1
     9    67    65   ar
    10    58    61    1
    11    58    60    1
    12    61    62   ar
    13    52    55    1
    14    52    49    1
    15    52    54    1
    16    55    56    2
    17    51    49    1
    18    50    49    1
    19    49    47    1
    20    65    68    1
    21    65    63   ar
    22    62    63   ar
    23    62    64    1
    24    63    66    1
    25    74    72    1
    26    47    72    1
    27    47    48    1
    28    47    45    1
    29    46    45    1
    30    73    72    1
    31    72    75    1
    32    45    43   am
    33    89    88    1
    34     2     1    1
    35     5     4    2
    36    88    83    1
    37   101    99    1
    38    43    44    2
    39    43     1    1
    40   100    99    1
    41    78    76    1
    42     1     3    1
    43     1    90    1
    44    75    83    1
    45    75    76    1
    46    75    87    1
    47    99   102    1
    48    99    93    1
    49    92    90    1
    50     4     3   am
    51     4     7    1
    52    84    80    1
    53     8     7    1
    54    83    86    1
    55    83    80    1
    56    11    10    2
    57    76    77    1
    58    76    79    1
    59     3     6    1
    60    81    77    1
    61    90    93    1
    62    90    91    1
    63     7    33    1
    64     7     9    1
    65    80    77    1
    66    80    85    1
    67    34    33    1
    68    77    82    1
    69    93    94    1
    70    93    95    1
    71    10     9   am
    72    10    13    1
    73    42    39    1
    74    33    39    1
    75    33    35    1
    76    41    39    1
    77     9    12    1
    78    96    95    1
    79    14    13    1
    80    39    40    1
    81    95    98    1
    82    95    97    1
    83    13    15    1
    84    13    29    1
    85    37    35    1
    86    35    36    1
    87    35    38    1
    88    31    29    1
    89    15    18    1
    90    15    16   am
    91    17    16    2
    92    29    32    1
    93    29    30    1
    94    16    19    1
    95    24    19   ar
    96    24    23   ar
    97    19    20   ar
    98    23    21   ar
    99    20    21   ar
   100    20    22    1
   101    21    25    1
   102    28    25    1
   103    25    27    1
   104    25    26    1
@<TRIPOS>MOLECULE
crystal_redock_e32_er3_1.pdbqt
 102 104 0 0 0
SMALL
GASTEIGER

@<TRIPOS>ATOM
      1 C          -8.3290    8.2200   62.7580 C.3     1  UNL11       0.0890
      2 H          -8.9700    8.2350   61.8770 H       1  UNL11       0.0870
      3 N          -8.9800    9.0160   63.7880 N.am    1  UNL11      -0.3460
      4 C          -9.4880   10.4000   63.4730 C.2     1  UNL11       0.2410
      5 O          -9.3580   10.8540   62.3840 O.2     1  UNL11      -0.2710
      6 H          -9.0790    8.6120   64.7090 H       1  UNL11       0.1630
      7 C         -10.1650   11.2070   64.5500 C.3     1  UNL11       0.0920
      8 H         -10.9500   10.6060   65.0090 H       1  UNL11       0.0880
      9 N          -9.1960   11.5310   65.6010 N.am    1  UNL11      -0.3460
     10 C          -9.0560   10.6630   66.7440 C.2     1  UNL11       0.2400
     11 O          -9.7160    9.7010   66.8350 O.2     1  UNL11      -0.2710
     12 H          -8.6210   12.3590   65.5370 H       1  UNL11       0.1630
     13 C          -8.0250   11.0150   67.8610 C.3     1  UNL11       0.0860
     14 H          -8.5000   11.2890   68.8020 H       1  UNL11       0.0860
     15 N          -7.2070    9.8450   68.1330 N.am    1  UNL11      -0.3430
     16 C          -7.4850    9.0290   69.3170 C.2     1  UNL11       0.2730
     17 O          -8.3680    9.3250   70.0460 O.2     1  UNL11      -0.2660
     18 H          -6.4530    9.6010   67.5060 H       1  UNL11       0.1630
     19 C          -6.6300    7.7880   69.6160 C.ar    1  UNL11       0.1540
     20 C          -7.0890    6.5080   70.0620 C.ar    1  UNL11      -0.0170
     21 C          -5.9190    5.7260   70.1850 C.ar    1  UNL11       0.0770
     22 H          -8.1130    6.1960   70.2650 H       1  UNL11       0.0910
     23 O          -4.9130    6.4770   69.8460 O.2     1  UNL11      -0.2180
     24 N          -5.3020    7.6850   69.5100 N.ar    1  UNL11      -0.1230
     25 C          -5.8510    4.2710   70.6320 C.3     1  UNL11      -0.0290
     26 H          -6.2720    3.6320   69.8550 H       1  UNL11       0.0360
     27 H          -4.8110    3.9940   70.8070 H       1  UNL11       0.0360
     28 H          -6.4200    4.1460   71.5530 H       1  UNL11       0.0360
     29 C          -7.1550   12.1580   67.4030 C.3     1  UNL11      -0.0490
     30 H          -7.2890   12.3110   66.3330 H       1  UNL11       0.0300
     31 H          -7.4360   13.0650   67.9390 H       1  UNL11       0.0300
     32 H          -6.1100   11.9240   67.6080 H       1  UNL11       0.0300
     33 C         -10.7220   12.5260   63.9370 C.3     1  UNL11      -0.0330
     34 H         -10.1810   12.7100   63.0080 H       1  UNL11       0.0420
     35 C         -12.2350   12.3920   63.5790 C.3     1  UNL11      -0.0710
     36 H         -12.3450   12.2840   62.5000 H       1  UNL11       0.0280
     37 H         -12.6490   11.5150   64.0760 H       1  UNL11       0.0280
     38 H         -12.7660   13.2830   63.9120 H       1  UNL11       0.0280
     39 C         -10.4700   13.7370   64.8910 C.3     1  UNL11      -0.0710
     40 H          -9.4740   14.1410   64.7100 H       1  UNL11       0.0280
     41 H         -11.2160   14.5090   64.7040 H       1  UNL11       0.0280
     42 H         -10.5440   13.4040   65.9270 H       1  UNL11       0.0280
     43 C          -8.1160    6.7800   63.3060 C.2     1  UNL11       0.2400
     44 O          -7.5530    5.9720   62.6400 O.2     1  UNL11      -0.2710
     45 N          -8.6060    6.4100   64.6640 N.am    1  UNL11      -0.3550
     46 H          -9.0810    7.0890   65.2400 H       1  UNL11       0.1620
     47 C          -8.3950    5.0370   65.1710 C.3     1  UNL11       0.0130
     48 H          -7.9800    4.4400   64.3590 H       1  UNL11       0.0720
     49 C          -9.7190    4.4580   65.6130 C.3     1  UNL11      -0.0380
     50 H         -10.4830    5.0490   65.1080 H       1  UNL11       0.0360
     51 H          -9.6480    3.3860   65.4280 H       1  UNL11       0.0360
     52 C          -9.9700    4.6240   67.1280 C.3     1  UNL11       0.0180
     53 H         -10.5780    3.7680   67.4220 H       1  UNL11       0.0480
     54 H          -8.9870    4.7740   67.5750 H       1  UNL11       0.0480
     55 C         -10.8020    5.8850   67.4900 C.2     1  UNL11       0.2590
     56 O         -11.1710    6.6290   66.6400 O.2     1  UNL11      -0.2650
     57 O         -11.1100    6.1480   68.8540 O.3     1  UNL11      -0.3170
     58 C         -10.5240    5.2210   69.7720 C.3     1  UNL11       0.0520
     59 H         -11.2000    4.3670   69.8000 H       1  UNL11       0.0820
     60 H          -9.4940    5.0900   69.4430 H       1  UNL11       0.0820
     61 C         -10.5100    5.8820   71.1760 C.ar    1  UNL11      -0.0340
     62 C         -10.9190    7.2030   71.3290 C.ar    1  UNL11      -0.0750
     63 C         -10.9060    7.7980   72.5900 C.ar    1  UNL11      -0.0820
     64 H         -11.2500    7.7730   70.4600 H       1  UNL11       0.0840
     65 C         -10.4800    7.0660   73.7010 C.ar    1  UNL11      -0.0830
     66 H         -11.2300    8.8320   72.7060 H       1  UNL11       0.0830
     67 C         -10.0700    5.7490   73.5440 C.ar    1  UNL11      -0.0820
     68 H         -10.4680    7.5220   74.6910 H       1  UNL11       0.0830
     69 C         -10.0830    5.1510   72.2860 C.ar    1  UNL11      -0.0750
     70 H          -9.7360    5.1810   74.4130 H       1  UNL11       0.0830
     71 H          -9.7600    4.1150   72.1710 H       1  UNL11       0.0840
     72 C          -7.4300    5.0660   66.3540 C.3     1  UNL11      -0.0390
     73 H          -7.5680    6.0440   66.8170 H       1  UNL11       0.0360
     74 H          -7.6410    4.1600   66.9230 H       1  UNL11       0.0360
     75 C          -5.9030    4.9800   65.8770 C.3     1  UNL11      -0.0010
     76 C          -5.1190    3.8040   66.7170 C.3     1  UNL11      -0.0350
     77 C          -3.9810    4.3230   67.2360 C.3     1  UNL11       0.0850
     78 H          -5.6970    3.5250   67.5980 H       1  UNL11       0.0360
     79 H          -4.7590    3.0330   66.0350 H       1  UNL11       0.0360
     80 N          -4.0800    5.8240   67.1030 N.4     1  UNL11      -0.0490
     81 H          -3.9950    4.0590   68.2940 H       1  UNL11       0.0750
     82 H          -3.1770    3.9630   66.5950 H       1  UNL11       0.0750
     83 C          -5.2890    6.0990   66.0700 C.3     1  UNL11       0.1930
     84 H          -4.3470    6.1750   68.0120 H       1  UNL11       0.2800
     85 H          -3.2170    6.1310   66.6770 H       1  UNL11       0.2800
     86 H          -5.0820    6.3920   65.0410 H       1  UNL11       0.1290
     87 H          -5.8110    4.9590   64.7910 H       1  UNL11       0.0460
     88 O          -6.1580    7.1090   66.5870 O.3     1  UNL11      -0.3690
     89 H          -5.6380    7.7860   67.0250 H       1  UNL11       0.2120
     90 C          -6.9830    8.8450   62.4260 C.3     1  UNL11      -0.0350
     91 H          -6.5520    8.2090   61.6520 H       1  UNL11       0.0370
     92 H          -7.1960    9.8930   62.2130 H       1  UNL11       0.0370
     93 C          -5.9750    8.8320   63.6180 C.3     1  UNL11      -0.0590
     94 H          -6.4020    8.2120   64.4060 H       1  UNL11       0.0380
     95 C          -4.5970    8.2130   63.2190 C.3     1  UNL11      -0.0730
     96 H          -4.2140    7.6160   64.0470 H       1  UNL11       0.0280
     97 H          -4.7250    7.5790   62.3420 H       1  UNL11       0.0280
     98 H          -3.8920    9.0130   62.9900 H       1  UNL11       0.0280
     99 C          -5.7930   10.2390   64.1950 C.3     1  UNL11      -0.0730
    100 H          -5.5070   10.1670   65.2450 H       1  UNL11       0.0280
    101 H          -5.0120   10.7600   63.6410 H       1  UNL11       0.0280
    102 H          -6.7290   10.7900   64.1100 H       1  UNL11       0.0280
@<TRIPOS>BOND
     1    91    90    1
     2     2     1    1
     3    92    90    1
     4    97    95    1
     5     5     4    2
     6    90     1    1
     7    90    93    1
     8    36    35    1
     9    44    43    2
    10     1    43    1
    11     1     3    1
    12    98    95    1
    13    34    33    1
    14    95    93    1
    15    95    96    1
    16    43    45   am
    17     4     3   am
    18     4     7    1
    19    35    38    1
    20    35    33    1
    21    35    37    1
    22    93    99    1
    23    93    94    1
    24   101    99    1
    25     3     6    1
    26    33     7    1
    27    33    39    1
    28   102    99    1
    29    99   100    1
    30    48    47    1
    31     7     8    1
    32     7     9    1
    33    45    47    1
    34    45    46    1
    35    41    39    1
    36    40    39    1
    37    87    75    1
    38    39    42    1
    39    86    83    1
    40    50    49    1
    41    47    49    1
    42    47    72    1
    43    51    49    1
    44    12     9    1
    45     9    10   am
    46    49    52    1
    47    75    83    1
    48    75    72    1
    49    75    76    1
    50    79    76    1
    51    83    88    1
    52    83    80    1
    53    30    29    1
    54    72    73    1
    55    72    74    1
    56    88    89    1
    57    82    77    1
    58    56    55    2
    59    85    80    1
    60    76    77    1
    61    76    78    1
    62    10    11    2
    63    10    13    1
    64    80    77    1
    65    80    84    1
    66    52    53    1
    67    52    55    1
    68    52    54    1
    69    77    81    1
    70    29    32    1
    71    29    13    1
    72    29    31    1
    73    55    57    1
    74    18    15    1
    75    13    15    1
    76    13    14    1
    77    15    16   am
    78    57    58    1
    79    16    19    1
    80    16    17    2
    81    60    58    1
    82    24    19   ar
    83    24    23   ar
    84    19    20   ar
    85    58    59    1
    86    58    61    1
    87    23    21   ar
    88    26    25    1
    89    20    21   ar
    90    20    22    1
    91    21    25    1
    92    64    62    1
    93    25    27    1
    94    25    28    1
    95    61    62   ar
    96    61    69   ar
    97    62    63   ar
    98    71    69    1
    99    69    67   ar
   100    63    66    1
   101    63    65   ar
   102    67    65   ar
   103    67    70    1
   104    65    68    1
@<TRIPOS>MOLECULE
crystal_redock_e32_er3_1.pdbqt
 102 104 0 0 0
SMALL
GASTEIGER

@<TRIPOS>ATOM
      1 C         -10.5030    7.6640   68.1320 C.3     1  UNL11       0.0890
      2 H         -11.4300    7.1480   67.8810 H       1  UNL11       0.0870
      3 N          -9.4000    6.8100   67.7160 N.am    1  UNL11      -0.3460
      4 C          -9.6610    5.5750   66.8920 C.2     1  UNL11       0.2410
      5 O         -10.7690    5.2880   66.5760 O.2     1  UNL11      -0.2710
      6 H          -8.4650    7.0710   67.9970 H       1  UNL11       0.1630
      7 C          -8.5070    4.7060   66.4660 C.3     1  UNL11       0.0920
      8 H          -8.8660    3.9520   65.7660 H       1  UNL11       0.0880
      9 N          -7.5170    5.5210   65.7560 N.am    1  UNL11      -0.3460
     10 C          -7.6900    5.8030   64.3520 C.2     1  UNL11       0.2400
     11 O          -8.6190    5.3820   63.7780 O.2     1  UNL11      -0.2710
     12 H          -6.7100    5.8900   66.2370 H       1  UNL11       0.1630
     13 C          -6.6310    6.6690   63.6010 C.3     1  UNL11       0.0860
     14 H          -7.0470    7.1910   62.7390 H       1  UNL11       0.0860
     15 N          -6.1310    7.6910   64.5050 N.am    1  UNL11      -0.3430
     16 C          -6.7160    9.0330   64.4700 C.2     1  UNL11       0.2730
     17 O          -7.5870    9.2810   63.7100 O.2     1  UNL11      -0.2660
     18 H          -5.3850    7.4720   65.1500 H       1  UNL11       0.1630
     19 C          -6.1990   10.1240   65.4210 C.ar    1  UNL11       0.1540
     20 C          -6.6450   10.3920   66.7540 C.ar    1  UNL11      -0.0170
     21 C          -5.8580   11.4820   67.1890 C.ar    1  UNL11       0.0770
     22 H          -7.4210    9.8750   67.3190 H       1  UNL11       0.0910
     23 O          -5.0560   11.7940   66.2130 O.2     1  UNL11      -0.2180
     24 N          -5.2360   11.0160   65.1710 N.ar    1  UNL11      -0.1230
     25 C          -5.9340   12.1630   68.5490 C.3     1  UNL11      -0.0290
     26 H          -6.2330   11.4360   69.3040 H       1  UNL11       0.0360
     27 H          -4.9570   12.5720   68.8050 H       1  UNL11       0.0360
     28 H          -6.6670   12.9700   68.5110 H       1  UNL11       0.0360
     29 C          -5.4970    5.7900   63.1380 C.3     1  UNL11      -0.0490
     30 H          -4.6080    5.9980   63.7340 H       1  UNL11       0.0300
     31 H          -5.7770    4.7430   63.2550 H       1  UNL11       0.0300
     32 H          -5.2840    5.9940   62.0890 H       1  UNL11       0.0300
     33 C          -7.8460    4.0700   67.7240 C.3     1  UNL11      -0.0330
     34 H          -7.4520    4.8820   68.3340 H       1  UNL11       0.0420
     35 C          -8.8920    3.2990   68.5880 C.3     1  UNL11      -0.0710
     36 H          -9.7710    3.9270   68.7390 H       1  UNL11       0.0280
     37 H          -9.1850    2.3840   68.0730 H       1  UNL11       0.0280
     38 H          -8.4530    3.0500   69.5530 H       1  UNL11       0.0280
     39 C          -6.6530    3.1450   67.3210 C.3     1  UNL11      -0.0710
     40 H          -6.9510    2.5090   66.4870 H       1  UNL11       0.0280
     41 H          -5.8020    3.7580   67.0230 H       1  UNL11       0.0280
     42 H          -6.3730    2.5230   68.1710 H       1  UNL11       0.0280
     43 C         -10.3750    9.0300   67.3980 C.2     1  UNL11       0.2400
     44 O         -10.2350    9.0570   66.2180 O.2     1  UNL11      -0.2710
     45 N         -10.4350   10.3060   68.1660 N.am    1  UNL11      -0.3550
     46 H         -10.5590   10.2970   69.1680 H       1  UNL11       0.1620
     47 C         -10.3140   11.5970   67.4540 C.3     1  UNL11       0.0130
     48 H          -9.8070   11.4110   66.5070 H       1  UNL11       0.0720
     49 C          -9.5030   12.5570   68.2940 C.3     1  UNL11      -0.0380
     50 H         -10.1680   12.8840   69.0930 H       1  UNL11       0.0360
     51 H          -8.5790   12.0290   68.5350 H       1  UNL11       0.0360
     52 C          -9.0900   13.8290   67.5220 C.3     1  UNL11       0.0180
     53 H          -8.0700   14.0490   67.8380 H       1  UNL11       0.0480
     54 H          -9.3020   13.6190   66.4730 H       1  UNL11       0.0480
     55 C          -9.9320   15.0830   67.8860 C.2     1  UNL11       0.2590
     56 O         -10.3050   15.8260   67.0370 O.2     1  UNL11      -0.2650
     57 O         -10.2420   15.3420   69.2490 O.3     1  UNL11      -0.3170
     58 C         -11.5420   15.9030   69.4550 C.3     1  UNL11       0.0520
     59 H         -11.3750   16.8640   69.9410 H       1  UNL11       0.0820
     60 H         -12.0370   15.8620   68.4850 H       1  UNL11       0.0820
     61 C         -12.3110   14.9820   70.4380 C.ar    1  UNL11      -0.0340
     62 C         -12.0590   13.6130   70.4530 C.ar    1  UNL11      -0.0750
     63 C         -12.7500   12.7850   71.3360 C.ar    1  UNL11      -0.0820
     64 H         -11.3190   13.1900   69.7730 H       1  UNL11       0.0840
     65 C         -13.6990   13.3300   72.2060 C.ar    1  UNL11      -0.0830
     66 H         -12.5480   11.7140   71.3470 H       1  UNL11       0.0830
     67 C         -13.9490   14.6950   72.1850 C.ar    1  UNL11      -0.0820
     68 H         -14.2430   12.6900   72.9000 H       1  UNL11       0.0830
     69 C         -13.2590   15.5270   71.3060 C.ar    1  UNL11      -0.0750
     70 H         -14.6920   15.1170   72.8630 H       1  UNL11       0.0830
     71 H         -13.4610   16.5980   71.2960 H       1  UNL11       0.0840
     72 C         -11.7020   12.1830   67.2060 C.3     1  UNL11      -0.0390
     73 H         -12.4030   11.4400   67.5860 H       1  UNL11       0.0360
     74 H         -11.6770   13.1820   67.6430 H       1  UNL11       0.0360
     75 C         -12.0010   12.3580   65.6420 C.3     1  UNL11      -0.0010
     76 C         -10.6060   12.2040   64.7850 C.3     1  UNL11      -0.0350
     77 C         -10.4830   13.2690   63.9560 C.3     1  UNL11       0.0850
     78 H          -9.7470   12.2970   65.4490 H       1  UNL11       0.0360
     79 H         -10.6790   11.3570   64.1020 H       1  UNL11       0.0360
     80 N         -11.4950   14.2950   64.4040 N.4     1  UNL11      -0.0490
     81 H          -9.4800   13.6590   64.1310 H       1  UNL11       0.0750
     82 H         -10.7610   12.9020   62.9690 H       1  UNL11       0.0750
     83 C         -12.5090   13.5180   65.3910 C.3     1  UNL11       0.1930
     84 H         -10.9870   14.9830   64.9410 H       1  UNL11       0.2800
     85 H         -12.0040   14.5750   63.5770 H       1  UNL11       0.2800
     86 H         -13.5030   13.2290   65.0480 H       1  UNL11       0.1290
     87 H         -12.8530   11.7620   65.3150 H       1  UNL11       0.0460
     88 O         -12.7230   14.2830   66.5790 O.3     1  UNL11      -0.3690
     89 H         -11.8850   14.4190   67.0260 H       1  UNL11       0.2120
     90 C         -10.4230    7.8820   69.6340 C.3     1  UNL11      -0.0350
     91 H         -10.5990    8.9480   69.7810 H       1  UNL11       0.0370
     92 H         -11.1070    7.1520   70.0680 H       1  UNL11       0.0370
     93 C          -9.0150    7.5800   70.2380 C.3     1  UNL11      -0.0590
     94 H          -8.3990    7.1550   69.4450 H       1  UNL11       0.0380
     95 C          -8.3040    8.8730   70.7520 C.3     1  UNL11      -0.0730
     96 H          -7.6870    9.2890   69.9550 H       1  UNL11       0.0280
     97 H          -9.0550    9.6050   71.0500 H       1  UNL11       0.0280
     98 H          -7.6760    8.6260   71.6080 H       1  UNL11       0.0280
     99 C          -9.1100    6.5320   71.3500 C.3     1  UNL11      -0.0730
    100 H         -10.0100    5.9330   71.2090 H       1  UNL11       0.0280
    101 H          -8.2330    5.8840   71.3140 H       1  UNL11       0.0280
    102 H          -9.1520    7.0320   72.3170 H       1  UNL11       0.0280
@<TRIPOS>BOND
     1    32    29    1
     2    14    13    1
     3    82    77    1
     4    29    31    1
     5    29    13    1
     6    29    30    1
     7    85    80    1
     8    13    10    1
     9    13    15    1
    10    17    16    2
    11    11    10    2
    12    77    81    1
    13    77    80    1
    14    77    76    1
    15    79    76    1
    16    10     9   am
    17    80    84    1
    18    80    83    1
    19    16    15   am
    20    16    19    1
    21    15    18    1
    22    76    78    1
    23    76    75    1
    24    86    83    1
    25    24    19   ar
    26    24    23   ar
    27    87    75    1
    28    83    75    1
    29    83    88    1
    30    19    20   ar
    31    75    72    1
    32     9    12    1
    33     9     7    1
    34     8     7    1
    35    23    21   ar
    36    44    43    2
    37     7     4    1
    38     7    33    1
    39    54    52    1
    40    40    39    1
    41    48    47    1
    42     5     4    2
    43    88    89    1
    44    20    21   ar
    45    20    22    1
    46     4     3   am
    47    41    39    1
    48    56    55    2
    49    21    25    1
    50    72    47    1
    51    72    73    1
    52    72    74    1
    53    39    33    1
    54    39    42    1
    55    43     1    1
    56    43    45   am
    57    47    45    1
    58    47    49    1
    59    52    53    1
    60    52    55    1
    61    52    49    1
    62     3     6    1
    63     3     1    1
    64    33    34    1
    65    33    35    1
    66     2     1    1
    67    55    57    1
    68    37    35    1
    69     1    90    1
    70    45    46    1
    71    49    51    1
    72    49    50    1
    73    60    58    1
    74    28    25    1
    75    25    27    1
    76    25    26    1
    77    35    36    1
    78    35    38    1
    79    57    58    1
    80    94    93    1
    81    58    59    1
    82    58    61    1
    83    90    91    1
    84    90    92    1
    85    90    93    1
    86    64    62    1
    87    96    95    1
    88    93    95    1
    89    93    99    1
    90    61    62   ar
    91    61    69   ar
    92    62    63   ar
    93    95    97    1
    94    95    98    1
    95   100    99    1
    96    71    69    1
    97    69    67   ar
    98   101    99    1
    99    63    66    1
   100    63    65   ar
   101    99   102    1
   102    67    65   ar
   103    67    70    1
   104    65    68    1
@<TRIPOS>MOLECULE
crystal_redock_e8_er3_1.pdbqt
 102 104 0 0 0
SMALL
GASTEIGER

@<TRIPOS>ATOM
      1 C          -7.7260    9.1360   67.3680 C.3     1  UNL11       0.0890
      2 H          -7.5500    8.5080   66.4940 H       1  UNL11       0.0870
      3 N          -8.7990   10.0620   67.0340 N.am    1  UNL11      -0.3460
      4 C          -9.5390    9.9300   65.7280 C.2     1  UNL11       0.2410
      5 O          -9.2520    9.0730   64.9590 O.2     1  UNL11      -0.2710
      6 H          -9.0260   10.7850   67.7010 H       1  UNL11       0.1630
      7 C         -10.6510   10.8920   65.4010 C.3     1  UNL11       0.0920
      8 H         -11.5770   10.5360   65.8510 H       1  UNL11       0.0880
      9 N         -10.3550   12.2000   65.9950 N.am    1  UNL11      -0.3460
     10 C         -11.2130   12.7340   67.0250 C.2     1  UNL11       0.2400
     11 O         -12.1450   12.1250   67.3870 O.2     1  UNL11      -0.2710
     12 H          -9.5560   12.7370   65.6920 H       1  UNL11       0.1630
     13 C         -10.8950   14.1270   67.6510 C.3     1  UNL11       0.0860
     14 H         -11.3700   14.9480   67.1150 H       1  UNL11       0.0860
     15 N         -11.4120   14.1630   69.0090 N.am    1  UNL11      -0.3430
     16 C         -11.9730   15.4090   69.5350 C.2     1  UNL11       0.2730
     17 O         -12.0010   16.3780   68.8580 O.2     1  UNL11      -0.2660
     18 H         -11.3820   13.3310   69.5810 H       1  UNL11       0.1630
     19 C         -12.5240   15.4610   70.9680 C.ar    1  UNL11       0.1540
     20 C         -11.7750   15.6080   72.1780 C.ar    1  UNL11      -0.0170
     21 C         -12.7420   15.5970   73.2080 C.ar    1  UNL11       0.0770
     22 H         -10.6950   15.7070   72.2920 H       1  UNL11       0.0910
     23 O         -13.9060   15.4610   72.6450 O.2     1  UNL11      -0.2180
     24 N         -13.8050   15.3790   71.3380 N.ar    1  UNL11      -0.1230
     25 C         -12.4700   15.7230   74.7010 C.3     1  UNL11      -0.0290
     26 H         -12.4100   14.7290   75.1450 H       1  UNL11       0.0360
     27 H         -11.5270   16.2470   74.8560 H       1  UNL11       0.0360
     28 H         -13.2780   16.2830   75.1720 H       1  UNL11       0.0360
     29 C          -9.4040   14.3490   67.6600 C.3     1  UNL11      -0.0490
     30 H          -9.1730   15.2470   68.2330 H       1  UNL11       0.0300
     31 H          -8.9110   13.4900   68.1160 H       1  UNL11       0.0300
     32 H          -9.0490   14.4710   66.6370 H       1  UNL11       0.0300
     33 C         -10.7700   11.0430   63.8560 C.3     1  UNL11      -0.0330
     34 H         -10.8320   10.0400   63.4320 H       1  UNL11       0.0420
     35 C         -12.0740   11.8010   63.4580 C.3     1  UNL11      -0.0710
     36 H         -12.8610   11.0800   63.2360 H       1  UNL11       0.0280
     37 H         -12.3900   12.4390   64.2830 H       1  UNL11       0.0280
     38 H         -11.8830   12.4130   62.5770 H       1  UNL11       0.0280
     39 C          -9.5050   11.7410   63.2630 C.3     1  UNL11      -0.0710
     40 H          -9.4740   12.7790   63.5930 H       1  UNL11       0.0280
     41 H          -8.6090   11.2240   63.6070 H       1  UNL11       0.0280
     42 H          -9.5480   11.7070   62.1740 H       1  UNL11       0.0280
     43 C          -8.1560    8.3060   68.6110 C.2     1  UNL11       0.2400
     44 O          -7.3530    7.6490   69.1900 O.2     1  UNL11      -0.2710
     45 N          -9.5690    8.3370   69.0850 N.am    1  UNL11      -0.3550
     46 H         -10.2600    8.8950   68.6040 H       1  UNL11       0.1620
     47 C          -9.9620    7.5430   70.2690 C.3     1  UNL11       0.0130
     48 H          -9.0700    7.0480   70.6520 H       1  UNL11       0.0720
     49 C         -10.9900    6.5120   69.8610 C.3     1  UNL11      -0.0380
     50 H         -10.7190    5.5990   70.3920 H       1  UNL11       0.0360
     51 H         -11.9600    6.9780   70.0370 H       1  UNL11       0.0360
     52 C         -10.9340    6.1740   68.3550 C.3     1  UNL11       0.0180
     53 H         -11.9220    5.7890   68.1020 H       1  UNL11       0.0480
     54 H         -10.5570    7.0720   67.8650 H       1  UNL11       0.0480
     55 C          -9.9310    5.0400   68.0040 C.2     1  UNL11       0.2590
     56 O          -9.8300    4.0860   68.7050 O.2     1  UNL11      -0.2650
     57 O          -9.1220    5.1610   66.8410 O.3     1  UNL11      -0.3170
     58 C          -7.7480    4.8200   67.0480 C.3     1  UNL11       0.0520
     59 H          -7.4080    5.4520   67.8680 H       1  UNL11       0.0820
     60 H          -7.7260    3.7350   67.1500 H       1  UNL11       0.0820
     61 C          -6.9600    5.2080   65.7690 C.ar    1  UNL11      -0.0340
     62 C          -7.5990    5.8830   64.7340 C.ar    1  UNL11      -0.0750
     63 C          -6.8910    6.2310   63.5850 C.ar    1  UNL11      -0.0820
     64 H          -8.6550    6.1390   64.8240 H       1  UNL11       0.0840
     65 C          -5.5380    5.9000   63.4720 C.ar    1  UNL11      -0.0830
     66 H          -7.3950    6.7620   62.7770 H       1  UNL11       0.0830
     67 C          -4.9050    5.2240   64.5060 C.ar    1  UNL11      -0.0820
     68 H          -4.9770    6.1690   62.5770 H       1  UNL11       0.0830
     69 C          -5.6080    4.8750   65.6570 C.ar    1  UNL11      -0.0750
     70 H          -3.8500    4.9650   64.4130 H       1  UNL11       0.0830
     71 H          -5.1040    4.3450   66.4650 H       1  UNL11       0.0840
     72 C         -10.5570    8.4630   71.3330 C.3     1  UNL11      -0.0390
     73 H         -10.7520    7.8220   72.1940 H       1  UNL11       0.0360
     74 H          -9.8590    9.2950   71.4210 H       1  UNL11       0.0360
     75 C         -11.9640    9.0720   70.8700 C.3     1  UNL11      -0.0010
     76 C         -11.8030   10.6790   70.5580 C.3     1  UNL11      -0.0350
     77 C         -12.7610   11.3540   71.2370 C.3     1  UNL11       0.0850
     78 H         -10.8750   11.0520   70.9900 H       1  UNL11       0.0360
     79 H         -12.0390   10.8830   69.5140 H       1  UNL11       0.0360
     80 N         -13.3540   10.3910   72.2370 N.4     1  UNL11      -0.0490
     81 H         -12.2370   12.1450   71.7730 H       1  UNL11       0.0750
     82 H         -13.5190   11.6070   70.4960 H       1  UNL11       0.0750
     83 C         -12.8630    8.9210   71.7840 C.3     1  UNL11       0.1930
     84 H         -12.9340   10.6100   73.1290 H       1  UNL11       0.2800
     85 H         -14.3570   10.4430   72.1250 H       1  UNL11       0.2800
     86 H         -13.5480    8.2400   71.2780 H       1  UNL11       0.1290
     87 H         -12.4460    8.4650   70.1030 H       1  UNL11       0.0460
     88 O         -12.3690    8.1970   72.9120 O.3     1  UNL11      -0.3690
     89 H         -11.4320    8.0250   72.7950 H       1  UNL11       0.2120
     90 C          -6.4700    9.9290   67.6930 C.3     1  UNL11      -0.0350
     91 H          -6.7740   10.9760   67.6650 H       1  UNL11       0.0370
     92 H          -6.0870    9.4980   68.6180 H       1  UNL11       0.0370
     93 C          -5.3360    9.7710   66.6300 C.3     1  UNL11      -0.0590
     94 H          -4.4850   10.3640   66.9640 H       1  UNL11       0.0380
     95 C          -4.8610    8.2890   66.4920 C.3     1  UNL11      -0.0730
     96 H          -3.8650    8.2670   66.0490 H       1  UNL11       0.0280
     97 H          -4.8300    7.8250   67.4780 H       1  UNL11       0.0280
     98 H          -5.5550    7.7430   65.8540 H       1  UNL11       0.0280
     99 C          -5.7760   10.3300   65.2740 C.3     1  UNL11      -0.0730
    100 H          -6.4210    9.6060   64.7740 H       1  UNL11       0.0280
    101 H          -6.3230   11.2610   65.4260 H       1  UNL11       0.0280
    102 H          -4.8980   10.5210   64.6580 H       1  UNL11       0.0280
@<TRIPOS>BOND
     1    42    39    1
     2    38    35    1
     3    68    65    1
     4    66    63    1
     5    36    35    1
     6    39    40    1
     7    39    41    1
     8    39    33    1
     9    34    33    1
    10    35    33    1
    11    35    37    1
    12    65    63   ar
    13    65    67   ar
    14    63    62   ar
    15    33     7    1
    16    70    67    1
    17    67    69   ar
    18   102    99    1
    19    62    64    1
    20    62    61   ar
    21   100    99    1
    22     5     4    2
    23    99   101    1
    24    99    93    1
    25     7     4    1
    26     7     8    1
    27     7     9    1
    28    69    61   ar
    29    69    71    1
    30    12     9    1
    31     4     3   am
    32    61    58    1
    33    98    95    1
    34     9    10   am
    35    96    95    1
    36    95    93    1
    37    95    97    1
    38     2     1    1
    39    93    94    1
    40    93    90    1
    41    32    29    1
    42    57    58    1
    43    57    55    1
    44    10    11    2
    45    10    13    1
    46     3     1    1
    47     3     6    1
    48    58    60    1
    49    58    59    1
    50    14    13    1
    51     1    90    1
    52     1    43    1
    53    13    29    1
    54    13    15    1
    55    29    31    1
    56    29    30    1
    57    91    90    1
    58    90    92    1
    59    54    52    1
    60    55    52    1
    61    55    56    2
    62    53    52    1
    63    52    49    1
    64    46    45    1
    65    43    45   am
    66    43    44    2
    67    17    16    2
    68    15    16   am
    69    15    18    1
    70    45    47    1
    71    79    76    1
    72    16    19    1
    73    49    51    1
    74    49    47    1
    75    49    50    1
    76    87    75    1
    77    47    48    1
    78    47    72    1
    79    82    77    1
    80    76    75    1
    81    76    78    1
    82    76    77    1
    83    75    72    1
    84    75    83    1
    85    19    24   ar
    86    19    20   ar
    87    77    81    1
    88    77    80    1
    89    86    83    1
    90    72    74    1
    91    72    73    1
    92    24    23   ar
    93    83    80    1
    94    83    88    1
    95    85    80    1
    96    20    22    1
    97    20    21   ar
    98    80    84    1
    99    23    21   ar
   100    89    88    1
   101    21    25    1
   102    25    27    1
   103    25    26    1
   104    25    28    1
@<TRIPOS>MOLECULE
crystal_redock_e8_er3_1.pdbqt
 102 104 0 0 0
SMALL
GASTEIGER

@<TRIPOS>ATOM
      1 C         -11.7570   10.5090   70.3560 C.3     1  UNL11       0.0890
      2 H         -10.9650   10.1670   71.0240 H       1  UNL11       0.0870
      3 N         -11.7640   11.9640   70.3940 N.am    1  UNL11      -0.3460
      4 C         -12.6120   12.6950   71.4050 C.2     1  UNL11       0.2410
      5 O         -13.2820   12.0910   72.1750 O.2     1  UNL11      -0.2710
      6 H         -11.1890   12.4590   69.7280 H       1  UNL11       0.1630
      7 C         -12.6030   14.2010   71.4330 C.3     1  UNL11       0.0920
      8 H         -11.6550   14.5460   71.8480 H       1  UNL11       0.0880
      9 N         -12.6900   14.7170   70.0640 N.am    1  UNL11      -0.3460
     10 C         -11.4900   15.0890   69.3560 C.2     1  UNL11       0.2400
     11 O         -10.4460   14.9810   69.8740 O.2     1  UNL11      -0.2710
     12 H         -13.5840   14.8170   69.6050 H       1  UNL11       0.1630
     13 C         -11.5900   15.6400   67.9000 C.3     1  UNL11       0.0860
     14 H         -12.3160   16.4470   67.8030 H       1  UNL11       0.0860
     15 N         -10.3010   16.1930   67.5150 N.am    1  UNL11      -0.3430
     16 C         -10.1190   17.6450   67.4850 C.2     1  UNL11       0.2730
     17 O         -11.0160   18.3610   67.7680 O.2     1  UNL11      -0.2660
     18 H          -9.5410   15.5730   67.2720 H       1  UNL11       0.1630
     19 C          -8.7620   18.2430   67.0820 C.ar    1  UNL11       0.1540
     20 C          -7.5490   18.2250   67.8420 C.ar    1  UNL11      -0.0170
     21 C          -6.6050   18.8990   67.0350 C.ar    1  UNL11       0.0770
     22 H          -7.3810   17.7900   68.8270 H       1  UNL11       0.0910
     23 O          -7.2140   19.2570   65.9430 O.2     1  UNL11      -0.2180
     24 N          -8.4740   18.8860   65.9470 N.ar    1  UNL11      -0.1230
     25 C          -5.1450   19.1580   67.3820 C.3     1  UNL11      -0.0290
     26 H          -4.6750   18.2260   67.6970 H       1  UNL11       0.0360
     27 H          -4.6270   19.5470   66.5050 H       1  UNL11       0.0360
     28 H          -5.0870   19.8860   68.1910 H       1  UNL11       0.0360
     29 C         -11.9740   14.5240   66.9620 C.3     1  UNL11      -0.0490
     30 H         -11.0980   14.2070   66.3960 H       1  UNL11       0.0300
     31 H         -12.3580   13.6820   67.5380 H       1  UNL11       0.0300
     32 H         -12.7420   14.8760   66.2740 H       1  UNL11       0.0300
     33 C         -13.8220   14.7110   72.2560 C.3     1  UNL11      -0.0330
     34 H         -14.1590   13.8900   72.8880 H       1  UNL11       0.0420
     35 C         -13.4200   15.8910   73.1950 C.3     1  UNL11      -0.0710
     36 H         -12.3390   15.8940   73.3320 H       1  UNL11       0.0280
     37 H         -13.7320   16.8340   72.7460 H       1  UNL11       0.0280
     38 H         -13.9090   15.7690   74.1610 H       1  UNL11       0.0280
     39 C         -15.0030   15.1130   71.3140 C.3     1  UNL11      -0.0710
     40 H         -15.7090   14.2870   71.2450 H       1  UNL11       0.0280
     41 H         -15.5080   15.9900   71.7200 H       1  UNL11       0.0280
     42 H         -14.6140   15.3430   70.3230 H       1  UNL11       0.0280
     43 C         -11.5250   10.0530   68.8870 C.2     1  UNL11       0.2400
     44 O         -11.8300   10.7700   67.9900 O.2     1  UNL11      -0.2710
     45 N         -10.9120    8.7250   68.5990 N.am    1  UNL11      -0.3550
     46 H         -10.6440    8.1090   69.3530 H       1  UNL11       0.1620
     47 C         -10.6960    8.3060   67.1970 C.3     1  UNL11       0.0130
     48 H         -11.3730    8.8830   66.5670 H       1  UNL11       0.0720
     49 C         -10.9990    6.8310   67.0640 C.3     1  UNL11      -0.0380
     50 H         -12.0280    6.7720   66.7090 H       1  UNL11       0.0360
     51 H         -10.1900    6.4180   66.4610 H       1  UNL11       0.0360
     52 C         -10.9600    6.0860   68.4160 C.3     1  UNL11       0.0180
     53 H         -10.6430    6.8260   69.1520 H       1  UNL11       0.0480
     54 H         -11.9310    5.6010   68.5140 H       1  UNL11       0.0480
     55 C          -9.9040    4.9470   68.4730 C.2     1  UNL11       0.2590
     56 O          -9.5820    4.4750   69.5150 O.2     1  UNL11      -0.2650
     57 O          -9.3160    4.4810   67.2650 O.3     1  UNL11      -0.3170
     58 C          -7.9450    4.8560   67.1020 C.3     1  UNL11       0.0520
     59 H          -7.8190    5.7710   67.6810 H       1  UNL11       0.0820
     60 H          -7.3650    3.9690   67.3520 H       1  UNL11       0.0820
     61 C          -7.7150    5.1870   65.6030 C.ar    1  UNL11      -0.0340
     62 C          -8.7460    5.0170   64.6850 C.ar    1  UNL11      -0.0750
     63 C          -8.5390    5.3150   63.3390 C.ar    1  UNL11      -0.0820
     64 H          -9.7170    4.6520   65.0200 H       1  UNL11       0.0840
     65 C          -7.2930    5.7810   62.9110 C.ar    1  UNL11      -0.0830
     66 H          -9.3500    5.1830   62.6230 H       1  UNL11       0.0830
     67 C          -6.2650    5.9460   63.8310 C.ar    1  UNL11      -0.0820
     68 H          -7.1220    6.0170   61.8610 H       1  UNL11       0.0830
     69 C          -6.4690    5.6520   65.1770 C.ar    1  UNL11      -0.0750
     70 H          -5.2940    6.3080   63.4930 H       1  UNL11       0.0830
     71 H          -5.6570    5.7850   65.8930 H       1  UNL11       0.0840
     72 C          -9.2460    8.5670   66.7980 C.3     1  UNL11      -0.0390
     73 H          -8.7740    8.9970   67.6820 H       1  UNL11       0.0360
     74 H          -8.8820    7.6230   66.3920 H       1  UNL11       0.0360
     75 C          -9.1400    9.6570   65.6280 C.3     1  UNL11      -0.0010
     76 C          -8.5100    8.9670   64.2750 C.3     1  UNL11      -0.0350
     77 C          -7.4760    9.7250   63.8390 C.3     1  UNL11       0.0850
     78 H          -8.0410    8.0150   64.5240 H       1  UNL11       0.0360
     79 H          -9.2290    9.0220   63.4570 H       1  UNL11       0.0360
     80 N          -7.1340   10.6870   64.9510 N.4     1  UNL11      -0.0490
     81 H          -6.6450    9.0330   63.7010 H       1  UNL11       0.0750
     82 H          -7.8640   10.2870   62.9910 H       1  UNL11       0.0750
     83 C          -8.3820   10.6430   65.9750 C.3     1  UNL11       0.1930
     84 H          -6.3220   10.3090   65.4180 H       1  UNL11       0.2800
     85 H          -7.0940   11.6060   64.5330 H       1  UNL11       0.2800
     86 H          -9.1100   11.4540   65.9960 H       1  UNL11       0.1290
     87 H         -10.0610   10.2270   65.5110 H       1  UNL11       0.0460
     88 O          -7.9130   10.5160   67.3180 O.3     1  UNL11      -0.3690
     89 H          -6.9570   10.5990   67.3330 H       1  UNL11       0.2120
     90 C         -13.1010    9.9930   70.8450 C.3     1  UNL11      -0.0350
     91 H         -13.5720   10.8410   71.3440 H       1  UNL11       0.0370
     92 H         -13.5740    9.5450   69.9710 H       1  UNL11       0.0370
     93 C         -12.9860    8.8600   71.9140 C.3     1  UNL11      -0.0590
     94 H         -13.3650    9.2560   72.8570 H       1  UNL11       0.0380
     95 C         -13.8460    7.6100   71.5420 C.3     1  UNL11      -0.0730
     96 H         -14.8690    7.7580   71.8850 H       1  UNL11       0.0280
     97 H         -13.8400    7.4740   70.4600 H       1  UNL11       0.0280
     98 H         -13.4260    6.7250   72.0210 H       1  UNL11       0.0280
     99 C         -11.5240    8.4690   72.1410 C.3     1  UNL11      -0.0730
    100 H         -11.4050    7.3970   71.9760 H       1  UNL11       0.0280
    101 H         -10.8890    9.0160   71.4440 H       1  UNL11       0.0280
    102 H         -11.2360    8.7140   73.1630 H       1  UNL11       0.0280
@<TRIPOS>BOND
     1    68    65    1
     2    66    63    1
     3    65    63   ar
     4    65    67   ar
     5    82    77    1
     6    63    62   ar
     7    79    76    1
     8    70    67    1
     9    81    77    1
    10    67    69   ar
    11    77    76    1
    12    77    80    1
    13    76    78    1
    14    76    75    1
    15    85    80    1
    16    62    64    1
    17    62    61   ar
    18    80    84    1
    19    80    83    1
    20    69    61   ar
    21    69    71    1
    22    87    75    1
    23    61    58    1
    24    75    83    1
    25    75    72    1
    26    23    24   ar
    27    23    21   ar
    28    24    19   ar
    29    83    86    1
    30    83    88    1
    31    32    29    1
    32    74    72    1
    33    30    29    1
    34    51    49    1
    35    27    25    1
    36    48    47    1
    37    50    49    1
    38    72    47    1
    39    72    73    1
    40    29    31    1
    41    29    13    1
    42    21    25    1
    43    21    20   ar
    44    49    47    1
    45    49    52    1
    46    19    16    1
    47    19    20   ar
    48    58    57    1
    49    58    60    1
    50    58    59    1
    51    47    45    1
    52    57    55    1
    53    18    15    1
    54    88    89    1
    55    25    26    1
    56    25    28    1
    57    16    15   am
    58    16    17    2
    59    15    13    1
    60    14    13    1
    61    20    22    1
    62    13    10    1
    63    44    43    2
    64    52    55    1
    65    52    54    1
    66    52    53    1
    67    55    56    2
    68    45    43   am
    69    45    46    1
    70    43     1    1
    71    10    11    2
    72    10     9   am
    73    12     9    1
    74     6     3    1
    75    92    90    1
    76     9     7    1
    77    42    39    1
    78     1     3    1
    79     1    90    1
    80     1     2    1
    81     3     4   am
    82    97    95    1
    83    90    91    1
    84    90    93    1
    85    40    39    1
    86    39    41    1
    87    39    33    1
    88     4     7    1
    89     4     5    2
    90     7     8    1
    91     7    33    1
    92   101    99    1
    93    95    96    1
    94    95    93    1
    95    95    98    1
    96    93    99    1
    97    93    94    1
    98   100    99    1
    99    99   102    1
   100    33    34    1
   101    33    35    1
   102    37    35    1
   103    35    36    1
   104    35    38    1
@<TRIPOS>MOLECULE
crystal_redock_e8_er3_1.pdbqt
 102 104 0 0 0
SMALL
GASTEIGER

@<TRIPOS>ATOM
      1 C         -10.2370   10.2310   68.8540 C.3     1  UNL11       0.0890
      2 H          -9.5920   10.2240   69.7320 H       1  UNL11       0.0870
      3 N         -10.8920    8.9330   68.7800 N.am    1  UNL11      -0.3460
      4 C         -10.2230    7.7090   69.3500 C.2     1  UNL11       0.2410
      5 O          -9.1550    7.7920   69.8620 O.2     1  UNL11      -0.2710
      6 H         -11.8000    8.8830   68.3390 H       1  UNL11       0.1630
      7 C         -10.9170    6.3750   69.2700 C.3     1  UNL11       0.0920
      8 H         -11.9200    6.5160   68.8660 H       1  UNL11       0.0880
      9 N         -10.1940    5.5020   68.3410 N.am    1  UNL11      -0.3460
     10 C         -10.3940    5.6400   66.9190 C.2     1  UNL11       0.2400
     11 O         -11.1340    6.4470   66.5060 O.2     1  UNL11      -0.2710
     12 H          -9.5540    4.7990   68.6820 H       1  UNL11       0.1630
     13 C          -9.6240    4.7060   65.9350 C.3     1  UNL11       0.0860
     14 H         -10.1990    4.4720   65.0390 H       1  UNL11       0.0860
     15 N          -8.4170    5.3820   65.4910 N.am    1  UNL11      -0.3430
     16 C          -8.1100    5.4440   64.0600 C.2     1  UNL11       0.2730
     17 O          -8.8390    4.9440   63.2750 O.2     1  UNL11      -0.2660
     18 H          -7.7980    5.8040   66.1680 H       1  UNL11       0.1630
     19 C          -6.8370    6.1570   63.5760 C.ar    1  UNL11       0.1540
     20 C          -6.5920    7.5670   63.5520 C.ar    1  UNL11      -0.0170
     21 C          -5.2880    7.7000   63.0240 C.ar    1  UNL11       0.0770
     22 H          -7.2580    8.3700   63.8690 H       1  UNL11       0.0910
     23 O          -4.8460    6.5010   62.7780 O.2     1  UNL11      -0.2180
     24 N          -5.7320    5.5840   63.0920 N.ar    1  UNL11      -0.1230
     25 C          -4.5410    9.0050   62.7870 C.3     1  UNL11      -0.0290
     26 H          -5.2000    9.8460   63.0010 H       1  UNL11       0.0360
     27 H          -3.6710    9.0490   63.4430 H       1  UNL11       0.0360
     28 H          -4.2140    9.0540   61.7480 H       1  UNL11       0.0360
     29 C          -9.2680    3.4190   66.6340 C.3     1  UNL11      -0.0490
     30 H          -9.3520    3.5560   67.7130 H       1  UNL11       0.0300
     31 H          -9.9490    2.6300   66.3140 H       1  UNL11       0.0300
     32 H          -8.2450    3.1400   66.3830 H       1  UNL11       0.0300
     33 C         -10.9430    5.7180   70.6820 C.3     1  UNL11      -0.0330
     34 H         -11.7330    4.9670   70.6810 H       1  UNL11       0.0420
     35 C          -9.6000    4.9840   70.9910 C.3     1  UNL11      -0.0710
     36 H          -9.5380    4.0740   70.3950 H       1  UNL11       0.0280
     37 H          -8.7640    5.6380   70.7440 H       1  UNL11       0.0280
     38 H          -9.5620    4.7290   72.0500 H       1  UNL11       0.0280
     39 C         -11.2790    6.7730   71.7840 C.3     1  UNL11      -0.0710
     40 H         -12.2510    6.5460   72.2190 H       1  UNL11       0.0280
     41 H         -10.5160    6.7410   72.5620 H       1  UNL11       0.0280
     42 H         -11.3020    7.7670   71.3390 H       1  UNL11       0.0280
     43 C         -11.3310   11.3340   68.9370 C.2     1  UNL11       0.2400
     44 O         -12.4290   11.1090   68.5400 O.2     1  UNL11      -0.2710
     45 N         -11.0130   12.6680   69.5210 N.am    1  UNL11      -0.3550
     46 H         -10.0850   12.8690   69.8660 H       1  UNL11       0.1620
     47 C         -12.0640   13.7050   69.5950 C.3     1  UNL11       0.0130
     48 H         -12.8690   13.4160   68.9190 H       1  UNL11       0.0720
     49 C         -11.4850   15.0350   69.1690 C.3     1  UNL11      -0.0380
     50 H         -12.2600   15.5180   68.5740 H       1  UNL11       0.0360
     51 H         -11.1270   15.5070   70.0850 H       1  UNL11       0.0360
     52 C         -10.2560   14.8860   68.2460 C.3     1  UNL11       0.0180
     53 H          -9.4910   15.5410   68.6640 H       1  UNL11       0.0480
     54 H         -10.0720   13.8140   68.1710 H       1  UNL11       0.0480
     55 C         -10.4990   15.3820   66.7940 C.2     1  UNL11       0.2590
     56 O         -11.3180   14.8620   66.1080 O.2     1  UNL11      -0.2650
     57 O          -9.7220   16.4600   66.2870 O.3     1  UNL11      -0.3170
     58 C         -10.1920   17.7530   66.6810 C.3     1  UNL11       0.0520
     59 H         -10.5170   18.2410   65.7620 H       1  UNL11       0.0820
     60 H         -10.9040   17.5750   67.4860 H       1  UNL11       0.0820
     61 C          -8.9880   18.5440   67.2580 C.ar    1  UNL11      -0.0340
     62 C          -8.2440   18.0140   68.3070 C.ar    1  UNL11      -0.0750
     63 C          -7.1630   18.7260   68.8260 C.ar    1  UNL11      -0.0820
     64 H          -8.5070   17.0420   68.7230 H       1  UNL11       0.0840
     65 C          -6.8280   19.9730   68.2920 C.ar    1  UNL11      -0.0830
     66 H          -6.5800   18.3070   69.6460 H       1  UNL11       0.0830
     67 C          -7.5750   20.5000   67.2480 C.ar    1  UNL11      -0.0820
     68 H          -5.9840   20.5360   68.6910 H       1  UNL11       0.0830
     69 C          -8.6550   19.7910   66.7250 C.ar    1  UNL11      -0.0750
     70 H          -7.3130   21.4740   66.8350 H       1  UNL11       0.0830
     71 H          -9.2370   20.2110   65.9030 H       1  UNL11       0.0840
     72 C         -12.5860   13.8110   71.0260 C.3     1  UNL11      -0.0390
     73 H         -13.5610   13.3230   71.0170 H       1  UNL11       0.0360
     74 H         -11.7870   13.4200   71.6560 H       1  UNL11       0.0360
     75 C         -12.8250   15.3350   71.4590 C.3     1  UNL11      -0.0010
     76 C         -11.7720   15.7500   72.6520 C.3     1  UNL11      -0.0350
     77 C         -12.4680   16.2990   73.6770 C.3     1  UNL11       0.0850
     78 H         -11.3340   14.8550   73.0920 H       1  UNL11       0.0360
     79 H         -11.1290   16.5640   72.3160 H       1  UNL11       0.0360
     80 N         -13.9270   15.9970   73.4310 N.4     1  UNL11      -0.0490
     81 H         -12.1410   15.7650   74.5700 H       1  UNL11       0.0750
     82 H         -12.3090   17.3730   73.5940 H       1  UNL11       0.0750
     83 C         -14.0280   15.5140   71.8940 C.3     1  UNL11       0.1930
     84 H         -14.1630   15.2180   74.0290 H       1  UNL11       0.2800
     85 H         -14.4200   16.8740   73.5250 H       1  UNL11       0.2800
     86 H         -14.4180   16.1840   71.1270 H       1  UNL11       0.1290
     87 H         -12.8900   16.0030   70.6000 H       1  UNL11       0.0460
     88 O         -14.8170   14.3270   71.8010 O.3     1  UNL11      -0.3690
     89 H         -14.8340   13.8870   72.6540 H       1  UNL11       0.2120
     90 C          -9.4000   10.4360   67.6020 C.3     1  UNL11      -0.0350
     91 H          -9.2480   11.5130   67.5280 H       1  UNL11       0.0370
     92 H          -8.5430    9.7720   67.7160 H       1  UNL11       0.0370
     93 C         -10.1220   10.0010   66.2860 C.3     1  UNL11      -0.0590
     94 H         -11.0160    9.4460   66.5680 H       1  UNL11       0.0380
     95 C         -10.5730   11.2270   65.4290 C.3     1  UNL11      -0.0730
     96 H         -10.6180   12.1150   66.0600 H       1  UNL11       0.0280
     97 H          -9.8560   11.3900   64.6240 H       1  UNL11       0.0280
     98 H         -11.5580   11.0320   65.0050 H       1  UNL11       0.0280
     99 C          -9.2400    9.0570   65.4650 C.3     1  UNL11      -0.0730
    100 H          -9.6940    8.8950   64.4870 H       1  UNL11       0.0280
    101 H          -8.2520    9.5010   65.3390 H       1  UNL11       0.0280
    102 H          -9.1460    8.1040   65.9850 H       1  UNL11       0.0280
@<TRIPOS>BOND
     1    28    25    1
     2    23    21   ar
     3    23    24   ar
     4    25    26    1
     5    25    21    1
     6    25    27    1
     7    21    20   ar
     8    24    19   ar
     9    17    16    2
    10    20    19   ar
    11    20    22    1
    12    19    16    1
    13    16    15   am
    14   100    99    1
    15    97    95    1
    16    98    95    1
    17    14    13    1
    18   101    99    1
    19    95    96    1
    20    95    93    1
    21    99   102    1
    22    99    93    1
    23    15    13    1
    24    15    18    1
    25    59    58    1
    26    71    69    1
    27    13    29    1
    28    13    10    1
    29    56    55    2
    30    93    94    1
    31    93    90    1
    32    57    58    1
    33    57    55    1
    34    31    29    1
    35    32    29    1
    36    11    10    2
    37    29    30    1
    38    58    61    1
    39    58    60    1
    40    69    67   ar
    41    69    61   ar
    42    55    52    1
    43    70    67    1
    44    10     9   am
    45    67    65   ar
    46    61    62   ar
    47    91    90    1
    48    90    92    1
    49    90     1    1
    50    54    52    1
    51    52    53    1
    52    52    49    1
    53    65    68    1
    54    65    63   ar
    55    62    64    1
    56    62    63   ar
    57     6     3    1
    58     9    12    1
    59     9     7    1
    60    44    43    2
    61    50    49    1
    62     3     1    1
    63     3     4   am
    64    63    66    1
    65     1    43    1
    66     1     2    1
    67     8     7    1
    68    48    47    1
    69    43    45   am
    70    49    47    1
    71    49    51    1
    72     7     4    1
    73     7    33    1
    74     4     5    2
    75    45    47    1
    76    45    46    1
    77    47    72    1
    78    36    35    1
    79    87    75    1
    80    34    33    1
    81    33    35    1
    82    33    39    1
    83    37    35    1
    84    35    38    1
    85    73    72    1
    86    72    75    1
    87    72    74    1
    88    86    83    1
    89    42    39    1
    90    75    83    1
    91    75    76    1
    92    39    40    1
    93    39    41    1
    94    88    83    1
    95    88    89    1
    96    83    80    1
    97    79    76    1
    98    76    78    1
    99    76    77    1
   100    80    85    1
   101    80    77    1
   102    80    84    1
   103    82    77    1
   104    77    81    1
@<TRIPOS>MOLECULE
crystal_redock_e8_er3_1.pdbqt
 102 104 0 0 0
SMALL
GASTEIGER

@<TRIPOS>ATOM
      1 C         -10.7340    9.6070   68.8310 C.3     1  UNL11       0.0890
      2 H         -11.4110    8.7720   68.6500 H       1  UNL11       0.0870
      3 N          -9.7130    9.5760   67.7950 N.am    1  UNL11      -0.3460
      4 C          -9.7120    8.4810   66.7580 C.2     1  UNL11       0.2410
      5 O         -10.5420    7.6330   66.7810 O.2     1  UNL11      -0.2710
      6 H          -9.0140   10.3060   67.7950 H       1  UNL11       0.1630
      7 C          -8.6510    8.4680   65.6900 C.3     1  UNL11       0.0920
      8 H          -9.0300    8.9750   64.8020 H       1  UNL11       0.0880
      9 N          -7.4810    9.2220   66.1520 N.am    1  UNL11      -0.3460
     10 C          -6.7560   10.0630   65.2320 C.2     1  UNL11       0.2400
     11 O          -7.0990   10.1450   64.1160 O.2     1  UNL11      -0.2710
     12 H          -7.1720    9.1600   67.1120 H       1  UNL11       0.1630
     13 C          -5.5100   10.8600   65.7300 C.3     1  UNL11       0.0860
     14 H          -5.4680   11.8720   65.3270 H       1  UNL11       0.0860
     15 N          -5.5810   10.9910   67.1760 N.am    1  UNL11      -0.3430
     16 C          -5.3540   12.2990   67.7940 C.2     1  UNL11       0.2730
     17 O          -5.1110   13.2390   67.1190 O.2     1  UNL11      -0.2660
     18 H          -5.7860   10.1820   67.7450 H       1  UNL11       0.1630
     19 C          -5.4270   12.4530   69.3210 C.ar    1  UNL11       0.1540
     20 C          -5.2150   13.6460   70.0810 C.ar    1  UNL11      -0.0170
     21 C          -5.3970   13.2570   71.4270 C.ar    1  UNL11       0.0770
     22 H          -4.9670   14.6420   69.7130 H       1  UNL11       0.0910
     23 O          -5.6810   11.9880   71.4280 O.2     1  UNL11      -0.2180
     24 N          -5.7040   11.4960   70.2110 N.ar    1  UNL11      -0.1230
     25 C          -5.2820   14.1580   72.6490 C.3     1  UNL11      -0.0290
     26 H          -6.0290   14.9510   72.5890 H       1  UNL11       0.0360
     27 H          -5.4500   13.5690   73.5510 H       1  UNL11       0.0360
     28 H          -4.2860   14.5990   72.6840 H       1  UNL11       0.0360
     29 C          -4.2520   10.1270   65.3390 C.3     1  UNL11      -0.0490
     30 H          -3.6580   10.7540   64.6740 H       1  UNL11       0.0300
     31 H          -3.6740    9.8950   66.2330 H       1  UNL11       0.0300
     32 H          -4.5160    9.2030   64.8250 H       1  UNL11       0.0300
     33 C          -8.2330    6.9990   65.3910 C.3     1  UNL11      -0.0330
     34 H          -9.0720    6.3570   65.6590 H       1  UNL11       0.0420
     35 C          -7.9460    6.7860   63.8720 C.3     1  UNL11      -0.0710
     36 H          -6.9350    7.1240   63.6430 H       1  UNL11       0.0280
     37 H          -8.0380    5.7280   63.6300 H       1  UNL11       0.0280
     38 H          -8.6630    7.3580   63.2840 H       1  UNL11       0.0280
     39 C          -7.0060    6.5780   66.2630 C.3     1  UNL11      -0.0710
     40 H          -7.1480    6.9310   67.2840 H       1  UNL11       0.0280
     41 H          -6.9170    5.4910   66.2640 H       1  UNL11       0.0280
     42 H          -6.0990    7.0170   65.8490 H       1  UNL11       0.0280
     43 C         -11.4640   10.9790   68.7670 C.2     1  UNL11       0.2400
     44 O         -12.0570   11.2880   67.7850 O.2     1  UNL11      -0.2710
     45 N         -11.4300   11.9050   69.9350 N.am    1  UNL11      -0.3550
     46 H         -10.9330   11.6520   70.7770 H       1  UNL11       0.1620
     47 C         -12.1300   13.2060   69.8590 C.3     1  UNL11       0.0130
     48 H         -12.8990   13.1290   69.0900 H       1  UNL11       0.0720
     49 C         -11.1380   14.2860   69.4920 C.3     1  UNL11      -0.0380
     50 H         -11.2340   15.0490   70.2650 H       1  UNL11       0.0360
     51 H         -10.1870   13.7750   69.3450 H       1  UNL11       0.0360
     52 C         -11.4740   14.9780   68.1530 C.3     1  UNL11       0.0180
     53 H         -11.7510   14.1760   67.4680 H       1  UNL11       0.0480
     54 H         -12.1940   15.7600   68.3970 H       1  UNL11       0.0480
     55 C         -10.2630   15.7000   67.5000 C.2     1  UNL11       0.2590
     56 O          -9.5740   16.4240   68.1430 O.2     1  UNL11      -0.2650
     57 O          -9.9920   15.4960   66.1180 O.3     1  UNL11      -0.3170
     58 C         -11.1610   15.2880   65.3210 C.3     1  UNL11       0.0520
     59 H         -12.0050   15.3870   66.0030 H       1  UNL11       0.0820
     60 H         -11.0630   15.9660   64.4730 H       1  UNL11       0.0820
     61 C         -11.1260   13.8300   64.7900 C.ar    1  UNL11      -0.0340
     62 C         -10.1550   12.9460   65.2470 C.ar    1  UNL11      -0.0750
     63 C         -10.1230   11.6360   64.7710 C.ar    1  UNL11      -0.0820
     64 H          -9.4180   13.2780   65.9790 H       1  UNL11       0.0840
     65 C         -11.0670   11.2120   63.8310 C.ar    1  UNL11      -0.0830
     66 H          -9.3620   10.9440   65.1330 H       1  UNL11       0.0830
     67 C         -12.0330   12.1000   63.3760 C.ar    1  UNL11      -0.0820
     68 H         -11.0500   10.1900   63.4540 H       1  UNL11       0.0830
     69 C         -12.0690   13.4090   63.8510 C.ar    1  UNL11      -0.0750
     70 H         -12.7660   11.7670   62.6410 H       1  UNL11       0.0830
     71 H         -12.8310   14.0990   63.4890 H       1  UNL11       0.0840
     72 C         -12.7630   13.5320   71.2110 C.3     1  UNL11      -0.0390
     73 H         -13.8000   13.2040   71.1320 H       1  UNL11       0.0360
     74 H         -12.1050   13.0830   71.9550 H       1  UNL11       0.0360
     75 C         -12.7860   15.1090   71.4890 C.3     1  UNL11      -0.0010
     76 C         -11.8300   15.4630   72.7800 C.3     1  UNL11      -0.0350
     77 C         -12.5400   16.2150   73.6550 C.3     1  UNL11       0.0850
     78 H         -11.6100   14.5560   73.3420 H       1  UNL11       0.0360
     79 H         -11.0190   16.1260   72.4740 H       1  UNL11       0.0360
     80 N         -13.9880   16.1300   73.2370 N.4     1  UNL11      -0.0490
     81 H         -12.4200   15.7260   74.6230 H       1  UNL11       0.0750
     82 H         -12.1880   17.2360   73.5140 H       1  UNL11       0.0750
     83 C         -13.9830   15.5220   71.7410 C.3     1  UNL11       0.1930
     84 H         -14.4260   15.4620   73.8540 H       1  UNL11       0.2800
     85 H         -14.3290   17.0800   73.1960 H       1  UNL11       0.2800
     86 H         -14.1550   16.1680   70.8800 H       1  UNL11       0.1290
     87 H         -12.6290   15.6910   70.5810 H       1  UNL11       0.0460
     88 O         -14.9480   14.4740   71.6320 O.3     1  UNL11      -0.3690
     89 H         -15.6160   14.5830   72.3130 H       1  UNL11       0.2120
     90 C         -10.0680    9.4450   70.1880 C.3     1  UNL11      -0.0350
     91 H          -9.0550    9.1030   69.9740 H       1  UNL11       0.0370
     92 H         -10.2260   10.3930   70.7030 H       1  UNL11       0.0370
     93 C         -10.7250    8.3440   71.0810 C.3     1  UNL11      -0.0590
     94 H          -9.9820    8.0240   71.8120 H       1  UNL11       0.0380
     95 C         -11.9640    8.8830   71.8650 C.3     1  UNL11      -0.0730
     96 H         -11.6270    9.4060   72.7600 H       1  UNL11       0.0280
     97 H         -12.5240    9.5710   71.2310 H       1  UNL11       0.0280
     98 H         -12.6050    8.0480   72.1500 H       1  UNL11       0.0280
     99 C         -11.1010    7.1160   70.2470 C.3     1  UNL11      -0.0730
    100 H         -11.2290    7.4100   69.2050 H       1  UNL11       0.0280
    101 H         -10.3080    6.3710   70.3200 H       1  UNL11       0.0280
    102 H         -12.0320    6.6930   70.6230 H       1  UNL11       0.0280
@<TRIPOS>BOND
     1    70    67    1
     2    38    35    1
     3    67    65   ar
     4    67    69   ar
     5    68    65    1
     6    71    69    1
     7    37    35    1
     8    36    35    1
     9    65    63   ar
    10    69    61   ar
    11    35    33    1
    12    11    10    2
    13    60    58    1
    14    30    29    1
    15    63    66    1
    16    63    62   ar
    17    61    62   ar
    18    61    58    1
    19     8     7    1
    20    32    29    1
    21    10    13    1
    22    10     9   am
    23    62    64    1
    24    58    59    1
    25    58    57    1
    26    14    13    1
    27    29    13    1
    28    29    31    1
    29    33    34    1
    30    33     7    1
    31    33    39    1
    32     7     9    1
    33     7     4    1
    34    13    15    1
    35    42    39    1
    36    57    55    1
    37     9    12    1
    38    39    41    1
    39    39    40    1
    40     4     5    2
    41     4     3   am
    42    17    16    2
    43    15    18    1
    44    15    16   am
    45    53    52    1
    46    55    56    2
    47    55    52    1
    48    44    43    2
    49    16    19    1
    50     6     3    1
    51     3     1    1
    52    52    54    1
    53    52    49    1
    54     2     1    1
    55    43     1    1
    56    43    45   am
    57     1    90    1
    58    48    47    1
    59   100    99    1
    60    19    20   ar
    61    19    24   ar
    62    51    49    1
    63    49    47    1
    64    49    50    1
    65    22    20    1
    66    47    45    1
    67    47    72    1
    68    45    46    1
    69    91    90    1
    70    20    21   ar
    71    90    92    1
    72    90    93    1
    73    24    23   ar
    74    99   101    1
    75    99   102    1
    76    99    93    1
    77    87    75    1
    78    86    83    1
    79    93    94    1
    80    93    95    1
    81    73    72    1
    82    72    75    1
    83    72    74    1
    84    97    95    1
    85    21    23   ar
    86    21    25    1
    87    75    83    1
    88    75    76    1
    89    88    83    1
    90    88    89    1
    91    83    80    1
    92    95    98    1
    93    95    96    1
    94    79    76    1
    95    26    25    1
    96    25    28    1
    97    25    27    1
    98    76    78    1
    99    76    77    1
   100    85    80    1
   101    80    77    1
   102    80    84    1
   103    82    77    1
   104    77    81    1
@<TRIPOS>MOLECULE
crystal_redock_e8_er3_1.pdbqt
 102 104 0 0 0
SMALL
GASTEIGER

@<TRIPOS>ATOM
      1 C         -10.8860    9.2470   69.4380 C.3     1  UNL11       0.0890
      2 H         -11.5010    8.3990   69.1330 H       1  UNL11       0.0870
      3 N          -9.7030    9.2570   68.5910 N.am    1  UNL11      -0.3460
      4 C          -9.6890    8.4910   67.2920 C.2     1  UNL11       0.2410
      5 O         -10.6410    7.8700   66.9510 O.2     1  UNL11      -0.2710
      6 H          -8.9020    9.7900   68.9000 H       1  UNL11       0.1630
      7 C          -8.4580    8.5170   66.4250 C.3     1  UNL11       0.0920
      8 H          -8.7360    8.8240   65.4170 H       1  UNL11       0.0880
      9 N          -7.5190    9.5200   66.9390 N.am    1  UNL11      -0.3460
     10 C          -6.8420   10.4070   66.0260 C.2     1  UNL11       0.2400
     11 O          -7.0400   10.3280   64.8750 O.2     1  UNL11      -0.2710
     12 H          -7.3380    9.5990   67.9290 H       1  UNL11       0.1630
     13 C          -5.8420   11.4700   66.5780 C.3     1  UNL11       0.0860
     14 H          -5.1960   11.8830   65.8040 H       1  UNL11       0.0860
     15 N          -6.5950   12.5840   67.1300 N.am    1  UNL11      -0.3430
     16 C          -5.8950   13.8160   67.5000 C.2     1  UNL11       0.2730
     17 O          -4.7250   13.8990   67.3530 O.2     1  UNL11      -0.2660
     18 H          -7.5950   12.5040   67.2540 H       1  UNL11       0.1630
     19 C          -6.6780   15.0020   68.0820 C.ar    1  UNL11       0.1540
     20 C          -6.7480   16.3330   67.5600 C.ar    1  UNL11      -0.0170
     21 C          -7.5900   17.0310   68.4540 C.ar    1  UNL11       0.0770
     22 H          -6.2630   16.7300   66.6680 H       1  UNL11       0.0910
     23 O          -7.9560   16.1910   69.3770 O.2     1  UNL11      -0.2180
     24 N          -7.4370   15.0010   69.1820 N.ar    1  UNL11      -0.1230
     25 C          -7.9940   18.4960   68.3540 C.3     1  UNL11      -0.0290
     26 H          -7.1190   19.1260   68.5130 H       1  UNL11       0.0360
     27 H          -8.4080   18.6920   67.3650 H       1  UNL11       0.0360
     28 H          -8.7450   18.7190   69.1130 H       1  UNL11       0.0360
     29 C          -4.9840   10.8470   67.6490 C.3     1  UNL11      -0.0490
     30 H          -4.5730   11.6300   68.2870 H       1  UNL11       0.0300
     31 H          -5.5880   10.1680   68.2500 H       1  UNL11       0.0300
     32 H          -4.1680   10.2940   67.1840 H       1  UNL11       0.0300
     33 C          -7.7790    7.1170   66.4450 C.3     1  UNL11      -0.0330
     34 H          -8.5000    6.4080   66.8530 H       1  UNL11       0.0420
     35 C          -7.4160    6.6400   65.0040 C.3     1  UNL11      -0.0710
     36 H          -6.4490    6.1370   65.0210 H       1  UNL11       0.0280
     37 H          -8.1780    5.9480   64.6480 H       1  UNL11       0.0280
     38 H          -7.3660    7.5010   64.3390 H       1  UNL11       0.0280
     39 C          -6.5230    7.1170   67.3750 C.3     1  UNL11      -0.0710
     40 H          -6.4390    8.0830   67.8720 H       1  UNL11       0.0280
     41 H          -6.6250    6.3310   68.1240 H       1  UNL11       0.0280
     42 H          -5.6290    6.9360   66.7780 H       1  UNL11       0.0280
     43 C         -11.6300   10.6030   69.2680 C.2     1  UNL11       0.2400
     44 O         -12.1490   10.8660   68.2320 O.2     1  UNL11      -0.2710
     45 N         -11.7010   11.5700   70.4000 N.am    1  UNL11      -0.3550
     46 H         -11.2670   11.3550   71.2860 H       1  UNL11       0.1620
     47 C         -12.4120   12.8540   70.2230 C.3     1  UNL11       0.0130
     48 H         -13.2340   12.6890   69.5260 H       1  UNL11       0.0720
     49 C         -11.4560   13.8820   69.6610 C.3     1  UNL11      -0.0380
     50 H         -11.4550   14.7050   70.3760 H       1  UNL11       0.0360
     51 H         -10.5340   13.3410   69.4500 H       1  UNL11       0.0360
     52 C         -11.9330   14.4720   68.3160 C.3     1  UNL11       0.0180
     53 H         -11.7940   13.6800   67.5800 H       1  UNL11       0.0480
     54 H         -12.9300   14.8700   68.5060 H       1  UNL11       0.0480
     55 C         -11.0800   15.6720   67.8220 C.2     1  UNL11       0.2590
     56 O         -11.1970   16.7430   68.3230 O.2     1  UNL11      -0.2650
     57 O         -10.1630   15.4810   66.7510 O.3     1  UNL11      -0.3170
     58 C         -10.7690   15.5060   65.4550 C.3     1  UNL11       0.0520
     59 H         -11.7660   15.9210   65.6030 H       1  UNL11       0.0820
     60 H         -10.0570   16.0160   64.8060 H       1  UNL11       0.0820
     61 C         -10.9140   14.0400   64.9660 C.ar    1  UNL11      -0.0340
     62 C         -10.0710   13.0530   65.4650 C.ar    1  UNL11      -0.0750
     63 C         -10.2010   11.7360   65.0260 C.ar    1  UNL11      -0.0820
     64 H          -9.3080   13.3100   66.2000 H       1  UNL11       0.0840
     65 C         -11.1780   11.4090   64.0820 C.ar    1  UNL11      -0.0830
     66 H          -9.5400   10.9640   65.4200 H       1  UNL11       0.0830
     67 C         -12.0150   12.3980   63.5840 C.ar    1  UNL11      -0.0820
     68 H         -11.2870   10.3820   63.7330 H       1  UNL11       0.0830
     69 C         -11.8900   13.7150   64.0220 C.ar    1  UNL11      -0.0750
     70 H         -12.7750   12.1400   62.8460 H       1  UNL11       0.0830
     71 H         -12.5520   14.4860   63.6280 H       1  UNL11       0.0840
     72 C         -12.9480   13.3380   71.5690 C.3     1  UNL11      -0.0390
     73 H         -14.0150   13.1140   71.5540 H       1  UNL11       0.0360
     74 H         -12.3050   12.8770   72.3190 H       1  UNL11       0.0360
     75 C         -12.8000   14.9250   71.7300 C.3     1  UNL11      -0.0010
     76 C         -11.9210   15.2720   73.0760 C.3     1  UNL11      -0.0350
     77 C         -12.6040   16.1700   73.8240 C.3     1  UNL11       0.0850
     78 H         -11.8620   14.3950   73.7200 H       1  UNL11       0.0360
     79 H         -11.0120   15.8080   72.8010 H       1  UNL11       0.0360
     80 N         -14.0110   16.2200   73.2780 N.4     1  UNL11      -0.0490
     81 H         -12.6290   15.7520   74.8310 H       1  UNL11       0.0750
     82 H         -12.1190   17.1290   73.6430 H       1  UNL11       0.0750
     83 C         -13.9540   15.4930   71.8380 C.3     1  UNL11       0.1930
     84 H         -14.5790   15.6610   73.8980 H       1  UNL11       0.2800
     85 H         -14.2290   17.1960   73.1370 H       1  UNL11       0.2800
     86 H         -13.9720   16.0810   70.9200 H       1  UNL11       0.1290
     87 H         -12.4960   15.4070   70.8010 H       1  UNL11       0.0460
     88 O         -15.0290   14.5600   71.7140 O.3     1  UNL11      -0.3690
     89 H         -15.7660   14.8470   72.2560 H       1  UNL11       0.2120
     90 C         -10.4580    9.0770   70.8860 C.3     1  UNL11      -0.0350
     91 H          -9.4740    8.6090   70.8440 H       1  UNL11       0.0370
     92 H         -10.5730   10.0620   71.3390 H       1  UNL11       0.0370
     93 C         -11.3720    8.1070   71.7010 C.3     1  UNL11      -0.0590
     94 H         -12.2600    8.6630   72.0010 H       1  UNL11       0.0380
     95 C         -11.8420    6.8850   70.8480 C.3     1  UNL11      -0.0730
     96 H         -12.6850    6.4010   71.3410 H       1  UNL11       0.0280
     97 H         -12.1460    7.2270   69.8590 H       1  UNL11       0.0280
     98 H         -11.0210    6.1740   70.7500 H       1  UNL11       0.0280
     99 C         -10.6730    7.6410   72.9800 C.3     1  UNL11      -0.0730
    100 H          -9.5920    7.7020   72.8470 H       1  UNL11       0.0280
    101 H         -10.9730    8.2810   73.8110 H       1  UNL11       0.0280
    102 H         -10.9550    6.6110   73.1950 H       1  UNL11       0.0280
@<TRIPOS>BOND
     1    70    67    1
     2    67    69   ar
     3    67    65   ar
     4    71    69    1
     5    68    65    1
     6    69    61   ar
     7    65    63   ar
     8    38    35    1
     9    37    35    1
    10    60    58    1
    11    11    10    2
    12    61    58    1
    13    61    62   ar
    14    35    36    1
    15    35    33    1
    16    63    66    1
    17    63    62   ar
    18     8     7    1
    19    58    59    1
    20    58    57    1
    21    62    64    1
    22    14    13    1
    23    10    13    1
    24    10     9   am
    25     7    33    1
    26     7     9    1
    27     7     4    1
    28    33    34    1
    29    33    39    1
    30    13    15    1
    31    13    29    1
    32    22    20    1
    33    57    55    1
    34    42    39    1
    35     9    12    1
    36     5     4    2
    37    15    18    1
    38    15    16   am
    39    32    29    1
    40     4     3   am
    41    17    16    2
    42    27    25    1
    43    39    40    1
    44    39    41    1
    45    16    19    1
    46    20    19   ar
    47    20    21   ar
    48    53    52    1
    49    29    31    1
    50    29    30    1
    51    55    52    1
    52    55    56    2
    53    19    24   ar
    54    44    43    2
    55    52    54    1
    56    52    49    1
    57    25    21    1
    58    25    26    1
    59    25    28    1
    60    21    23   ar
    61     3     6    1
    62     3     1    1
    63     2     1    1
    64    24    23   ar
    65    43     1    1
    66    43    45   am
    67     1    90    1
    68    51    49    1
    69    48    47    1
    70    49    47    1
    71    49    50    1
    72    97    95    1
    73    47    45    1
    74    47    72    1
    75    45    46    1
    76    98    95    1
    77    87    75    1
    78    91    90    1
    79    95    96    1
    80    95    93    1
    81    90    92    1
    82    90    93    1
    83    86    83    1
    84    73    72    1
    85    72    75    1
    86    72    74    1
    87    93    94    1
    88    93    99    1
    89    88    83    1
    90    88    89    1
    91    75    83    1
    92    75    76    1
    93    83    80    1
    94    79    76    1
    95   100    99    1
    96    99   102    1
    97    99   101    1
    98    76    78    1
    99    76    77    1
   100    85    80    1
   101    80    77    1
   102    80    84    1
   103    82    77    1
   104    77    81    1
@<TRIPOS>MOLECULE
crystal_redock_e8_er3_1.pdbqt
 102 104 0 0 0
SMALL
GASTEIGER

@<TRIPOS>ATOM
      1 C         -10.7530    9.4510   69.0640 C.3     1  UNL11       0.0890
      2 H         -11.4690    8.6670   68.8170 H       1  UNL11       0.0870
      3 N          -9.4640    9.0550   68.5150 N.am    1  UNL11      -0.3460
      4 C          -9.2370    7.6390   68.0480 C.2     1  UNL11       0.2410
      5 O         -10.1070    6.8350   68.1260 O.2     1  UNL11      -0.2710
      6 H          -8.7370    9.7540   68.4600 H       1  UNL11       0.1630
      7 C          -7.8990    7.2490   67.4770 C.3     1  UNL11       0.0920
      8 H          -8.0160    6.3490   66.8730 H       1  UNL11       0.0880
      9 N          -7.4190    8.3100   66.5870 N.am    1  UNL11      -0.3460
     10 C          -7.6740    8.2310   65.1700 C.2     1  UNL11       0.2400
     11 O          -8.2640    7.3210   64.7290 O.2     1  UNL11      -0.2710
     12 H          -6.9080    9.1000   66.9530 H       1  UNL11       0.1630
     13 C          -7.1580    9.3620   64.2270 C.3     1  UNL11       0.0860
     14 H          -7.2200    9.0930   63.1720 H       1  UNL11       0.0860
     15 N          -7.9890   10.5410   64.4050 N.am    1  UNL11      -0.3430
     16 C          -9.2650   10.6380   63.6930 C.2     1  UNL11       0.2730
     17 O          -9.6130    9.7640   62.9770 O.2     1  UNL11      -0.2660
     18 H          -7.6830   11.2840   65.0160 H       1  UNL11       0.1630
     19 C         -10.1550   11.8780   63.8730 C.ar    1  UNL11       0.1540
     20 C          -9.9460   12.9680   64.7750 C.ar    1  UNL11      -0.0170
     21 C         -11.0360   13.8390   64.5520 C.ar    1  UNL11       0.0770
     22 H          -9.1290   13.1070   65.4840 H       1  UNL11       0.0910
     23 O         -11.7770   13.3030   63.6270 O.2     1  UNL11      -0.2180
     24 N         -11.2840   12.1580   63.2150 N.ar    1  UNL11      -0.1230
     25 C         -11.2940   15.1610   65.2630 C.3     1  UNL11      -0.0290
     26 H         -10.3890   15.7700   65.2390 H       1  UNL11       0.0360
     27 H         -12.1020   15.6920   64.7600 H       1  UNL11       0.0360
     28 H         -11.5740   14.9690   66.2990 H       1  UNL11       0.0360
     29 C          -5.7240    9.6850   64.5630 C.3     1  UNL11      -0.0490
     30 H          -5.6840   10.2070   65.5190 H       1  UNL11       0.0300
     31 H          -5.1490    8.7610   64.6290 H       1  UNL11       0.0300
     32 H          -5.3030   10.3210   63.7850 H       1  UNL11       0.0300
     33 C          -6.8800    7.0470   68.6370 C.3     1  UNL11      -0.0330
     34 H          -6.1910    6.2580   68.3360 H       1  UNL11       0.0420
     35 C          -6.0370    8.3370   68.8830 C.3     1  UNL11      -0.0710
     36 H          -6.6780    9.2140   68.7870 H       1  UNL11       0.0280
     37 H          -5.6120    8.3070   69.8860 H       1  UNL11       0.0280
     38 H          -5.2340    8.3920   68.1490 H       1  UNL11       0.0280
     39 C          -7.6030    6.5850   69.9430 C.3     1  UNL11      -0.0710
     40 H          -8.6750    6.5210   69.7620 H       1  UNL11       0.0280
     41 H          -7.2250    5.6070   70.2410 H       1  UNL11       0.0280
     42 H          -7.4110    7.3060   70.7380 H       1  UNL11       0.0280
     43 C         -11.1500   10.8250   68.4530 C.2     1  UNL11       0.2400
     44 O         -11.9270   10.8700   67.5550 O.2     1  UNL11      -0.2710
     45 N         -10.5690   12.0860   68.9940 N.am    1  UNL11      -0.3550
     46 H          -9.9120   12.0610   69.7600 H       1  UNL11       0.1620
     47 C         -10.9580   13.3850   68.4030 C.3     1  UNL11       0.0130
     48 H         -11.1390   13.2290   67.3400 H       1  UNL11       0.0720
     49 C          -9.8350   14.3790   68.5970 C.3     1  UNL11      -0.0380
     50 H          -9.9060   15.0710   67.7570 H       1  UNL11       0.0360
     51 H          -9.9410   14.7470   69.6170 H       1  UNL11       0.0360
     52 C          -8.4380   13.7280   68.5090 C.3     1  UNL11       0.0180
     53 H          -7.9630   13.9170   69.4720 H       1  UNL11       0.0480
     54 H          -8.6090   12.7030   68.1780 H       1  UNL11       0.0480
     55 C          -7.5120   14.3730   67.4410 C.2     1  UNL11       0.2590
     56 O          -6.3880   14.0090   67.3170 O.2     1  UNL11      -0.2650
     57 O          -8.0200   15.4170   66.6180 O.3     1  UNL11      -0.3170
     58 C          -7.3370   16.6640   66.7720 C.3     1  UNL11       0.0520
     59 H          -6.8260   16.6040   67.7330 H       1  UNL11       0.0820
     60 H          -6.7620   16.8010   65.8560 H       1  UNL11       0.0820
     61 C          -8.4050   17.7870   66.8520 C.ar    1  UNL11      -0.0340
     62 C          -8.1960   18.9960   66.1950 C.ar    1  UNL11      -0.0750
     63 C          -9.1550   20.0050   66.2680 C.ar    1  UNL11      -0.0820
     64 H          -7.2820   19.1520   65.6230 H       1  UNL11       0.0840
     65 C         -10.3260   19.8030   67.0040 C.ar    1  UNL11      -0.0830
     66 H          -8.9900   20.9500   65.7500 H       1  UNL11       0.0830
     67 C         -10.5290   18.5970   67.6600 C.ar    1  UNL11      -0.0820
     68 H         -11.0820   20.5870   67.0650 H       1  UNL11       0.0830
     69 C          -9.5740   17.5850   67.5890 C.ar    1  UNL11      -0.0750
     70 H         -11.4420   18.4440   68.2350 H       1  UNL11       0.0830
     71 H          -9.7410   16.6400   68.1070 H       1  UNL11       0.0840
     72 C         -12.2220   13.9050   69.0850 C.3     1  UNL11      -0.0390
     73 H         -12.5280   14.7750   68.5050 H       1  UNL11       0.0360
     74 H         -12.8850   13.0430   69.1640 H       1  UNL11       0.0360
     75 C         -11.9260   14.4110   70.5760 C.3     1  UNL11      -0.0010
     76 C         -12.8360   13.5590   71.6480 C.3     1  UNL11      -0.0350
     77 C         -13.4910   14.4290   72.4530 C.3     1  UNL11       0.0850
     78 H         -13.6390   13.0390   71.1270 H       1  UNL11       0.0360
     79 H         -12.1900   13.0130   72.3360 H       1  UNL11       0.0360
     80 N         -13.3680   15.7940   71.8190 N.4     1  UNL11      -0.0490
     81 H         -14.5370   14.1190   72.4280 H       1  UNL11       0.0750
     82 H         -12.9440   14.4240   73.3950 H       1  UNL11       0.0750
     83 C         -12.2040   15.6650   70.7080 C.3     1  UNL11       0.1930
     84 H         -14.2440   15.9710   71.3490 H       1  UNL11       0.2800
     85 H         -13.0500   16.4190   72.5460 H       1  UNL11       0.2800
     86 H         -11.2100   16.0700   70.8980 H       1  UNL11       0.1290
     87 H         -10.8580   14.4860   70.7820 H       1  UNL11       0.0460
     88 O         -12.6290   16.2550   69.4780 O.3     1  UNL11      -0.3690
     89 H         -12.1960   15.8130   68.7450 H       1  UNL11       0.2120
     90 C         -10.6310    9.5780   70.5740 C.3     1  UNL11      -0.0350
     91 H          -9.7020    9.0690   70.8330 H       1  UNL11       0.0370
     92 H         -10.7450   10.6420   70.7840 H       1  UNL11       0.0370
     93 C         -11.7680    8.8490   71.3590 C.3     1  UNL11      -0.0590
     94 H         -12.2250    8.1270   70.6830 H       1  UNL11       0.0380
     95 C         -11.2220    8.0660   72.5950 C.3     1  UNL11      -0.0730
     96 H         -11.3990    7.0000   72.4570 H       1  UNL11       0.0280
     97 H         -10.1510    8.2470   72.6960 H       1  UNL11       0.0280
     98 H         -11.7340    8.4070   73.4960 H       1  UNL11       0.0280
     99 C         -12.8620    9.8350   71.7770 C.3     1  UNL11      -0.0730
    100 H         -13.6790    9.2910   72.2510 H       1  UNL11       0.0280
    101 H         -12.4490   10.5570   72.4820 H       1  UNL11       0.0280
    102 H         -13.2350   10.3590   70.8980 H       1  UNL11       0.0280
@<TRIPOS>BOND
     1    17    16    2
     2    14    13    1
     3    24    23   ar
     4    24    19   ar
     5    23    21   ar
     6    16    19    1
     7    16    15   am
     8    32    29    1
     9    19    20   ar
    10    13    15    1
    11    13    29    1
    12    13    10    1
    13    15    18    1
    14    21    20   ar
    15    21    25    1
    16    29    31    1
    17    29    30    1
    18    11    10    2
    19    27    25    1
    20    20    22    1
    21    10     9   am
    22    26    25    1
    23    25    28    1
    24    64    62    1
    25    66    63    1
    26    60    58    1
    27    62    63   ar
    28    62    61   ar
    29    63    65   ar
    30     9    12    1
    31     9     7    1
    32    57    58    1
    33    57    55    1
    34    58    61    1
    35    58    59    1
    36    61    69   ar
    37     8     7    1
    38    65    68    1
    39    65    67   ar
    40    56    55    2
    41    48    47    1
    42    55    52    1
    43     7     4    1
    44     7    33    1
    45    44    43    2
    46    69    67   ar
    47    69    71    1
    48    67    70    1
    49    50    49    1
    50     4     5    2
    51     4     3   am
    52    38    35    1
    53    54    52    1
    54    34    33    1
    55    47    49    1
    56    47    45    1
    57    47    72    1
    58    43    45   am
    59    43     1    1
    60     6     3    1
    61    73    72    1
    62    52    49    1
    63    52    53    1
    64     3     1    1
    65    49    51    1
    66    33    35    1
    67    33    39    1
    68    89    88    1
    69    36    35    1
    70     2     1    1
    71    35    37    1
    72    45    46    1
    73     1    90    1
    74    72    74    1
    75    72    75    1
    76    88    83    1
    77    40    39    1
    78    39    41    1
    79    39    42    1
    80    90    92    1
    81    90    91    1
    82    90    93    1
    83    75    83    1
    84    75    87    1
    85    75    76    1
    86    94    93    1
    87    83    86    1
    88    83    80    1
    89   102    99    1
    90    78    76    1
    91    84    80    1
    92    93    99    1
    93    93    95    1
    94    76    79    1
    95    76    77    1
    96    99   100    1
    97    99   101    1
    98    80    77    1
    99    80    85    1
   100    81    77    1
   101    77    82    1
   102    96    95    1
   103    95    97    1
   104    95    98    1
@<TRIPOS>MOLECULE
crystal_redock_e8_er3_1.pdbqt
 102 104 0 0 0
SMALL
GASTEIGER

@<TRIPOS>ATOM
      1 C          -9.9370    8.4450   69.2710 C.3     1  UNL11       0.0890
      2 H         -10.9940    8.4220   69.0060 H       1  UNL11       0.0870
      3 N          -9.2540    7.4710   68.4310 N.am    1  UNL11      -0.3460
      4 C          -9.9220    6.9340   67.1910 C.2     1  UNL11       0.2410
      5 O         -11.0110    7.2980   66.8900 O.2     1  UNL11      -0.2710
      6 H          -8.3290    7.1730   68.7060 H       1  UNL11       0.1630
      7 C          -9.1980    5.9310   66.3310 C.3     1  UNL11       0.0920
      8 H          -9.8560    5.6120   65.5220 H       1  UNL11       0.0880
      9 N          -8.0310    6.5680   65.7130 N.am    1  UNL11      -0.3460
     10 C          -7.7340    6.3340   64.3220 C.2     1  UNL11       0.2400
     11 O          -8.4230    5.6340   63.6840 O.2     1  UNL11      -0.2710
     12 H          -7.4270    7.1730   66.2510 H       1  UNL11       0.1630
     13 C          -6.4890    7.0120   63.6710 C.3     1  UNL11       0.0860
     14 H          -6.7290    7.5370   62.7470 H       1  UNL11       0.0860
     15 N          -5.9610    8.0080   64.5890 N.am    1  UNL11      -0.3430
     16 C          -5.9850    9.4220   64.2110 C.2     1  UNL11       0.2730
     17 O          -6.4280    9.7490   63.1650 O.2     1  UNL11      -0.2660
     18 H          -5.5820    7.7200   65.4800 H       1  UNL11       0.1630
     19 C          -5.4320   10.4860   65.1720 C.ar    1  UNL11       0.1540
     20 C          -5.9070   10.7940   66.4860 C.ar    1  UNL11      -0.0170
     21 C          -5.0670   11.8350   66.9410 C.ar    1  UNL11       0.0770
     22 H          -6.7350   10.3340   67.0260 H       1  UNL11       0.0910
     23 O          -4.2120   12.0860   65.9930 O.2     1  UNL11      -0.2180
     24 N          -4.4060   11.3120   64.9500 N.ar    1  UNL11      -0.1230
     25 C          -5.1470   12.5330   68.2930 C.3     1  UNL11      -0.0290
     26 H          -6.1270   12.9970   68.4050 H       1  UNL11       0.0360
     27 H          -4.9990   11.8020   69.0880 H       1  UNL11       0.0360
     28 H          -4.3730   13.2980   68.3540 H       1  UNL11       0.0360
     29 C          -5.4390    5.9690   63.3810 C.3     1  UNL11      -0.0490
     30 H          -5.1210    6.0530   62.3420 H       1  UNL11       0.0300
     31 H          -4.5830    6.1230   64.0370 H       1  UNL11       0.0300
     32 H          -5.8560    4.9770   63.5530 H       1  UNL11       0.0300
     33 C          -8.7290    4.7360   67.2110 C.3     1  UNL11      -0.0330
     34 H          -9.0890    4.9130   68.2240 H       1  UNL11       0.0420
     35 C          -9.3490    3.3910   66.7210 C.3     1  UNL11      -0.0710
     36 H         -10.0440    3.5880   65.9040 H       1  UNL11       0.0280
     37 H          -8.5560    2.7310   66.3700 H       1  UNL11       0.0280
     38 H          -9.8810    2.9150   67.5440 H       1  UNL11       0.0280
     39 C          -7.1690    4.6560   67.2590 C.3     1  UNL11      -0.0710
     40 H          -6.7460    5.6100   66.9460 H       1  UNL11       0.0280
     41 H          -6.8480    4.4320   68.2770 H       1  UNL11       0.0280
     42 H          -6.8250    3.8680   66.5890 H       1  UNL11       0.0280
     43 C          -9.2990    9.8430   69.0270 C.2     1  UNL11       0.2400
     44 O          -8.2800   10.1300   69.5660 O.2     1  UNL11      -0.2710
     45 N          -9.9560   10.8210   68.1130 N.am    1  UNL11      -0.3550
     46 H         -10.8190   10.5860   67.6450 H       1  UNL11       0.1620
     47 C          -9.3370   12.1450   67.8900 C.3     1  UNL11       0.0130
     48 H          -8.4060   12.1800   68.4560 H       1  UNL11       0.0720
     49 C         -10.2770   13.2250   68.3770 C.3     1  UNL11      -0.0380
     50 H         -11.1690   13.1400   67.7560 H       1  UNL11       0.0360
     51 H         -10.3480   13.0880   69.4560 H       1  UNL11       0.0360
     52 C          -9.7230   14.6480   68.1520 C.3     1  UNL11       0.0180
     53 H          -9.3910   14.9940   69.1310 H       1  UNL11       0.0480
     54 H          -9.0070   14.5610   67.3340 H       1  UNL11       0.0480
     55 C         -10.7940   15.6690   67.6770 C.2     1  UNL11       0.2590
     56 O         -10.8860   15.9560   66.5280 O.2     1  UNL11      -0.2650
     57 O         -11.6570   16.2700   68.6350 O.3     1  UNL11      -0.3170
     58 C         -11.0490   16.4850   69.9120 C.3     1  UNL11       0.0520
     59 H         -10.0690   16.0110   69.8560 H       1  UNL11       0.0820
     60 H         -11.1270   17.5550   70.1000 H       1  UNL11       0.0820
     61 C         -11.8960   15.7370   70.9770 C.ar    1  UNL11      -0.0340
     62 C         -12.6430   14.6210   70.6150 C.ar    1  UNL11      -0.0750
     63 C         -13.4040   13.9500   71.5710 C.ar    1  UNL11      -0.0820
     64 H         -12.6320   14.2720   69.5820 H       1  UNL11       0.0840
     65 C         -13.4180   14.4010   72.8930 C.ar    1  UNL11      -0.0830
     66 H         -13.9860   13.0740   71.2840 H       1  UNL11       0.0830
     67 C         -12.6730   15.5170   73.2490 C.ar    1  UNL11      -0.0820
     68 H         -14.0090   13.8810   73.6470 H       1  UNL11       0.0830
     69 C         -11.9100   16.1900   72.2980 C.ar    1  UNL11      -0.0750
     70 H         -12.6880   15.8680   74.2820 H       1  UNL11       0.0830
     71 H         -11.3270   17.0650   72.5850 H       1  UNL11       0.0840
     72 C          -9.0600   12.3420   66.4010 C.3     1  UNL11      -0.0390
     73 H          -9.1120   13.4190   66.2370 H       1  UNL11       0.0360
     74 H          -8.1330   11.8050   66.2040 H       1  UNL11       0.0360
     75 C         -10.1970   11.6710   65.4930 C.3     1  UNL11      -0.0010
     76 C          -9.6020   10.3300   64.7510 C.3     1  UNL11      -0.0350
     77 C          -9.8630   10.4130   63.4250 C.3     1  UNL11       0.0850
     78 H          -8.5130   10.3300   64.7970 H       1  UNL11       0.0360
     79 H         -10.1610    9.4490   65.0660 H       1  UNL11       0.0360
     80 N         -10.2900   11.8340   63.1470 N.4     1  UNL11      -0.0490
     81 H          -8.9110   10.2250   62.9270 H       1  UNL11       0.0750
     82 H         -10.7090    9.7490   63.2520 H       1  UNL11       0.0750
     83 C         -10.6150   12.4900   64.5860 C.3     1  UNL11       0.1930
     84 H          -9.4860   12.3030   62.7540 H       1  UNL11       0.2800
     85 H         -11.1490   11.7770   62.6190 H       1  UNL11       0.2800
     86 H         -11.6460   12.6340   64.9090 H       1  UNL11       0.1290
     87 H         -11.1420   11.5650   66.0270 H       1  UNL11       0.0460
     88 O          -9.9980   13.7740   64.6940 O.3     1  UNL11      -0.3690
     89 H         -10.1860   14.1480   65.5570 H       1  UNL11       0.2120
     90 C          -9.7630    8.0510   70.7290 C.3     1  UNL11      -0.0350
     91 H          -9.2660    7.0810   70.7090 H       1  UNL11       0.0370
     92 H          -9.2740    8.9030   71.2010 H       1  UNL11       0.0370
     93 C         -11.1120    7.8410   71.4860 C.3     1  UNL11      -0.0590
     94 H         -11.6740    8.7730   71.4270 H       1  UNL11       0.0380
     95 C         -11.9840    6.7180   70.8370 C.3     1  UNL11      -0.0730
     96 H         -11.7400    6.6360   69.7780 H       1  UNL11       0.0280
     97 H         -11.7800    5.7680   71.3320 H       1  UNL11       0.0280
     98 H         -13.0390    6.9670   70.9490 H       1  UNL11       0.0280
     99 C         -10.8680    7.5510   72.9690 C.3     1  UNL11      -0.0730
    100 H         -10.2270    8.3270   73.3900 H       1  UNL11       0.0280
    101 H         -11.8210    7.5390   73.4990 H       1  UNL11       0.0280
    102 H         -10.3820    6.5820   73.0750 H       1  UNL11       0.0280
@<TRIPOS>BOND
     1    30    29    1
     2    85    80    1
     3    14    13    1
     4    84    80    1
     5    81    77    1
     6    80    77    1
     7    80    83    1
     8    17    16    2
     9    82    77    1
    10    29    32    1
    11    29    13    1
    12    29    31    1
    13    77    76    1
    14    13    10    1
    15    13    15    1
    16    11    10    2
    17    16    15   am
    18    16    19    1
    19    10     9   am
    20    83    88    1
    21    83    86    1
    22    83    75    1
    23    15    18    1
    24    88    89    1
    25    76    78    1
    26    76    79    1
    27    76    75    1
    28    24    19   ar
    29    24    23   ar
    30    19    20   ar
    31    75    87    1
    32    75    72    1
    33     8     7    1
    34     9    12    1
    35     9     7    1
    36    36    35    1
    37    23    21   ar
    38    74    72    1
    39    73    72    1
    40     7     4    1
    41     7    33    1
    42    37    35    1
    43    72    47    1
    44    20    21   ar
    45    20    22    1
    46    56    55    2
    47    42    39    1
    48    35    33    1
    49    35    38    1
    50     5     4    2
    51    21    25    1
    52    40    39    1
    53     4     3   am
    54    33    39    1
    55    33    34    1
    56    39    41    1
    57    54    52    1
    58    46    45    1
    59    55    52    1
    60    55    57    1
    61    50    49    1
    62    47    45    1
    63    47    49    1
    64    47    48    1
    65    45    43   am
    66    52    49    1
    67    52    53    1
    68    25    28    1
    69    25    26    1
    70    25    27    1
    71    49    51    1
    72     3     6    1
    73     3     1    1
    74    57    58    1
    75     2     1    1
    76    43     1    1
    77    43    44    2
    78     1    90    1
    79    64    62    1
    80    96    95    1
    81    59    58    1
    82    58    60    1
    83    58    61    1
    84    62    61   ar
    85    62    63   ar
    86    91    90    1
    87    90    92    1
    88    90    93    1
    89    95    98    1
    90    95    97    1
    91    95    93    1
    92    61    69   ar
    93    66    63    1
    94    94    93    1
    95    93    99    1
    96    63    65   ar
    97    69    71    1
    98    69    67   ar
    99    65    67   ar
   100    65    68    1
   101    99   102    1
   102    99   100    1
   103    99   101    1
   104    67    70    1
@<TRIPOS>MOLECULE
crystal_redock_e8_er3_1.pdbqt
 102 104 0 0 0
SMALL
GASTEIGER

@<TRIPOS>ATOM
      1 C          -6.8250   10.2530   62.9590 C.3     1  UNL11       0.0890
      2 H          -6.1820   10.9860   62.4720 H       1  UNL11       0.0870
      3 N          -6.4210   10.1740   64.3550 N.am    1  UNL11      -0.3460
      4 C          -5.1210   10.7900   64.8080 C.2     1  UNL11       0.2410
      5 O          -4.4150   11.3420   64.0290 O.2     1  UNL11      -0.2710
      6 H          -7.0350    9.6980   65.0010 H       1  UNL11       0.1630
      7 C          -4.7210   10.7040   66.2570 C.3     1  UNL11       0.0920
      8 H          -3.8180   11.2920   66.4150 H       1  UNL11       0.0880
      9 N          -5.7740   11.2930   67.0910 N.am    1  UNL11      -0.3460
     10 C          -5.6410   12.6470   67.5680 C.2     1  UNL11       0.2400
     11 O          -4.6940   13.2770   67.2920 O.2     1  UNL11      -0.2710
     12 H          -6.5960   10.7610   67.3380 H       1  UNL11       0.1630
     13 C          -6.7630   13.2680   68.4570 C.3     1  UNL11       0.0860
     14 H          -6.8270   12.8030   69.4410 H       1  UNL11       0.0860
     15 N          -6.4650   14.6730   68.6800 N.am    1  UNL11      -0.3430
     16 C          -6.0140   15.1130   70.0020 C.2     1  UNL11       0.2730
     17 O          -5.8980   14.3300   70.8800 O.2     1  UNL11      -0.2660
     18 H          -6.5700   15.3350   67.9250 H       1  UNL11       0.1630
     19 C          -5.6940   16.5950   70.2520 C.ar    1  UNL11       0.1540
     20 C          -6.1460   17.7180   69.4890 C.ar    1  UNL11      -0.0170
     21 C          -5.5770   18.8430   70.1260 C.ar    1  UNL11       0.0770
     22 H          -6.7880   17.7170   68.6080 H       1  UNL11       0.0910
     23 O          -4.8830   18.4070   71.1360 O.2     1  UNL11      -0.2180
     24 N          -4.9350   17.0980   71.2300 N.ar    1  UNL11      -0.1230
     25 C          -5.7460   20.2980   69.7080 C.3     1  UNL11      -0.0290
     26 H          -6.7640   20.6230   69.9250 H       1  UNL11       0.0360
     27 H          -5.0410   20.9190   70.2590 H       1  UNL11       0.0360
     28 H          -5.5550   20.3940   68.6380 H       1  UNL11       0.0360
     29 C          -8.0940   13.1260   67.7640 C.3     1  UNL11      -0.0490
     30 H          -8.3090   12.0700   67.6020 H       1  UNL11       0.0300
     31 H          -8.8750   13.5660   68.3830 H       1  UNL11       0.0300
     32 H          -8.0590   13.6400   66.8030 H       1  UNL11       0.0300
     33 C          -4.5250    9.2110   66.6530 C.3     1  UNL11      -0.0330
     34 H          -5.4480    8.6830   66.4140 H       1  UNL11       0.0420
     35 C          -3.3790    8.5490   65.8250 C.3     1  UNL11      -0.0710
     36 H          -2.4480    8.5980   66.3900 H       1  UNL11       0.0280
     37 H          -3.6290    7.5070   65.6280 H       1  UNL11       0.0280
     38 H          -3.2600    9.0810   64.8810 H       1  UNL11       0.0280
     39 C          -4.2700    9.0680   68.1880 C.3     1  UNL11      -0.0710
     40 H          -4.6600    8.1110   68.5340 H       1  UNL11       0.0280
     41 H          -3.1980    9.1150   68.3840 H       1  UNL11       0.0280
     42 H          -4.7720    9.8780   68.7160 H       1  UNL11       0.0280
     43 C          -8.3260   10.6570   62.9000 C.2     1  UNL11       0.2400
     44 O          -8.9330   10.5300   61.8860 O.2     1  UNL11      -0.2710
     45 N          -9.0100   11.1940   64.1110 N.am    1  UNL11      -0.3550
     46 H          -8.5060   11.3020   64.9790 H       1  UNL11       0.1620
     47 C         -10.4380   11.5720   64.0390 C.3     1  UNL11       0.0130
     48 H         -10.8360   11.2020   63.0940 H       1  UNL11       0.0720
     49 C         -10.5590   13.0790   64.0960 C.3     1  UNL11      -0.0380
     50 H          -9.6370   13.4310   64.5580 H       1  UNL11       0.0360
     51 H         -10.8160   13.3910   63.0830 H       1  UNL11       0.0360
     52 C         -11.7130   13.5530   65.0060 C.3     1  UNL11       0.0180
     53 H         -12.3960   14.0990   64.3550 H       1  UNL11       0.0480
     54 H         -12.0570   12.6640   65.5340 H       1  UNL11       0.0480
     55 C         -11.2710   14.5600   66.1040 C.2     1  UNL11       0.2590
     56 O         -11.3490   14.2710   67.2540 O.2     1  UNL11      -0.2650
     57 O         -10.7820   15.8390   65.7200 O.3     1  UNL11      -0.3170
     58 C          -9.4370   16.0970   66.1340 C.3     1  UNL11       0.0520
     59 H          -9.2700   15.4650   67.0060 H       1  UNL11       0.0820
     60 H          -8.8240   15.9670   65.2420 H       1  UNL11       0.0820
     61 C          -9.3480   17.5810   66.5780 C.ar    1  UNL11      -0.0340
     62 C          -8.1640   18.2900   66.4060 C.ar    1  UNL11      -0.0750
     63 C          -8.0840   19.6230   66.8060 C.ar    1  UNL11      -0.0820
     64 H          -7.2980   17.8020   65.9580 H       1  UNL11       0.0840
     65 C          -9.1940   20.2470   67.3820 C.ar    1  UNL11      -0.0830
     66 H          -7.1550   20.1770   66.6670 H       1  UNL11       0.0830
     67 C         -10.3730   19.5340   67.5540 C.ar    1  UNL11      -0.0820
     68 H          -9.1410   21.2890   67.6960 H       1  UNL11       0.0830
     69 C         -10.4580   18.2020   67.1540 C.ar    1  UNL11      -0.0750
     70 H         -11.2370   20.0230   68.0060 H       1  UNL11       0.0830
     71 H         -11.3880   17.6500   67.2920 H       1  UNL11       0.0840
     72 C         -11.1950   10.9550   65.2130 C.3     1  UNL11      -0.0390
     73 H         -11.7380   11.7810   65.6740 H       1  UNL11       0.0360
     74 H         -11.7430   10.1110   64.7930 H       1  UNL11       0.0360
     75 C         -10.1970   10.3690   66.3200 C.3     1  UNL11      -0.0010
     76 C          -9.9620    8.7610   66.0660 C.3     1  UNL11      -0.0350
     77 C         -10.1900    8.0980   67.2250 C.3     1  UNL11       0.0850
     78 H         -10.7290    8.3720   65.3960 H       1  UNL11       0.0360
     79 H          -8.9090    8.5640   65.8630 H       1  UNL11       0.0360
     80 N         -10.8740    9.0660   68.1600 N.4     1  UNL11      -0.0490
     81 H         -10.8850    7.2970   66.9720 H       1  UNL11       0.0750
     82 H          -9.2040    7.8590   67.6220 H       1  UNL11       0.0750
     83 C         -10.6720   10.5300   67.5100 C.3     1  UNL11       0.1930
     84 H         -11.8580    8.8380   68.1390 H       1  UNL11       0.2800
     85 H         -10.3660    9.0290   69.0330 H       1  UNL11       0.2800
     86 H          -9.9390   11.2230   67.9230 H       1  UNL11       0.1290
     87 H          -9.3070   10.9860   66.4430 H       1  UNL11       0.0460
     88 O         -11.9100   11.2420   67.5040 O.3     1  UNL11      -0.3690
     89 H         -11.7630   12.1380   67.1910 H       1  UNL11       0.2120
     90 C          -6.6360    8.8910   62.3100 C.3     1  UNL11      -0.0350
     91 H          -7.5120    8.7490   61.6770 H       1  UNL11       0.0370
     92 H          -5.6410    8.9180   61.8650 H       1  UNL11       0.0370
     93 C          -6.6320    7.7070   63.3290 C.3     1  UNL11      -0.0590
     94 H          -6.6010    8.1330   64.3310 H       1  UNL11       0.0380
     95 C          -7.9230    6.8330   63.2220 C.3     1  UNL11      -0.0730
     96 H          -7.9950    6.4120   62.2200 H       1  UNL11       0.0280
     97 H          -7.8770    6.0260   63.9530 H       1  UNL11       0.0280
     98 H          -8.7980    7.4530   63.4210 H       1  UNL11       0.0280
     99 C          -5.3770    6.8460   63.1610 C.3     1  UNL11      -0.0730
    100 H          -5.6660    5.8030   63.0320 H       1  UNL11       0.0280
    101 H          -4.8220    7.1800   62.2840 H       1  UNL11       0.0280
    102 H          -4.7490    6.9430   64.0460 H       1  UNL11       0.0280
@<TRIPOS>BOND
     1    91    90    1
     2    92    90    1
     3    44    43    2
     4    96    95    1
     5   101    99    1
     6    90     1    1
     7    90    93    1
     8     2     1    1
     9    43     1    1
    10    43    45   am
    11     1     3    1
    12   100    99    1
    13    51    49    1
    14    48    47    1
    15    99    93    1
    16    99   102    1
    17    95    93    1
    18    95    98    1
    19    95    97    1
    20    93    94    1
    21     5     4    2
    22    47    49    1
    23    47    45    1
    24    47    72    1
    25    49    50    1
    26    49    52    1
    27    45    46    1
    28     3     4   am
    29     3     6    1
    30    53    52    1
    31    74    72    1
    32     4     7    1
    33    38    35    1
    34    52    54    1
    35    52    55    1
    36    72    73    1
    37    72    75    1
    38    60    58    1
    39    78    76    1
    40    37    35    1
    41    57    55    1
    42    57    58    1
    43    35    36    1
    44    35    33    1
    45    79    76    1
    46    64    62    1
    47    76    75    1
    48    76    77    1
    49    55    56    2
    50    58    61    1
    51    58    59    1
    52     7     8    1
    53     7    33    1
    54     7     9    1
    55    75    87    1
    56    75    83    1
    57    62    61   ar
    58    62    63   ar
    59    34    33    1
    60    61    69   ar
    61    33    39    1
    62    66    63    1
    63    32    29    1
    64    63    65   ar
    65    81    77    1
    66     9    12    1
    67     9    10   am
    68    69    71    1
    69    69    67   ar
    70    89    88    1
    71    77    82    1
    72    77    80    1
    73    11    10    2
    74    65    67   ar
    75    65    68    1
    76    88    83    1
    77    83    86    1
    78    83    80    1
    79    67    70    1
    80    10    13    1
    81    30    29    1
    82    29    31    1
    83    29    13    1
    84    18    15    1
    85    84    80    1
    86    80    85    1
    87    39    41    1
    88    39    40    1
    89    39    42    1
    90    13    15    1
    91    13    14    1
    92    22    20    1
    93    28    25    1
    94    15    16   am
    95    20    21   ar
    96    20    19   ar
    97    25    26    1
    98    25    21    1
    99    25    27    1
   100    16    19    1
   101    16    17    2
   102    21    23   ar
   103    19    24   ar
   104    23    24   ar
@<TRIPOS>MOLECULE
crystal_redock_e8_er3_1.pdbqt
 102 104 0 0 0
SMALL
GASTEIGER

@<TRIPOS>ATOM
      1 C          -7.4210    9.6290   66.9190 C.3     1  UNL11       0.0890
      2 H          -7.2410    9.2260   65.9220 H       1  UNL11       0.0870
      3 N          -8.4780   10.6230   66.8050 N.am    1  UNL11      -0.3460
      4 C          -9.6870   10.3540   65.9450 C.2     1  UNL11       0.2410
      5 O          -9.7860    9.3310   65.3510 O.2     1  UNL11      -0.2710
      6 H          -8.3740   11.4870   67.3170 H       1  UNL11       0.1630
      7 C         -10.7750   11.3910   65.8440 C.3     1  UNL11       0.0920
      8 H         -11.7410   10.9140   66.0030 H       1  UNL11       0.0880
      9 N         -10.6020   12.3860   66.9060 N.am    1  UNL11      -0.3460
     10 C         -11.4270   12.3290   68.0880 C.2     1  UNL11       0.2400
     11 O         -12.2360   11.4900   68.1990 O.2     1  UNL11      -0.2710
     12 H          -9.9090   13.1170   66.8240 H       1  UNL11       0.1630
     13 C         -11.2410   13.3930   69.2140 C.3     1  UNL11       0.0860
     14 H         -10.2660   13.3290   69.6970 H       1  UNL11       0.0860
     15 N         -11.3290   14.7200   68.6280 N.am    1  UNL11      -0.3430
     16 C         -10.1120   15.3810   68.1530 C.2     1  UNL11       0.2730
     17 O          -9.0660   14.8370   68.2480 O.2     1  UNL11      -0.2660
     18 H         -12.2260   15.1780   68.5530 H       1  UNL11       0.1630
     19 C         -10.1900   16.7830   67.5300 C.ar    1  UNL11       0.1540
     20 C          -9.9370   18.0330   68.1790 C.ar    1  UNL11      -0.0170
     21 C         -10.1430   19.0100   67.1790 C.ar    1  UNL11       0.0770
     22 H          -9.6480   18.2050   69.2160 H       1  UNL11       0.0910
     23 O         -10.4740   18.3840   66.0880 O.2     1  UNL11      -0.2180
     24 N         -10.5090   17.0840   66.2680 N.ar    1  UNL11      -0.1230
     25 C         -10.0030   20.5170   67.3490 C.3     1  UNL11      -0.0290
     26 H         -10.9640   20.9420   67.6390 H       1  UNL11       0.0360
     27 H          -9.2640   20.7280   68.1220 H       1  UNL11       0.0360
     28 H          -9.6790   20.9610   66.4070 H       1  UNL11       0.0360
     29 C         -12.3140   13.2160   70.2580 C.3     1  UNL11      -0.0490
     30 H         -12.2970   14.0640   70.9440 H       1  UNL11       0.0300
     31 H         -13.2880   13.1610   69.7720 H       1  UNL11       0.0300
     32 H         -12.1320   12.2970   70.8140 H       1  UNL11       0.0300
     33 C         -10.6910   12.0960   64.4580 C.3     1  UNL11      -0.0330
     34 H          -9.8270   11.6890   63.9340 H       1  UNL11       0.0420
     35 C         -11.9520   11.7940   63.5900 C.3     1  UNL11      -0.0710
     36 H         -11.6410   11.3880   62.6270 H       1  UNL11       0.0280
     37 H         -12.5800   11.0660   64.1030 H       1  UNL11       0.0280
     38 H         -12.5140   12.7140   63.4320 H       1  UNL11       0.0280
     39 C         -10.4750   13.6340   64.6260 C.3     1  UNL11      -0.0710
     40 H          -9.4120   13.8620   64.5480 H       1  UNL11       0.0280
     41 H         -11.0180   14.1650   63.8430 H       1  UNL11       0.0280
     42 H         -10.8440   13.9490   65.6020 H       1  UNL11       0.0280
     43 C          -7.8780    8.5320   67.9220 C.2     1  UNL11       0.2400
     44 O          -7.6610    8.6650   69.0830 O.2     1  UNL11      -0.2710
     45 N          -8.5950    7.3180   67.4370 N.am    1  UNL11      -0.3550
     46 H          -8.7900    7.1960   66.4540 H       1  UNL11       0.1620
     47 C          -9.0240    6.2850   68.4040 C.3     1  UNL11       0.0130
     48 H          -8.4090    6.3860   69.2980 H       1  UNL11       0.0720
     49 C          -8.8280    4.9160   67.7930 C.3     1  UNL11      -0.0380
     50 H          -7.9370    4.9970   67.1690 H       1  UNL11       0.0360
     51 H          -8.8470    4.2160   68.6280 H       1  UNL11       0.0360
     52 C          -9.9830    4.5070   66.8540 C.3     1  UNL11       0.0180
     53 H         -10.1610    3.4490   67.0480 H       1  UNL11       0.0480
     54 H         -10.7770    5.2340   67.0290 H       1  UNL11       0.0480
     55 C          -9.6310    4.6130   65.3440 C.2     1  UNL11       0.2590
     56 O         -10.1870    3.9310   64.5460 O.2     1  UNL11      -0.2650
     57 O          -8.6240    5.5260   64.9260 O.3     1  UNL11      -0.3170
     58 C          -8.2590    5.4000   63.5490 C.3     1  UNL11       0.0520
     59 H          -7.6580    4.4940   63.4850 H       1  UNL11       0.0820
     60 H          -9.1910    5.4770   62.9890 H       1  UNL11       0.0820
     61 C          -7.3630    6.6120   63.1780 C.ar    1  UNL11      -0.0340
     62 C          -7.9430    7.8150   62.7890 C.ar    1  UNL11      -0.0750
     63 C          -7.1380    8.9030   62.4560 C.ar    1  UNL11      -0.0820
     64 H          -9.0280    7.9050   62.7460 H       1  UNL11       0.0840
     65 C          -5.7460    8.7840   62.5100 C.ar    1  UNL11      -0.0830
     66 H          -7.5960    9.8450   62.1540 H       1  UNL11       0.0830
     67 C          -5.1720    7.5810   62.8960 C.ar    1  UNL11      -0.0820
     68 H          -5.1100    9.6300   62.2520 H       1  UNL11       0.0830
     69 C          -5.9730    6.4910   63.2320 C.ar    1  UNL11      -0.0750
     70 H          -4.0860    7.4900   62.9350 H       1  UNL11       0.0830
     71 H          -5.5140    5.5500   63.5350 H       1  UNL11       0.0840
     72 C         -10.4990    6.4820   68.7500 C.3     1  UNL11      -0.0390
     73 H         -10.8930    7.1400   67.9750 H       1  UNL11       0.0360
     74 H         -10.9050    5.4780   68.8710 H       1  UNL11       0.0360
     75 C         -10.6830    7.2380   70.1500 C.3     1  UNL11      -0.0010
     76 C         -11.7570    6.4220   71.0910 C.3     1  UNL11      -0.0350
     77 C         -12.7000    7.2900   71.5310 C.3     1  UNL11       0.0850
     78 H         -12.3230    5.7160   70.4850 H       1  UNL11       0.0360
     79 H         -11.2710    6.0870   72.0080 H       1  UNL11       0.0360
     80 N         -12.5540    8.5510   70.7140 N.4     1  UNL11      -0.0490
     81 H         -13.6570    6.8230   71.2970 H       1  UNL11       0.0750
     82 H         -12.4370    7.5050   72.5660 H       1  UNL11       0.0750
     83 C         -11.1210    8.4410   69.9780 C.3     1  UNL11       0.1930
     84 H         -13.2800    8.5220   70.0110 H       1  UNL11       0.2800
     85 H         -12.5190    9.3160   71.3720 H       1  UNL11       0.2800
     86 H         -10.2690    9.0160   70.3380 H       1  UNL11       0.1290
     87 H          -9.7280    7.5050   70.6040 H       1  UNL11       0.0460
     88 O         -11.2510    8.7740   68.5950 O.3     1  UNL11      -0.3690
     89 H         -10.9140    9.6610   68.4470 H       1  UNL11       0.2120
     90 C          -6.1610   10.3030   67.4370 C.3     1  UNL11      -0.0350
     91 H          -5.8690    9.7310   68.3180 H       1  UNL11       0.0370
     92 H          -5.4900   10.3590   66.5790 H       1  UNL11       0.0370
     93 C          -6.3870   11.7710   67.9170 C.3     1  UNL11      -0.0590
     94 H          -7.3640   12.0910   67.5550 H       1  UNL11       0.0380
     95 C          -6.3960   11.8870   69.4760 C.3     1  UNL11      -0.0730
     96 H          -5.5030   12.4180   69.8050 H       1  UNL11       0.0280
     97 H          -7.2830   12.4340   69.7940 H       1  UNL11       0.0280
     98 H          -6.4080   10.8880   69.9130 H       1  UNL11       0.0280
     99 C          -5.3460   12.7130   67.3070 C.3     1  UNL11      -0.0730
    100 H          -5.7020   13.0710   66.3410 H       1  UNL11       0.0280
    101 H          -5.1890   13.5620   67.9740 H       1  UNL11       0.0280
    102 H          -4.4060   12.1780   67.1730 H       1  UNL11       0.0280
@<TRIPOS>BOND
     1    66    63    1
     2    68    65    1
     3    63    65   ar
     4    63    62   ar
     5    65    67   ar
     6    36    35    1
     7    64    62    1
     8    62    61   ar
     9    67    70    1
    10    67    69   ar
    11    60    58    1
    12    61    69   ar
    13    61    58    1
    14    69    71    1
    15    38    35    1
    16    59    58    1
    17    58    57    1
    18    35    37    1
    19    35    33    1
    20    41    39    1
    21    34    33    1
    22    33    39    1
    23    33     7    1
    24    56    55    2
    25    40    39    1
    26    39    42    1
    27    57    55    1
    28    55    52    1
    29     5     4    2
    30     7     4    1
    31     7     8    1
    32     7     9    1
    33     2     1    1
    34     4     3   am
    35    23    24   ar
    36    23    21   ar
    37    24    19   ar
    38   100    99    1
    39    28    25    1
    40    46    45    1
    41    92    90    1
    42     3     1    1
    43     3     6    1
    44    12     9    1
    45    52    54    1
    46    52    53    1
    47    52    49    1
    48     9    10   am
    49     1    90    1
    50     1    43    1
    51    50    49    1
    52   102    99    1
    53    21    25    1
    54    21    20   ar
    55    99    93    1
    56    99   101    1
    57    25    26    1
    58    25    27    1
    59    45    43   am
    60    45    47    1
    61    90    93    1
    62    90    91    1
    63    19    16    1
    64    19    20   ar
    65    94    93    1
    66    49    47    1
    67    49    51    1
    68    93    95    1
    69    43    44    2
    70    73    72    1
    71    10    11    2
    72    10    13    1
    73    16    17    2
    74    16    15   am
    75    20    22    1
    76    47    72    1
    77    47    48    1
    78    89    88    1
    79    18    15    1
    80    88    83    1
    81    15    13    1
    82    72    74    1
    83    72    75    1
    84    13    14    1
    85    13    29    1
    86    95    97    1
    87    95    96    1
    88    95    98    1
    89    31    29    1
    90    83    75    1
    91    83    86    1
    92    83    80    1
    93    84    80    1
    94    75    87    1
    95    75    76    1
    96    29    32    1
    97    29    30    1
    98    78    76    1
    99    80    85    1
   100    80    77    1
   101    76    77    1
   102    76    79    1
   103    81    77    1
   104    77    82    1
@<TRIPOS>MOLECULE
crystal_redock_e8_er3_1.pdbqt
 102 104 0 0 0
SMALL
GASTEIGER

@<TRIPOS>ATOM
      1 C          -7.5310   12.0740   67.9270 C.3     1  UNL11       0.0890
      2 H          -6.7930   11.7720   68.6710 H       1  UNL11       0.0870
      3 N          -6.9910   11.7480   66.6160 N.am    1  UNL11      -0.3460
      4 C          -6.1700   10.4980   66.4200 C.2     1  UNL11       0.2410
      5 O          -5.9540    9.7720   67.3340 O.2     1  UNL11      -0.2710
      6 H          -7.1830   12.3800   65.8520 H       1  UNL11       0.1630
      7 C          -5.6230   10.1720   65.0550 C.3     1  UNL11       0.0920
      8 H          -5.5540    9.0900   64.9450 H       1  UNL11       0.0880
      9 N          -6.5530   10.6540   64.0290 N.am    1  UNL11      -0.3460
     10 C          -7.6020    9.7910   63.5450 C.2     1  UNL11       0.2400
     11 O          -7.7120    8.7060   63.9700 O.2     1  UNL11      -0.2710
     12 H          -6.4690   11.5870   63.6510 H       1  UNL11       0.1630
     13 C          -8.5860   10.3080   62.4500 C.3     1  UNL11       0.0860
     14 H          -9.4440    9.6500   62.3100 H       1  UNL11       0.0860
     15 N          -9.1140   11.5980   62.8620 N.am    1  UNL11      -0.3430
     16 C         -10.1980   11.6530   63.8460 C.2     1  UNL11       0.2730
     17 O         -10.6410   10.6540   64.2970 O.2     1  UNL11      -0.2660
     18 H          -8.7320   12.4460   62.4700 H       1  UNL11       0.1630
     19 C         -10.7650   13.0100   64.2910 C.ar    1  UNL11       0.1540
     20 C         -10.1070   14.0040   65.0830 C.ar    1  UNL11      -0.0170
     21 C         -11.0470   15.0510   65.2080 C.ar    1  UNL11       0.0770
     22 H          -9.1010   13.9710   65.5020 H       1  UNL11       0.0910
     23 O         -12.1160   14.6910   64.5600 O.2     1  UNL11      -0.2180
     24 N         -11.9760   13.5030   64.0160 N.ar    1  UNL11      -0.1230
     25 C         -10.8460   16.3580   65.9620 C.3     1  UNL11      -0.0290
     26 H         -10.9410   16.1790   67.0330 H       1  UNL11       0.0360
     27 H          -9.8530   16.7530   65.7460 H       1  UNL11       0.0360
     28 H         -11.6000   17.0800   65.6460 H       1  UNL11       0.0360
     29 C          -7.8570   10.4430   61.1380 C.3     1  UNL11      -0.0490
     30 H          -7.5600    9.4560   60.7840 H       1  UNL11       0.0300
     31 H          -8.5130   10.9110   60.4040 H       1  UNL11       0.0300
     32 H          -6.9700   11.0600   61.2790 H       1  UNL11       0.0300
     33 C          -4.2430   10.8690   64.8690 C.3     1  UNL11      -0.0330
     34 H          -4.2750   11.8120   65.4140 H       1  UNL11       0.0420
     35 C          -3.0880   10.0140   65.4780 C.3     1  UNL11      -0.0710
     36 H          -3.4770    9.0400   65.7790 H       1  UNL11       0.0280
     37 H          -2.3050    9.8780   64.7330 H       1  UNL11       0.0280
     38 H          -2.6780   10.5260   66.3480 H       1  UNL11       0.0280
     39 C          -3.9770   11.1890   63.3630 C.3     1  UNL11      -0.0710
     40 H          -4.3460   12.1880   63.1330 H       1  UNL11       0.0280
     41 H          -2.9050   11.1440   63.1660 H       1  UNL11       0.0280
     42 H          -4.4920   10.4590   62.7400 H       1  UNL11       0.0280
     43 C          -8.8840   11.3280   68.1060 C.2     1  UNL11       0.2400
     44 O          -9.9010   11.8710   67.8170 O.2     1  UNL11      -0.2710
     45 N          -8.9110    9.9320   68.6290 N.am    1  UNL11      -0.3550
     46 H          -8.0530    9.4590   68.8730 H       1  UNL11       0.1620
     47 C         -10.2060    9.2360   68.7910 C.3     1  UNL11       0.0130
     48 H         -10.9860    9.9920   68.8720 H       1  UNL11       0.0720
     49 C         -10.1670    8.3970   70.0490 C.3     1  UNL11      -0.0380
     50 H         -10.8280    7.5510   69.8590 H       1  UNL11       0.0360
     51 H          -9.1110    8.2280   70.2570 H       1  UNL11       0.0360
     52 C         -10.7430    9.1340   71.2780 C.3     1  UNL11       0.0180
     53 H         -10.5620    8.4750   72.1280 H       1  UNL11       0.0480
     54 H         -10.3030   10.1310   71.2570 H       1  UNL11       0.0480
     55 C         -12.2810    9.3440   71.2180 C.2     1  UNL11       0.2590
     56 O         -13.0220    8.4690   71.5310 O.2     1  UNL11      -0.2650
     57 O         -12.7970   10.5920   70.7730 O.3     1  UNL11      -0.3170
     58 C         -13.1070   11.5050   71.8300 C.3     1  UNL11       0.0520
     59 H         -14.1760   11.3950   72.0110 H       1  UNL11       0.0820
     60 H         -12.3950   11.2880   72.6250 H       1  UNL11       0.0820
     61 C         -12.8420   12.9440   71.3130 C.ar    1  UNL11      -0.0340
     62 C         -13.4650   14.0290   71.9220 C.ar    1  UNL11      -0.0750
     63 C         -13.2270   15.3220   71.4580 C.ar    1  UNL11      -0.0820
     64 H         -14.1380   13.8660   72.7640 H       1  UNL11       0.0840
     65 C         -12.3650   15.5280   70.3770 C.ar    1  UNL11      -0.0830
     66 H         -13.7140   16.1700   71.9390 H       1  UNL11       0.0830
     67 C         -11.7490   14.4420   69.7700 C.ar    1  UNL11      -0.0820
     68 H         -12.1730   16.5350   70.0080 H       1  UNL11       0.0830
     69 C         -11.9820   13.1480   70.2320 C.ar    1  UNL11      -0.0750
     70 H         -11.0790   14.6060   68.9260 H       1  UNL11       0.0830
     71 H         -11.4930   12.3010   69.7510 H       1  UNL11       0.0840
     72 C         -10.4620    8.3350   67.5850 C.3     1  UNL11      -0.0390
     73 H         -11.5350    8.1370   67.5940 H       1  UNL11       0.0360
     74 H         -10.0100    8.8490   66.7370 H       1  UNL11       0.0360
     75 C          -9.7200    6.9230   67.7310 C.3     1  UNL11      -0.0010
     76 C          -8.2190    7.0080   67.0660 C.3     1  UNL11      -0.0350
     77 C          -8.0650    5.9750   66.2030 C.3     1  UNL11       0.0850
     78 H          -8.1420    7.8870   66.4280 H       1  UNL11       0.0360
     79 H          -7.4610    6.8180   67.8270 H       1  UNL11       0.0360
     80 N          -9.4350    5.3850   65.9720 N.4     1  UNL11      -0.0490
     81 H          -7.7100    6.4230   65.2740 H       1  UNL11       0.0750
     82 H          -7.4480    5.2470   66.7270 H       1  UNL11       0.0750
     83 C         -10.3790    5.9850   67.1370 C.3     1  UNL11       0.1930
     84 H          -9.7550    5.7420   65.0830 H       1  UNL11       0.2800
     85 H          -9.3450    4.3890   66.1130 H       1  UNL11       0.2800
     86 H         -10.6630    5.3700   67.9910 H       1  UNL11       0.1290
     87 H          -9.7930    6.5210   68.7420 H       1  UNL11       0.0460
     88 O         -11.6070    6.4570   66.5810 O.3     1  UNL11      -0.3690
     89 H         -12.1550    6.8220   67.2790 H       1  UNL11       0.2120
     90 C          -7.7600   13.5750   68.0090 C.3     1  UNL11      -0.0350
     91 H          -8.4760   13.8010   67.2190 H       1  UNL11       0.0370
     92 H          -8.0180   13.7710   69.0500 H       1  UNL11       0.0370
     93 C          -6.4840   14.4220   67.7040 C.3     1  UNL11      -0.0590
     94 H          -6.0240   14.0130   66.8040 H       1  UNL11       0.0380
     95 C          -6.8230   15.9210   67.4270 C.3     1  UNL11      -0.0730
     96 H          -7.4050   15.9980   66.5080 H       1  UNL11       0.0280
     97 H          -7.4030   16.3220   68.2590 H       1  UNL11       0.0280
     98 H          -5.8990   16.4890   67.3210 H       1  UNL11       0.0280
     99 C          -5.4600   14.2950   68.8350 C.3     1  UNL11      -0.0730
    100 H          -4.4780   14.0790   68.4140 H       1  UNL11       0.0280
    101 H          -5.4180   15.2310   69.3930 H       1  UNL11       0.0280
    102 H          -5.7550   13.4860   69.5030 H       1  UNL11       0.0280
@<TRIPOS>BOND
     1    31    29    1
     2    30    29    1
     3    29    32    1
     4    29    13    1
     5    14    13    1
     6    13    15    1
     7    13    10    1
     8    18    15    1
     9    42    39    1
    10    15    16   am
    11    40    39    1
    12    41    39    1
    13    39    33    1
    14    10    11    2
    15    10     9   am
    16    12     9    1
    17    16    19    1
    18    16    17    2
    19    24    19   ar
    20    24    23   ar
    21     9     7    1
    22    19    20   ar
    23    23    21   ar
    24    37    35    1
    25    33     7    1
    26    33    34    1
    27    33    35    1
    28     8     7    1
    29     7     4    1
    30    20    21   ar
    31    20    22    1
    32    84    80    1
    33    21    25    1
    34    81    77    1
    35    35    36    1
    36    35    38    1
    37    28    25    1
    38    27    25    1
    39     6     3    1
    40    25    26    1
    41    80    85    1
    42    80    77    1
    43    80    83    1
    44    77    82    1
    45    77    76    1
    46     4     3   am
    47     4     5    2
    48    78    76    1
    49    96    95    1
    50    88    83    1
    51    88    89    1
    52     3     1    1
    53    74    72    1
    54    94    93    1
    55    76    75    1
    56    76    79    1
    57    83    75    1
    58    83    86    1
    59    91    90    1
    60    98    95    1
    61    95    93    1
    62    95    97    1
    63    72    73    1
    64    72    75    1
    65    72    47    1
    66    93    90    1
    67    93    99    1
    68    75    87    1
    69    44    43    2
    70     1    90    1
    71     1    43    1
    72     1     2    1
    73    90    92    1
    74    43    45   am
    75   100    99    1
    76    45    47    1
    77    45    46    1
    78    47    48    1
    79    47    49    1
    80    99   101    1
    81    99   102    1
    82    70    67    1
    83    71    69    1
    84    67    69   ar
    85    67    65   ar
    86    50    49    1
    87    68    65    1
    88    49    51    1
    89    49    52    1
    90    69    61   ar
    91    65    63   ar
    92    57    55    1
    93    57    58    1
    94    55    52    1
    95    55    56    2
    96    54    52    1
    97    52    53    1
    98    61    58    1
    99    61    62   ar
   100    63    62   ar
   101    63    66    1
   102    58    59    1
   103    58    60    1
   104    62    64    1
@<TRIPOS>MOLECULE
crystal_redock_e8_er3_1.pdbqt
 102 104 0 0 0
SMALL
GASTEIGER

@<TRIPOS>ATOM
      1 C         -11.6270    7.8270   70.6150 C.3     1  UNL11       0.0890
      2 H         -12.5590    7.6050   70.0950 H       1  UNL11       0.0870
      3 N         -10.7910    6.6380   70.5410 N.am    1  UNL11      -0.3460
      4 C         -10.6560    5.8810   69.2440 C.2     1  UNL11       0.2410
      5 O         -11.2330    6.2450   68.2740 O.2     1  UNL11      -0.2710
      6 H         -10.3100    6.3430   71.3790 H       1  UNL11       0.1630
      7 C          -9.7820    4.6560   69.1850 C.3     1  UNL11       0.0920
      8 H         -10.3590    3.8220   68.7850 H       1  UNL11       0.0880
      9 N          -8.6680    4.8940   68.2620 N.am    1  UNL11      -0.3460
     10 C          -8.7370    4.4020   66.9080 C.2     1  UNL11       0.2400
     11 O          -9.6800    3.8110   66.5450 O.2     1  UNL11      -0.2710
     12 H          -7.8470    5.4010   68.5610 H       1  UNL11       0.1630
     13 C          -7.5470    4.6560   65.9310 C.3     1  UNL11       0.0860
     14 H          -7.5860    4.0220   65.0450 H       1  UNL11       0.0860
     15 N          -7.6070    6.0300   65.4620 N.am    1  UNL11      -0.3430
     16 C          -7.1620    6.3490   64.1040 C.2     1  UNL11       0.2730
     17 O          -6.7540    5.4940   63.3980 O.2     1  UNL11      -0.2660
     18 H          -7.9550    6.7560   66.0730 H       1  UNL11       0.1630
     19 C          -7.2220    7.7980   63.5940 C.ar    1  UNL11       0.1540
     20 C          -7.8560    8.2690   62.4020 C.ar    1  UNL11      -0.0170
     21 C          -7.6260    9.6630   62.3940 C.ar    1  UNL11       0.0770
     22 H          -8.4010    7.6890   61.6560 H       1  UNL11       0.0910
     23 O          -6.9390    9.9480   63.4610 O.2     1  UNL11      -0.2180
     24 N          -6.6910    8.8760   64.1780 N.ar    1  UNL11      -0.1230
     25 C          -8.0950   10.6490   61.3320 C.3     1  UNL11      -0.0290
     26 H          -8.1750   11.6440   61.7690 H       1  UNL11       0.0360
     27 H          -7.3760   10.6690   60.5120 H       1  UNL11       0.0360
     28 H          -9.0690   10.3390   60.9530 H       1  UNL11       0.0360
     29 C          -6.2430    4.4120   66.6480 C.3     1  UNL11      -0.0490
     30 H          -6.4340    3.8700   67.5750 H       1  UNL11       0.0300
     31 H          -5.5840    3.8220   66.0110 H       1  UNL11       0.0300
     32 H          -5.7710    5.3660   66.8770 H       1  UNL11       0.0300
     33 C          -9.2190    4.3500   70.6040 C.3     1  UNL11      -0.0330
     34 H          -9.5920    5.1220   71.2780 H       1  UNL11       0.0420
     35 C          -9.7320    2.9750   71.1350 C.3     1  UNL11      -0.0710
     36 H         -10.5970    2.6600   70.5520 H       1  UNL11       0.0280
     37 H          -8.9410    2.2320   71.0410 H       1  UNL11       0.0280
     38 H         -10.0160    3.0740   72.1820 H       1  UNL11       0.0280
     39 C          -7.6580    4.4150   70.6130 C.3     1  UNL11      -0.0710
     40 H          -7.3380    5.4540   70.6830 H       1  UNL11       0.0280
     41 H          -7.2760    3.8580   71.4690 H       1  UNL11       0.0280
     42 H          -7.2720    3.9760   69.6930 H       1  UNL11       0.0280
     43 C         -10.8600    9.0130   69.9650 C.2     1  UNL11       0.2400
     44 O          -9.9670    9.5340   70.5530 O.2     1  UNL11      -0.2710
     45 N         -11.2310    9.4960   68.6040 N.am    1  UNL11      -0.3550
     46 H         -11.9840    9.0590   68.0930 H       1  UNL11       0.1620
     47 C         -10.4910   10.6240   67.9990 C.3     1  UNL11       0.0130
     48 H         -10.0990   11.2400   68.8080 H       1  UNL11       0.0720
     49 C         -11.4340   11.4370   67.1410 C.3     1  UNL11      -0.0380
     50 H         -10.9730   11.4770   66.1530 H       1  UNL11       0.0360
     51 H         -12.4150   10.9800   67.2670 H       1  UNL11       0.0360
     52 C         -11.5690   12.8990   67.6190 C.3     1  UNL11       0.0180
     53 H         -12.6370   13.1180   67.6020 H       1  UNL11       0.0480
     54 H         -11.0160   12.9560   68.5570 H       1  UNL11       0.0480
     55 C         -10.9050   13.9330   66.6680 C.2     1  UNL11       0.2590
     56 O         -10.2340   13.5710   65.7560 O.2     1  UNL11      -0.2650
     57 O         -11.0970   15.3220   66.9060 O.3     1  UNL11      -0.3170
     58 C         -10.1770   15.8850   67.8460 C.3     1  UNL11       0.0520
     59 H         -10.6040   15.6900   68.8290 H       1  UNL11       0.0820
     60 H          -9.2010   15.4750   67.5850 H       1  UNL11       0.0820
     61 C         -10.1410   17.4200   67.6210 C.ar    1  UNL11      -0.0340
     62 C         -10.4820   17.9510   66.3810 C.ar    1  UNL11      -0.0750
     63 C         -10.4490   19.3300   66.1790 C.ar    1  UNL11      -0.0820
     64 H         -10.7750   17.2860   65.5680 H       1  UNL11       0.0840
     65 C         -10.0710   20.1790   67.2220 C.ar    1  UNL11      -0.0830
     66 H         -10.7200   19.7430   65.2070 H       1  UNL11       0.0830
     67 C          -9.7280   19.6450   68.4560 C.ar    1  UNL11      -0.0820
     68 H         -10.0430   21.2580   67.0720 H       1  UNL11       0.0830
     69 C          -9.7610   18.2670   68.6630 C.ar    1  UNL11      -0.0750
     70 H          -9.4310   20.3100   69.2680 H       1  UNL11       0.0830
     71 H          -9.4910   17.8550   69.6360 H       1  UNL11       0.0840
     72 C          -9.3490   10.0900   67.1370 C.3     1  UNL11      -0.0390
     73 H          -9.2530    9.0370   67.4030 H       1  UNL11       0.0360
     74 H          -9.6010   10.3720   66.1150 H       1  UNL11       0.0360
     75 C          -7.9560   10.7960   67.4940 C.3     1  UNL11      -0.0010
     76 C          -8.1550   11.8120   68.7720 C.3     1  UNL11      -0.0350
     77 C          -7.6500   13.0260   68.4470 C.3     1  UNL11       0.0850
     78 H          -9.2150   12.0100   68.9300 H       1  UNL11       0.0360
     79 H          -7.5300   11.4910   69.6060 H       1  UNL11       0.0360
     80 N          -7.4230   13.0250   66.9550 N.4     1  UNL11      -0.0490
     81 H          -8.4370   13.7420   68.6860 H       1  UNL11       0.0750
     82 H          -6.6870   13.0860   68.9530 H       1  UNL11       0.0750
     83 C          -7.5090   11.4800   66.4940 C.3     1  UNL11       0.1930
     84 H          -8.1990   13.5260   66.5470 H       1  UNL11       0.2800
     85 H          -6.4780   13.3510   66.8090 H       1  UNL11       0.2800
     86 H          -6.6040   10.9200   66.2600 H       1  UNL11       0.1290
     87 H          -7.1340   10.0830   67.5500 H       1  UNL11       0.0460
     88 O          -8.3430   11.3560   65.3400 O.3     1  UNL11      -0.3690
     89 H          -7.9490   10.7330   64.7260 H       1  UNL11       0.2120
     90 C         -11.9140    8.1420   72.0740 C.3     1  UNL11      -0.0350
     91 H         -11.9720    7.1740   72.5730 H       1  UNL11       0.0370
     92 H         -11.1500    8.8610   72.3700 H       1  UNL11       0.0370
     93 C         -13.2910    8.8410   72.3050 C.3     1  UNL11      -0.0590
     94 H         -13.4900    8.8350   73.3770 H       1  UNL11       0.0380
     95 C         -13.2840   10.3290   71.8300 C.3     1  UNL11      -0.0730
     96 H         -13.9140   10.4310   70.9470 H       1  UNL11       0.0280
     97 H         -13.6680   10.9670   72.6270 H       1  UNL11       0.0280
     98 H         -12.2640   10.6280   71.5860 H       1  UNL11       0.0280
     99 C         -14.4210    8.0590   71.6300 C.3     1  UNL11      -0.0730
    100 H         -15.3780    8.5260   71.8650 H       1  UNL11       0.0280
    101 H         -14.2710    8.0640   70.5500 H       1  UNL11       0.0280
    102 H         -14.4190    7.0320   71.9920 H       1  UNL11       0.0280
@<TRIPOS>BOND
     1    27    25    1
     2    28    25    1
     3    25    26    1
     4    25    21    1
     5    22    20    1
     6    21    20   ar
     7    21    23   ar
     8    20    19   ar
     9    17    16    2
    10    23    24   ar
    11    19    16    1
    12    19    24   ar
    13    16    15   am
    14    89    88    1
    15    14    13    1
    16    66    63    1
    17    88    83    1
    18    15    13    1
    19    15    18    1
    20    64    62    1
    21    56    55    2
    22    13    29    1
    23    13    10    1
    24    31    29    1
    25    74    72    1
    26    50    49    1
    27    63    62   ar
    28    63    65   ar
    29    86    83    1
    30    62    61   ar
    31    83    80    1
    32    83    75    1
    33    11    10    2
    34    84    80    1
    35    29    32    1
    36    29    30    1
    37    55    57    1
    38    55    52    1
    39    85    80    1
    40    57    58    1
    41    10     9   am
    42    80    77    1
    43    68    65    1
    44    72    73    1
    45    72    75    1
    46    72    47    1
    47    49    51    1
    48    49    52    1
    49    49    47    1
    50    65    67   ar
    51    75    87    1
    52    75    76    1
    53    60    58    1
    54    53    52    1
    55    52    54    1
    56    61    58    1
    57    61    69   ar
    58    58    59    1
    59    47    45    1
    60    47    48    1
    61    46    45    1
    62     9    12    1
    63     9     7    1
    64     5     4    2
    65    77    81    1
    66    77    76    1
    67    77    82    1
    68    67    69   ar
    69    67    70    1
    70    45    43   am
    71    69    71    1
    72    76    78    1
    73    76    79    1
    74     8     7    1
    75     7     4    1
    76     7    33    1
    77     4     3   am
    78    42    39    1
    79    43    44    2
    80    43     1    1
    81     2     1    1
    82     3     1    1
    83     3     6    1
    84   101    99    1
    85    36    35    1
    86    33    39    1
    87    33    35    1
    88    33    34    1
    89    39    40    1
    90    39    41    1
    91     1    90    1
    92    96    95    1
    93    37    35    1
    94    35    38    1
    95    98    95    1
    96    99   100    1
    97    99   102    1
    98    99    93    1
    99    95    93    1
   100    95    97    1
   101    90    93    1
   102    90    92    1
   103    90    91    1
   104    93    94    1
@<TRIPOS>MOLECULE
crystal_redock_e8_er3_1.pdbqt
 102 104 0 0 0
SMALL
GASTEIGER

@<TRIPOS>ATOM
      1 C          -9.5000    9.7190   69.3450 C.3     1  UNL11       0.0890
      2 H          -8.9640    8.8170   69.6420 H       1  UNL11       0.0870
      3 N          -8.5690   10.8340   69.4400 N.am    1  UNL11      -0.3460
      4 C          -7.0920   10.6110   69.2370 C.2     1  UNL11       0.2410
      5 O          -6.6750    9.5250   69.0010 O.2     1  UNL11      -0.2710
      6 H          -8.9440   11.7500   69.6440 H       1  UNL11       0.1630
      7 C          -6.1430   11.7770   69.3340 C.3     1  UNL11       0.0920
      8 H          -5.5550   11.8380   68.4170 H       1  UNL11       0.0880
      9 N          -6.9080   13.0230   69.4410 N.am    1  UNL11      -0.3460
     10 C          -6.9450   13.9440   68.3310 C.2     1  UNL11       0.2400
     11 O          -6.3630   13.6990   67.3460 O.2     1  UNL11      -0.2710
     12 H          -7.4140   13.2490   70.2850 H       1  UNL11       0.1630
     13 C          -7.7590   15.2700   68.4520 C.3     1  UNL11       0.0860
     14 H          -8.2080   15.5760   67.5080 H       1  UNL11       0.0860
     15 N          -8.8530   15.0670   69.3880 N.am    1  UNL11      -0.3430
     16 C         -10.2190   15.4110   68.9850 C.2     1  UNL11       0.2730
     17 O         -10.4260   15.8520   67.9080 O.2     1  UNL11      -0.2660
     18 H          -8.6660   14.6920   70.3070 H       1  UNL11       0.1630
     19 C         -11.3850   15.2000   69.9630 C.ar    1  UNL11       0.1540
     20 C         -11.6630   15.9480   71.1510 C.ar    1  UNL11      -0.0170
     21 C         -12.8330   15.3630   71.6840 C.ar    1  UNL11       0.0770
     22 H         -11.1010   16.7870   71.5640 H       1  UNL11       0.0910
     23 O         -13.1800   14.3950   70.8870 O.2     1  UNL11      -0.2180
     24 N         -12.3500   14.2800   69.8760 N.ar    1  UNL11      -0.1230
     25 C         -13.5560   15.7890   72.9550 C.3     1  UNL11      -0.0290
     26 H         -14.0110   14.9160   73.4240 H       1  UNL11       0.0360
     27 H         -12.8430   16.2410   73.6440 H       1  UNL11       0.0360
     28 H         -14.3320   16.5140   72.7070 H       1  UNL11       0.0360
     29 C          -6.8570   16.3730   68.9440 C.3     1  UNL11      -0.0490
     30 H          -6.2660   16.7570   68.1120 H       1  UNL11       0.0300
     31 H          -7.4620   17.1780   69.3620 H       1  UNL11       0.0300
     32 H          -6.1900   15.9820   69.7120 H       1  UNL11       0.0300
     33 C          -5.2460   11.6130   70.5950 C.3     1  UNL11      -0.0330
     34 H          -5.6780   10.8200   71.2050 H       1  UNL11       0.0420
     35 C          -3.7990   11.1730   70.2100 C.3     1  UNL11      -0.0710
     36 H          -3.5400   11.5890   69.2360 H       1  UNL11       0.0280
     37 H          -3.0970   11.5400   70.9580 H       1  UNL11       0.0280
     38 H          -3.7490   10.0860   70.1660 H       1  UNL11       0.0280
     39 C          -5.2320   12.9230   71.4460 C.3     1  UNL11      -0.0710
     40 H          -4.4600   12.8510   72.2120 H       1  UNL11       0.0280
     41 H          -5.0230   13.7750   70.7980 H       1  UNL11       0.0280
     42 H          -6.2030   13.0580   71.9210 H       1  UNL11       0.0280
     43 C         -10.0260    9.6360   67.8840 C.2     1  UNL11       0.2400
     44 O         -11.1910    9.5150   67.6810 O.2     1  UNL11      -0.2710
     45 N          -9.0780    9.7170   66.7360 N.am    1  UNL11      -0.3550
     46 H          -8.0870    9.8250   66.8960 H       1  UNL11       0.1620
     47 C          -9.5940    9.6380   65.3520 C.3     1  UNL11       0.0130
     48 H         -10.5910    9.2000   65.3910 H       1  UNL11       0.0720
     49 C          -8.6780    8.7640   64.5260 C.3     1  UNL11      -0.0380
     50 H          -9.3120    7.9790   64.1140 H       1  UNL11       0.0360
     51 H          -8.1470    9.4430   63.8590 H       1  UNL11       0.0360
     52 C          -7.6000    8.0550   65.3750 C.3     1  UNL11       0.0180
     53 H          -6.6470    8.2940   64.9030 H       1  UNL11       0.0480
     54 H          -7.7890    8.3580   66.4050 H       1  UNL11       0.0480
     55 C          -7.7100    6.5050   65.3590 C.2     1  UNL11       0.2590
     56 O          -6.7420    5.8300   65.5000 O.2     1  UNL11      -0.2650
     57 O          -8.9810    5.8980   65.1590 O.3     1  UNL11      -0.3170
     58 C          -9.1370    4.6410   65.8240 C.3     1  UNL11       0.0520
     59 H          -9.8950    4.1000   65.2570 H       1  UNL11       0.0820
     60 H          -8.1320    4.2310   65.9190 H       1  UNL11       0.0820
     61 C          -9.6920    4.9180   67.2470 C.ar    1  UNL11      -0.0340
     62 C          -9.2330    4.1750   68.3300 C.ar    1  UNL11      -0.0750
     63 C          -9.7310    4.4240   69.6080 C.ar    1  UNL11      -0.0820
     64 H          -8.4830    3.3990   68.1770 H       1  UNL11       0.0840
     65 C         -10.6940    5.4180   69.8010 C.ar    1  UNL11      -0.0830
     66 H          -9.3680    3.8420   70.4550 H       1  UNL11       0.0830
     67 C         -11.1520    6.1540   68.7160 C.ar    1  UNL11      -0.0820
     68 H         -11.0890    5.6180   70.7970 H       1  UNL11       0.0830
     69 C         -10.6550    5.9110   67.4370 C.ar    1  UNL11      -0.0750
     70 H         -11.9050    6.9270   68.8690 H       1  UNL11       0.0830
     71 H         -11.0190    6.4940   66.5910 H       1  UNL11       0.0840
     72 C          -9.6520   11.0370   64.7420 C.3     1  UNL11      -0.0390
     73 H          -8.7580   11.5470   65.1010 H       1  UNL11       0.0360
     74 H          -9.7980   10.8810   63.6730 H       1  UNL11       0.0360
     75 C         -10.9150   11.8650   65.2760 C.3     1  UNL11      -0.0010
     76 C         -11.7830   12.4440   64.0050 C.3     1  UNL11      -0.0350
     77 C         -11.9820   13.7720   64.1820 C.3     1  UNL11       0.0850
     78 H         -11.1890   12.3940   63.0930 H       1  UNL11       0.0360
     79 H         -12.7920   12.0300   64.0220 H       1  UNL11       0.0360
     80 N         -11.0530   14.2150   65.2860 N.4     1  UNL11      -0.0490
     81 H         -11.6710   14.2400   63.2470 H       1  UNL11       0.0750
     82 H         -13.0120   13.8690   64.5230 H       1  UNL11       0.0750
     83 C         -10.5450   12.8630   66.0070 C.3     1  UNL11       0.1930
     84 H         -10.2640   14.6560   64.8370 H       1  UNL11       0.2800
     85 H         -11.6170   14.7360   65.9420 H       1  UNL11       0.2800
     86 H         -10.9520   12.5630   66.9730 H       1  UNL11       0.1290
     87 H         -11.4650   11.3260   66.0480 H       1  UNL11       0.0460
     88 O          -9.1280   12.9030   66.1860 O.3     1  UNL11      -0.3690
     89 H          -8.9180   12.7550   67.1110 H       1  UNL11       0.2120
     90 C         -10.6630    9.9620   70.2940 C.3     1  UNL11      -0.0350
     91 H         -10.3270   10.7510   70.9670 H       1  UNL11       0.0370
     92 H         -11.5290   10.1250   69.6530 H       1  UNL11       0.0370
     93 C         -11.0050    8.7320   71.1940 C.3     1  UNL11      -0.0590
     94 H         -11.1290    7.8680   70.5400 H       1  UNL11       0.0380
     95 C          -9.8590    8.4030   72.2040 C.3     1  UNL11      -0.0730
     96 H         -10.2620    7.8230   73.0330 H       1  UNL11       0.0280
     97 H          -9.0840    7.8260   71.6980 H       1  UNL11       0.0280
     98 H          -9.4320    9.3320   72.5830 H       1  UNL11       0.0280
     99 C         -12.3330    8.9420   71.9260 C.3     1  UNL11      -0.0730
    100 H         -12.9300    8.0320   71.8650 H       1  UNL11       0.0280
    101 H         -12.1360    9.1800   72.9720 H       1  UNL11       0.0280
    102 H         -12.8760    9.7660   71.4630 H       1  UNL11       0.0280
@<TRIPOS>BOND
     1    78    76    1
     2    81    77    1
     3    74    72    1
     4    51    49    1
     5    76    79    1
     6    76    77    1
     7    76    75    1
     8    50    49    1
     9    77    82    1
    10    77    80    1
    11    49    47    1
    12    49    52    1
    13    72    73    1
    14    72    75    1
    15    72    47    1
    16    84    80    1
    17    53    52    1
    18    57    55    1
    19    57    58    1
    20    59    58    1
    21    75    83    1
    22    75    87    1
    23    80    85    1
    24    80    83    1
    25    47    48    1
    26    47    45    1
    27    55    52    1
    28    55    56    2
    29    52    54    1
    30    58    60    1
    31    58    61    1
    32    83    88    1
    33    83    86    1
    34    88    89    1
    35    71    69    1
    36    45    46    1
    37    45    43   am
    38    61    69   ar
    39    61    62   ar
    40    11    10    2
    41    69    67   ar
    42    14    13    1
    43    44    43    2
    44    43     1    1
    45    17    16    2
    46    30    29    1
    47    64    62    1
    48    62    63   ar
    49    10    13    1
    50    10     9   am
    51     8     7    1
    52    13    29    1
    53    13    15    1
    54    67    70    1
    55    67    65   ar
    56    29    31    1
    57    29    32    1
    58    16    15   am
    59    16    19    1
    60     5     4    2
    61    36    35    1
    62     4     7    1
    63     4     3   am
    64     7     9    1
    65     7    33    1
    66     1     3    1
    67     1     2    1
    68     1    90    1
    69    15    18    1
    70     3     6    1
    71     9    12    1
    72    63    65   ar
    73    63    66    1
    74    92    90    1
    75    65    68    1
    76    24    19   ar
    77    24    23   ar
    78    19    20   ar
    79    38    35    1
    80    35    33    1
    81    35    37    1
    82    90    91    1
    83    90    93    1
    84    94    93    1
    85    33    34    1
    86    33    39    1
    87    41    39    1
    88    23    21   ar
    89    20    22    1
    90    20    21   ar
    91    93    99    1
    92    93    95    1
    93    39    42    1
    94    39    40    1
    95   102    99    1
    96    21    25    1
    97    97    95    1
    98   100    99    1
    99    99   101    1
   100    95    98    1
   101    95    96    1
   102    28    25    1
   103    25    26    1
   104    25    27    1
@<TRIPOS>MOLECULE
crystal_redock_e8_er3_1.pdbqt
 102 104 0 0 0
SMALL
GASTEIGER

@<TRIPOS>ATOM
      1 C          -6.7530   12.6830   68.0820 C.3     1  UNL11       0.0890
      2 H          -6.0270   13.3270   67.5850 H       1  UNL11       0.0870
      3 N          -7.9880   13.4400   68.2210 N.am    1  UNL11      -0.3460
      4 C          -8.1860   14.7220   67.4510 C.2     1  UNL11       0.2410
      5 O          -7.3360   15.1250   66.7280 O.2     1  UNL11      -0.2710
      6 H          -8.6980   13.0810   68.8430 H       1  UNL11       0.1630
      7 C          -9.4730   15.4890   67.6020 C.3     1  UNL11       0.0920
      8 H         -10.1340   15.2490   66.7690 H       1  UNL11       0.0880
      9 N         -10.1530   15.0670   68.8300 N.am    1  UNL11      -0.3460
     10 C         -11.4890   14.5270   68.7650 C.2     1  UNL11       0.2400
     11 O         -12.0320   14.4260   67.7330 O.2     1  UNL11      -0.2710
     12 H          -9.6990   15.1490   69.7280 H       1  UNL11       0.1630
     13 C         -12.2090   14.0810   70.0760 C.3     1  UNL11       0.0860
     14 H         -13.2820   14.2740   70.0540 H       1  UNL11       0.0860
     15 N         -12.0480   12.6460   70.2380 N.am    1  UNL11      -0.3430
     16 C         -12.7720   11.9550   71.3070 C.2     1  UNL11       0.2730
     17 O         -13.4790   12.5630   72.0330 O.2     1  UNL11      -0.2660
     18 H         -11.4390   12.1350   69.6150 H       1  UNL11       0.1630
     19 C         -12.6110   10.4380   71.4890 C.ar    1  UNL11       0.1540
     20 C         -11.5000    9.6310   71.0870 C.ar    1  UNL11      -0.0170
     21 C         -11.8430    8.3180   71.4790 C.ar    1  UNL11       0.0770
     22 H         -10.5860    9.9490   70.5860 H       1  UNL11       0.0910
     23 O         -13.0150    8.3750   72.0420 O.2     1  UNL11      -0.2180
     24 N         -13.4840    9.6020   72.0590 N.ar    1  UNL11      -0.1230
     25 C         -10.9970    7.0680   71.2820 C.3     1  UNL11      -0.0290
     26 H         -10.5470    7.0860   70.2880 H       1  UNL11       0.0360
     27 H         -10.2100    7.0390   72.0360 H       1  UNL11       0.0360
     28 H         -11.6260    6.1830   71.3800 H       1  UNL11       0.0360
     29 C         -11.6080   14.8050   71.2530 C.3     1  UNL11      -0.0490
     30 H         -11.2390   15.7800   70.9320 H       1  UNL11       0.0300
     31 H         -12.3670   14.9400   72.0240 H       1  UNL11       0.0300
     32 H         -10.7810   14.2200   71.6550 H       1  UNL11       0.0300
     33 C          -9.1620   17.0130   67.6830 C.3     1  UNL11      -0.0330
     34 H          -8.6410   17.2910   66.7670 H       1  UNL11       0.0420
     35 C         -10.4720   17.8580   67.7530 C.3     1  UNL11      -0.0710
     36 H         -10.2910   18.8450   67.3270 H       1  UNL11       0.0280
     37 H         -11.2580   17.3570   67.1870 H       1  UNL11       0.0280
     38 H         -10.7820   17.9620   68.7920 H       1  UNL11       0.0280
     39 C          -8.2200   17.3280   68.8890 C.3     1  UNL11      -0.0710
     40 H          -8.5860   16.8180   69.7790 H       1  UNL11       0.0280
     41 H          -7.2110   16.9830   68.6620 H       1  UNL11       0.0280
     42 H          -8.2050   18.4030   69.0660 H       1  UNL11       0.0280
     43 C          -7.0510   11.3940   67.2640 C.2     1  UNL11       0.2400
     44 O          -6.6300   10.3470   67.6360 O.2     1  UNL11      -0.2710
     45 N          -7.8700   11.4640   66.0200 N.am    1  UNL11      -0.3550
     46 H          -8.2380   12.3470   65.6960 H       1  UNL11       0.1620
     47 C          -8.1460   10.2290   65.2540 C.3     1  UNL11       0.0130
     48 H          -7.9720    9.3790   65.9140 H       1  UNL11       0.0720
     49 C          -7.2150   10.1600   64.0650 C.3     1  UNL11      -0.0380
     50 H          -7.7870   10.5430   63.2200 H       1  UNL11       0.0360
     51 H          -6.3000   10.6630   64.3780 H       1  UNL11       0.0360
     52 C          -6.8140    8.7130   63.7010 C.3     1  UNL11       0.0180
     53 H          -5.8400    8.7890   63.2180 H       1  UNL11       0.0480
     54 H          -6.9230    8.1370   64.6200 H       1  UNL11       0.0480
     55 C          -7.7570    8.0450   62.6620 C.2     1  UNL11       0.2590
     56 O          -8.2260    8.6820   61.7760 O.2     1  UNL11      -0.2650
     57 O          -8.0650    6.6620   62.7890 O.3     1  UNL11      -0.3170
     58 C          -7.4350    6.0250   63.9040 C.3     1  UNL11       0.0520
     59 H          -7.0870    5.0600   63.5350 H       1  UNL11       0.0820
     60 H          -6.7190    6.7500   64.2920 H       1  UNL11       0.0820
     61 C          -8.5170    5.7760   64.9880 C.ar    1  UNL11      -0.0340
     62 C          -9.3360    4.6550   64.9090 C.ar    1  UNL11      -0.0750
     63 C         -10.3090    4.4310   65.8830 C.ar    1  UNL11      -0.0820
     64 H          -9.2160    3.9510   64.0860 H       1  UNL11       0.0840
     65 C         -10.4620    5.3350   66.9370 C.ar    1  UNL11      -0.0830
     66 H         -10.9480    3.5500   65.8200 H       1  UNL11       0.0830
     67 C          -9.6450    6.4550   67.0090 C.ar    1  UNL11      -0.0820
     68 H         -11.2200    5.1680   67.7020 H       1  UNL11       0.0830
     69 C          -8.6700    6.6810   66.0400 C.ar    1  UNL11      -0.0750
     70 H          -9.7680    7.1600   67.8320 H       1  UNL11       0.0830
     71 H          -8.0310    7.5620   66.1040 H       1  UNL11       0.0840
     72 C          -9.5940   10.2350   64.7690 C.3     1  UNL11      -0.0390
     73 H          -9.5840    9.6980   63.8200 H       1  UNL11       0.0360
     74 H         -10.1820    9.8540   65.6040 H       1  UNL11       0.0360
     75 C         -10.1110   11.7210   64.4650 C.3     1  UNL11      -0.0010
     76 C         -11.4000   12.0720   65.4240 C.3     1  UNL11      -0.0350
     77 C         -12.4080   12.5350   64.6470 C.3     1  UNL11       0.0850
     78 H         -11.8080   11.1560   65.8510 H       1  UNL11       0.0360
     79 H         -11.1670   12.9180   66.0700 H       1  UNL11       0.0360
     80 N         -12.0410   12.2250   63.2160 N.4     1  UNL11      -0.0490
     81 H         -13.2840   11.9470   64.9240 H       1  UNL11       0.0750
     82 H         -12.4110   13.6150   64.7870 H       1  UNL11       0.0750
     83 C         -10.4720   11.8480   63.2320 C.3     1  UNL11       0.1930
     84 H         -12.5670   11.4020   62.9570 H       1  UNL11       0.2800
     85 H         -12.1600   13.0840   62.6970 H       1  UNL11       0.2800
     86 H          -9.7270   12.5620   62.8800 H       1  UNL11       0.1290
     87 H          -9.2970   12.4450   64.4450 H       1  UNL11       0.0460
     88 O         -10.2440   10.6550   62.4780 O.3     1  UNL11      -0.3690
     89 H         -11.0220   10.0960   62.5210 H       1  UNL11       0.2120
     90 C          -6.2450   12.3050   69.4640 C.3     1  UNL11      -0.0350
     91 H          -7.0690   12.5220   70.1440 H       1  UNL11       0.0370
     92 H          -5.8730   11.2850   69.3660 H       1  UNL11       0.0370
     93 C          -5.0370   13.1710   69.9460 C.3     1  UNL11      -0.0590
     94 H          -4.5150   12.6080   70.7190 H       1  UNL11       0.0380
     95 C          -4.0190   13.4550   68.7940 C.3     1  UNL11      -0.0730
     96 H          -3.6850   12.5110   68.3640 H       1  UNL11       0.0280
     97 H          -4.5020   14.0560   68.0230 H       1  UNL11       0.0280
     98 H          -3.1620   13.9970   69.1940 H       1  UNL11       0.0280
     99 C          -5.5200   14.4770   70.5810 C.3     1  UNL11      -0.0730
    100 H          -6.0170   15.0870   69.8260 H       1  UNL11       0.0280
    101 H          -6.2200   14.2520   71.3860 H       1  UNL11       0.0280
    102 H          -4.6660   15.0220   70.9840 H       1  UNL11       0.0280
@<TRIPOS>BOND
     1    56    55    2
     2    88    89    1
     3    88    83    1
     4    55    57    1
     5    55    52    1
     6    85    80    1
     7    57    58    1
     8    86    83    1
     9    84    80    1
    10    80    83    1
    11    80    77    1
    12    53    52    1
    13    50    49    1
    14    83    75    1
    15    59    58    1
    16    52    49    1
    17    52    54    1
    18    73    72    1
    19    58    60    1
    20    58    61    1
    21    49    51    1
    22    49    47    1
    23    64    62    1
    24    87    75    1
    25    75    72    1
    26    75    76    1
    27    77    82    1
    28    77    81    1
    29    77    76    1
    30    72    47    1
    31    72    74    1
    32    62    61   ar
    33    62    63   ar
    34    61    69   ar
    35    47    48    1
    36    47    45    1
    37    76    78    1
    38    76    79    1
    39    46    45    1
    40    66    63    1
    41    63    65   ar
    42    45    43   am
    43    69    71    1
    44    69    67   ar
    45     5     4    2
    46    34    33    1
    47     8     7    1
    48    65    67   ar
    49    65    68    1
    50    67    70    1
    51    37    35    1
    52    43    44    2
    53    43     1    1
    54    36    35    1
    55     4     7    1
    56     4     3   am
    57     2     1    1
    58     7    33    1
    59     7     9    1
    60    33    35    1
    61    33    39    1
    62    11    10    2
    63    35    38    1
    64    97    95    1
    65     1     3    1
    66     1    90    1
    67     3     6    1
    68    96    95    1
    69    41    39    1
    70    10     9   am
    71    10    13    1
    72    95    98    1
    73    95    93    1
    74     9    12    1
    75    39    42    1
    76    39    40    1
    77    92    90    1
    78    90    93    1
    79    90    91    1
    80    18    15    1
    81   100    99    1
    82    93    99    1
    83    93    94    1
    84    14    13    1
    85    13    15    1
    86    13    29    1
    87    15    16   am
    88    26    25    1
    89    99   102    1
    90    99   101    1
    91    22    20    1
    92    30    29    1
    93    20    21   ar
    94    20    19   ar
    95    29    32    1
    96    29    31    1
    97    25    28    1
    98    25    21    1
    99    25    27    1
   100    16    19    1
   101    16    17    2
   102    21    23   ar
   103    19    24   ar
   104    23    24   ar
@<TRIPOS>MOLECULE
crystal_redock_e8_er3_1.pdbqt
 102 104 0 0 0
SMALL
GASTEIGER

@<TRIPOS>ATOM
      1 C         -10.5200    8.3230   68.6410 C.3     1  UNL11       0.0890
      2 H         -11.5140    8.1730   68.2180 H       1  UNL11       0.0870
      3 N          -9.5810    7.5550   67.8370 N.am    1  UNL11      -0.3460
      4 C         -10.0740    6.4440   66.9440 C.2     1  UNL11       0.2410
      5 O         -11.2310    6.1850   66.8920 O.2     1  UNL11      -0.2710
      6 H          -8.6010    7.7890   67.8980 H       1  UNL11       0.1630
      7 C          -9.0890    5.6630   66.1140 C.3     1  UNL11       0.0920
      8 H          -9.6070    5.2280   65.2590 H       1  UNL11       0.0880
      9 N          -8.0660    6.5710   65.5860 N.am    1  UNL11      -0.3460
     10 C          -7.6940    6.5040   64.1950 C.2     1  UNL11       0.2400
     11 O          -8.2060    5.7260   63.4860 O.2     1  UNL11      -0.2710
     12 H          -7.6150    7.2460   66.1860 H       1  UNL11       0.1630
     13 C          -6.6020    7.4710   63.6390 C.3     1  UNL11       0.0860
     14 H          -6.9540    8.0630   62.7940 H       1  UNL11       0.0860
     15 N          -6.2330    8.4140   64.6820 N.am    1  UNL11      -0.3430
     16 C          -6.4640    9.8450   64.4750 C.2     1  UNL11       0.2730
     17 O          -6.9450   10.2280   63.4650 O.2     1  UNL11      -0.2660
     18 H          -5.8200    8.0780   65.5400 H       1  UNL11       0.1630
     19 C          -6.0800   10.8530   65.5690 C.ar    1  UNL11       0.1540
     20 C          -6.9300   11.3900   66.5870 C.ar    1  UNL11      -0.0170
     21 C          -6.1020   12.2610   67.3300 C.ar    1  UNL11       0.0770
     22 H          -7.9850   11.1800   66.7610 H       1  UNL11       0.0910
     23 O          -4.9180   12.2210   66.7940 O.2     1  UNL11      -0.2180
     24 N          -4.8800   11.4070   65.7650 N.ar    1  UNL11      -0.1230
     25 C          -6.5200   13.0930   68.5360 C.3     1  UNL11      -0.0290
     26 H          -6.1450   12.6260   69.4470 H       1  UNL11       0.0360
     27 H          -6.1070   14.0970   68.4450 H       1  UNL11       0.0360
     28 H          -7.6080   13.1500   68.5790 H       1  UNL11       0.0360
     29 C          -5.3950    6.6770   63.2100 C.3     1  UNL11      -0.0490
     30 H          -4.5500    6.9240   63.8520 H       1  UNL11       0.0300
     31 H          -5.6140    5.6120   63.2900 H       1  UNL11       0.0300
     32 H          -5.1490    6.9210   62.1760 H       1  UNL11       0.0300
     33 C          -8.4090    4.5790   67.0010 C.3     1  UNL11      -0.0330
     34 H          -8.4220    4.9400   68.0290 H       1  UNL11       0.0420
     35 C          -9.2030    3.2360   66.9650 C.3     1  UNL11      -0.0710
     36 H          -9.7340    3.1020   67.9080 H       1  UNL11       0.0280
     37 H          -9.9200    3.2590   66.1450 H       1  UNL11       0.0280
     38 H          -8.5090    2.4080   66.8190 H       1  UNL11       0.0280
     39 C          -6.9190    4.3680   66.5820 C.3     1  UNL11      -0.0710
     40 H          -6.2850    5.0640   67.1300 H       1  UNL11       0.0280
     41 H          -6.6180    3.3450   66.8120 H       1  UNL11       0.0280
     42 H          -6.8140    4.5460   65.5120 H       1  UNL11       0.0280
     43 C         -10.0890    9.8180   68.6130 C.2     1  UNL11       0.2400
     44 O          -9.0380   10.1380   69.0670 O.2     1  UNL11      -0.2710
     45 N         -10.9820   10.8480   68.0110 N.am    1  UNL11      -0.3550
     46 H         -11.8750   10.5870   67.6180 H       1  UNL11       0.1620
     47 C         -10.5570   12.2650   67.9910 C.3     1  UNL11       0.0130
     48 H          -9.6250   12.3430   68.5500 H       1  UNL11       0.0720
     49 C         -11.6240   13.1160   68.6420 C.3     1  UNL11      -0.0380
     50 H         -12.1300   13.6310   67.8250 H       1  UNL11       0.0360
     51 H         -12.1830   12.4410   69.2910 H       1  UNL11       0.0360
     52 C         -11.0390   14.2150   69.5560 C.3     1  UNL11       0.0180
     53 H         -10.9300   13.7550   70.5380 H       1  UNL11       0.0480
     54 H         -10.1620   14.5970   69.0330 H       1  UNL11       0.0480
     55 C         -11.9830   15.4320   69.7540 C.2     1  UNL11       0.2590
     56 O         -12.7350   15.4690   70.6740 O.2     1  UNL11      -0.2650
     57 O         -11.9490   16.5010   68.8160 O.3     1  UNL11      -0.3170
     58 C         -10.8810   16.4100   67.8690 C.3     1  UNL11       0.0520
     59 H         -10.1110   15.8070   68.3490 H       1  UNL11       0.0820
     60 H         -11.3390   16.0710   66.9400 H       1  UNL11       0.0820
     61 C         -10.3170   17.8390   67.6450 C.ar    1  UNL11      -0.0340
     62 C         -10.4840   18.4690   66.4160 C.ar    1  UNL11      -0.0750
     63 C          -9.9770   19.7520   66.2140 C.ar    1  UNL11      -0.0820
     64 H         -11.0120   17.9580   65.6110 H       1  UNL11       0.0840
     65 C          -9.2990   20.4040   67.2470 C.ar    1  UNL11      -0.0830
     66 H         -10.1120   20.2440   65.2510 H       1  UNL11       0.0830
     67 C          -9.1330   19.7700   68.4710 C.ar    1  UNL11      -0.0820
     68 H          -8.9010   21.4080   67.0980 H       1  UNL11       0.0830
     69 C          -9.6390   18.4890   68.6770 C.ar    1  UNL11      -0.0750
     70 H          -8.6010   20.2810   69.2740 H       1  UNL11       0.0830
     71 H          -9.5050   17.9980   69.6420 H       1  UNL11       0.0840
     72 C         -10.3510   12.7210   66.5480 C.3     1  UNL11      -0.0390
     73 H         -10.7570   13.7320   66.5030 H       1  UNL11       0.0360
     74 H          -9.2960   12.5490   66.3370 H       1  UNL11       0.0360
     75 C         -11.1910   11.8280   65.5180 C.3     1  UNL11      -0.0010
     76 C         -10.1720   11.0730   64.4700 C.3     1  UNL11      -0.0350
     77 C         -10.5930   11.3110   63.2050 C.3     1  UNL11       0.0850
     78 H          -9.1890   11.5410   64.5040 H       1  UNL11       0.0360
     79 H         -10.2650    9.9920   64.5710 H       1  UNL11       0.0360
     80 N         -11.6100   12.4240   63.2800 N.4     1  UNL11      -0.0490
     81 H          -9.7140   11.6690   62.6680 H       1  UNL11       0.0750
     82 H         -11.0910   10.3960   62.8870 H       1  UNL11       0.0750
     83 C         -12.0160   12.5510   64.8370 C.3     1  UNL11       0.1930
     84 H         -11.1310   13.2690   63.0020 H       1  UNL11       0.2800
     85 H         -12.4180   12.1080   62.7620 H       1  UNL11       0.2800
     86 H         -12.9670   12.1570   65.1950 H       1  UNL11       0.1290
     87 H         -11.9350   11.2080   66.0190 H       1  UNL11       0.0460
     88 O         -11.9940   13.9210   65.2420 O.3     1  UNL11      -0.3690
     89 H         -12.5510   14.4370   64.6550 H       1  UNL11       0.2120
     90 C         -10.4860    7.8080   70.0710 C.3     1  UNL11      -0.0350
     91 H          -9.4510    7.5120   70.2470 H       1  UNL11       0.0370
     92 H         -10.9360    8.5970   70.6730 H       1  UNL11       0.0370
     93 C         -11.3540    6.5300   70.2980 C.3     1  UNL11      -0.0590
     94 H         -11.9540    6.3750   69.4010 H       1  UNL11       0.0380
     95 C         -10.4800    5.2530   70.5120 C.3     1  UNL11      -0.0730
     96 H          -9.7350    5.1860   69.7200 H       1  UNL11       0.0280
     97 H          -9.9780    5.3150   71.4790 H       1  UNL11       0.0280
     98 H         -11.1160    4.3690   70.4890 H       1  UNL11       0.0280
     99 C         -12.3250    6.7280   71.4650 C.3     1  UNL11      -0.0730
    100 H         -13.3500    6.6460   71.1040 H       1  UNL11       0.0280
    101 H         -12.1430    5.9640   72.2220 H       1  UNL11       0.0280
    102 H         -12.1710    7.7150   71.9020 H       1  UNL11       0.0280
@<TRIPOS>BOND
     1    32    29    1
     2    81    77    1
     3    85    80    1
     4    14    13    1
     5    82    77    1
     6    84    80    1
     7    77    80    1
     8    77    76    1
     9    29    31    1
    10    29    13    1
    11    29    30    1
    12    80    83    1
    13    17    16    2
    14    11    10    2
    15    13    10    1
    16    13    15    1
    17    10     9   am
    18    76    78    1
    19    76    79    1
    20    76    75    1
    21    16    15   am
    22    16    19    1
    23    89    88    1
    24    15    18    1
    25    83    86    1
    26    83    88    1
    27    83    75    1
    28    66    63    1
    29     8     7    1
    30    42    39    1
    31    75    87    1
    32    75    72    1
    33    19    24   ar
    34    19    20   ar
    35     9     7    1
    36     9    12    1
    37    64    62    1
    38    24    23   ar
    39     7     4    1
    40     7    33    1
    41    37    35    1
    42    63    62   ar
    43    63    65   ar
    44    74    72    1
    45    62    61   ar
    46    73    72    1
    47    72    47    1
    48    39    41    1
    49    39    33    1
    50    39    40    1
    51    20    22    1
    52    20    21   ar
    53    23    21   ar
    54    38    35    1
    55     5     4    2
    56    60    58    1
    57     4     3   am
    58    35    33    1
    59    35    36    1
    60    33    34    1
    61    68    65    1
    62    65    67   ar
    63    21    25    1
    64    46    45    1
    65    61    58    1
    66    61    69   ar
    67    50    49    1
    68     3     6    1
    69     3     1    1
    70    58    59    1
    71    58    57    1
    72    47    45    1
    73    47    48    1
    74    47    49    1
    75    45    43   am
    76     2     1    1
    77    27    25    1
    78    67    69   ar
    79    67    70    1
    80    25    28    1
    81    25    26    1
    82    43     1    1
    83    43    44    2
    84     1    90    1
    85    49    51    1
    86    49    52    1
    87    69    71    1
    88    57    55    1
    89    54    52    1
    90    94    93    1
    91    52    55    1
    92    52    53    1
    93    96    95    1
    94    55    56    2
    95    90    91    1
    96    90    93    1
    97    90    92    1
    98    93    95    1
    99    93    99    1
   100    98    95    1
   101    95    97    1
   102   100    99    1
   103    99   102    1
   104    99   101    1
@<TRIPOS>MOLECULE
crystal_redock_e8_er3_1.pdbqt
 102 104 0 0 0
SMALL
GASTEIGER

@<TRIPOS>ATOM
      1 C         -11.7630   10.6470   70.2050 C.3     1  UNL11       0.0890
      2 H         -10.9610   10.2510   70.8280 H       1  UNL11       0.0870
      3 N         -11.7490   12.0960   70.3400 N.am    1  UNL11      -0.3460
      4 C         -12.6020   12.7720   71.3830 C.2     1  UNL11       0.2410
      5 O         -13.2940   12.1290   72.1020 O.2     1  UNL11      -0.2710
      6 H         -11.1550   12.6250   69.7170 H       1  UNL11       0.1630
      7 C         -12.5710   14.2720   71.5130 C.3     1  UNL11       0.0920
      8 H         -11.6210   14.5740   71.9550 H       1  UNL11       0.0880
      9 N         -12.6420   14.8800   70.1810 N.am    1  UNL11      -0.3460
     10 C         -11.4290   15.2460   69.4900 C.2     1  UNL11       0.2400
     11 O         -10.3890   15.0600   69.9930 O.2     1  UNL11      -0.2710
     12 H         -13.5320   15.0480   69.7350 H       1  UNL11       0.1630
     13 C         -11.5110   15.8950   68.0740 C.3     1  UNL11       0.0860
     14 H         -12.1940   16.7430   68.0380 H       1  UNL11       0.0860
     15 N         -10.1980   16.4020   67.7110 N.am    1  UNL11      -0.3430
     16 C          -9.9750   17.8480   67.6500 C.2     1  UNL11       0.2730
     17 O         -10.8590   18.5950   67.8920 O.2     1  UNL11      -0.2660
     18 H          -9.4500   15.7570   67.5030 H       1  UNL11       0.1630
     19 C          -8.5920   18.3980   67.2690 C.ar    1  UNL11       0.1540
     20 C          -7.7610   17.9730   66.1850 C.ar    1  UNL11      -0.0170
     21 C          -6.6090   18.7860   66.2690 C.ar    1  UNL11       0.0770
     22 H          -7.9620   17.1930   65.4500 H       1  UNL11       0.0910
     23 O          -6.7700   19.5830   67.2850 O.2     1  UNL11      -0.2180
     24 N          -7.9200   19.3750   67.8850 N.ar    1  UNL11      -0.1230
     25 C          -5.4020   18.7390   65.3410 C.3     1  UNL11      -0.0290
     26 H          -5.7390   18.6070   64.3130 H       1  UNL11       0.0360
     27 H          -4.8440   19.6720   65.4240 H       1  UNL11       0.0360
     28 H          -4.7590   17.9050   65.6220 H       1  UNL11       0.0360
     29 C         -11.9620   14.8640   67.0710 C.3     1  UNL11      -0.0490
     30 H         -11.2310   14.0560   67.0260 H       1  UNL11       0.0300
     31 H         -12.9300   14.4620   67.3720 H       1  UNL11       0.0300
     32 H         -12.0500   15.3270   66.0880 H       1  UNL11       0.0300
     33 C         -13.7870   14.7450   72.3610 C.3     1  UNL11      -0.0330
     34 H         -14.1080   13.9030   72.9750 H       1  UNL11       0.0420
     35 C         -13.3910   15.9050   73.3270 C.3     1  UNL11      -0.0710
     36 H         -13.7440   16.8530   72.9200 H       1  UNL11       0.0280
     37 H         -13.8460   15.7370   74.3020 H       1  UNL11       0.0280
     38 H         -12.3070   15.9360   73.4310 H       1  UNL11       0.0280
     39 C         -14.9830   15.1560   71.4430 C.3     1  UNL11      -0.0710
     40 H         -14.7050   15.0140   70.3990 H       1  UNL11       0.0280
     41 H         -15.8500   14.5370   71.6760 H       1  UNL11       0.0280
     42 H         -15.2290   16.2040   71.6150 H       1  UNL11       0.0280
     43 C         -11.5730   10.2870   68.7030 C.2     1  UNL11       0.2400
     44 O         -11.9810   11.0220   67.8630 O.2     1  UNL11      -0.2710
     45 N         -10.8730    9.0300   68.3130 N.am    1  UNL11      -0.3550
     46 H         -10.5170    8.4010   69.0170 H       1  UNL11       0.1620
     47 C         -10.6980    8.7030   66.8810 C.3     1  UNL11       0.0130
     48 H         -11.6790    8.7420   66.4060 H       1  UNL11       0.0720
     49 C         -10.1170    7.3140   66.7530 C.3     1  UNL11      -0.0380
     50 H         -10.2200    7.0460   65.7010 H       1  UNL11       0.0360
     51 H          -9.1270    7.3660   67.2080 H       1  UNL11       0.0360
     52 C         -10.9090    6.2560   67.5530 C.3     1  UNL11       0.0180
     53 H         -11.3330    6.7870   68.4050 H       1  UNL11       0.0480
     54 H         -11.5660    5.7710   66.8300 H       1  UNL11       0.0480
     55 C         -10.0220    5.1280   68.1490 C.2     1  UNL11       0.2590
     56 O          -9.7370    4.1760   67.4970 O.2     1  UNL11      -0.2650
     57 O          -9.5630    5.2390   69.4910 O.3     1  UNL11      -0.3170
     58 C          -8.1580    5.4870   69.6070 C.3     1  UNL11       0.0520
     59 H          -7.8630    5.0650   70.5680 H       1  UNL11       0.0820
     60 H          -7.7150    5.1090   68.6860 H       1  UNL11       0.0820
     61 C          -7.9460    7.0230   69.6590 C.ar    1  UNL11      -0.0340
     62 C          -8.5240    7.7720   70.6790 C.ar    1  UNL11      -0.0750
     63 C          -8.3330    9.1520   70.7260 C.ar    1  UNL11      -0.0820
     64 H          -9.1270    7.2780   71.4410 H       1  UNL11       0.0840
     65 C          -7.5620    9.7840   69.7470 C.ar    1  UNL11      -0.0830
     66 H          -8.7860    9.7360   71.5270 H       1  UNL11       0.0830
     67 C          -6.9890    9.0330   68.7290 C.ar    1  UNL11      -0.0820
     68 H          -7.4070   10.8620   69.7760 H       1  UNL11       0.0830
     69 C          -7.1760    7.6530   68.6800 C.ar    1  UNL11      -0.0750
     70 H          -6.3900    9.5290   67.9660 H       1  UNL11       0.0830
     71 H          -6.7210    7.0690   67.8780 H       1  UNL11       0.0840
     72 C          -9.7540    9.7130   66.2320 C.3     1  UNL11      -0.0390
     73 H          -9.9430   10.6570   66.7440 H       1  UNL11       0.0360
     74 H          -8.7660    9.2570   66.2780 H       1  UNL11       0.0360
     75 C         -10.1000    9.9380   64.6840 C.3     1  UNL11      -0.0010
     76 C          -8.7920    9.5680   63.7590 C.3     1  UNL11      -0.0350
     77 C          -8.5450   10.6030   62.9200 C.3     1  UNL11       0.0850
     78 H          -7.8970    9.5230   64.3780 H       1  UNL11       0.0360
     79 H          -9.0310    8.7450   63.0850 H       1  UNL11       0.0360
     80 N          -9.3590   11.7740   63.4120 N.4     1  UNL11      -0.0490
     81 H          -7.4850   10.8300   63.0420 H       1  UNL11       0.0750
     82 H          -8.9260   10.2880   61.9490 H       1  UNL11       0.0750
     83 C         -10.4320   11.1640   64.4520 C.3     1  UNL11       0.1930
     84 H          -8.7230   12.3730   63.9190 H       1  UNL11       0.2800
     85 H          -9.8580   12.1330   62.6100 H       1  UNL11       0.2800
     86 H         -11.4750   11.0350   64.1610 H       1  UNL11       0.1290
     87 H         -11.0500    9.4830   64.4030 H       1  UNL11       0.0460
     88 O         -10.4630   11.9490   65.6450 O.3     1  UNL11      -0.3690
     89 H         -11.3750   12.1130   65.8960 H       1  UNL11       0.2120
     90 C         -13.1020   10.1160   70.6920 C.3     1  UNL11      -0.0350
     91 H         -13.4200   10.8070   71.4730 H       1  UNL11       0.0370
     92 H         -13.7080    9.9940   69.7930 H       1  UNL11       0.0370
     93 C         -13.0130    8.7070   71.3590 C.3     1  UNL11      -0.0590
     94 H         -12.9810    7.9650   70.5620 H       1  UNL11       0.0380
     95 C         -11.7170    8.5420   72.2150 C.3     1  UNL11      -0.0730
     96 H         -11.9750    8.5670   73.2740 H       1  UNL11       0.0280
     97 H         -11.2440    7.5880   71.9790 H       1  UNL11       0.0280
     98 H         -11.0260    9.3550   71.9900 H       1  UNL11       0.0280
     99 C         -14.2610    8.4200   72.1980 C.3     1  UNL11      -0.0730
    100 H         -13.9670    8.2200   73.2290 H       1  UNL11       0.0280
    101 H         -14.9240    9.2840   72.1700 H       1  UNL11       0.0280
    102 H         -14.7790    7.5510   71.7930 H       1  UNL11       0.0280
@<TRIPOS>BOND
     1    82    77    1
     2    85    80    1
     3    77    81    1
     4    77    80    1
     5    77    76    1
     6    79    76    1
     7    80    84    1
     8    80    83    1
     9    76    78    1
    10    76    75    1
    11    86    83    1
    12    26    25    1
    13    87    75    1
    14    83    75    1
    15    83    88    1
    16    75    72    1
    17    25    27    1
    18    25    28    1
    19    25    21    1
    20    22    20    1
    21    88    89    1
    22    50    49    1
    23    32    29    1
    24    20    21   ar
    25    20    19   ar
    26    72    74    1
    27    72    73    1
    28    72    47    1
    29    21    23   ar
    30    48    47    1
    31    49    47    1
    32    49    51    1
    33    49    52    1
    34    54    52    1
    35    47    45    1
    36    30    29    1
    37    29    31    1
    38    29    13    1
    39    19    16    1
    40    19    24   ar
    41    23    24   ar
    42    56    55    2
    43    18    15    1
    44    52    55    1
    45    52    53    1
    46    16    15   am
    47    16    17    2
    48    15    13    1
    49    44    43    2
    50    71    69    1
    51    70    67    1
    52    14    13    1
    53    13    10    1
    54    55    57    1
    55    45    43   am
    56    45    46    1
    57    69    67   ar
    58    69    61   ar
    59    60    58    1
    60    43     1    1
    61    67    65   ar
    62    10    11    2
    63    10     9   am
    64    57    58    1
    65    58    61    1
    66    58    59    1
    67    61    62   ar
    68     6     3    1
    69    12     9    1
    70    65    68    1
    71    65    63   ar
    72    92    90    1
    73     9     7    1
    74     1     3    1
    75     1    90    1
    76     1     2    1
    77     3     4   am
    78    40    39    1
    79    94    93    1
    80    62    63   ar
    81    62    64    1
    82    90    93    1
    83    90    91    1
    84    63    66    1
    85    93    99    1
    86    93    95    1
    87     4     7    1
    88     4     5    2
    89    39    42    1
    90    39    41    1
    91    39    33    1
    92     7     8    1
    93     7    33    1
    94   102    99    1
    95    97    95    1
    96    98    95    1
    97   101    99    1
    98    99   100    1
    99    95    96    1
   100    33    34    1
   101    33    35    1
   102    36    35    1
   103    35    38    1
   104    35    37    1
@<TRIPOS>MOLECULE
crystal_redock_e8_er3_1.pdbqt
 102 104 0 0 0
SMALL
GASTEIGER

@<TRIPOS>ATOM
      1 C         -11.5530    7.7990   70.5360 C.3     1  UNL11       0.0890
      2 H         -12.4720    7.5860   69.9880 H       1  UNL11       0.0870
      3 N         -10.7170    6.6100   70.4670 N.am    1  UNL11      -0.3460
      4 C         -10.6230    5.8170   69.1880 C.2     1  UNL11       0.2410
      5 O         -11.2320    6.1540   68.2270 O.2     1  UNL11      -0.2710
      6 H         -10.2080    6.3390   71.2970 H       1  UNL11       0.1630
      7 C          -9.7480    4.5930   69.1340 C.3     1  UNL11       0.0920
      8 H         -10.3150    3.7660   68.7070 H       1  UNL11       0.0880
      9 N          -8.6100    4.8440   68.2440 N.am    1  UNL11      -0.3460
     10 C          -8.6530    4.3900   66.8750 C.2     1  UNL11       0.2400
     11 O          -9.5940    3.8200   66.4740 O.2     1  UNL11      -0.2710
     12 H          -7.7910    5.3320   68.5760 H       1  UNL11       0.1630
     13 C          -7.4380    4.6570   65.9330 C.3     1  UNL11       0.0860
     14 H          -7.4590    4.0430   65.0330 H       1  UNL11       0.0860
     15 N          -7.4780    6.0420   65.4930 N.am    1  UNL11      -0.3430
     16 C          -7.0550    6.3790   64.1320 C.2     1  UNL11       0.2730
     17 O          -6.6820    5.5290   63.4000 O.2     1  UNL11      -0.2660
     18 H          -7.7960    6.7620   66.1270 H       1  UNL11       0.1630
     19 C          -7.0940    7.8390   63.6530 C.ar    1  UNL11       0.1540
     20 C          -7.9680    8.4030   62.6710 C.ar    1  UNL11      -0.0170
     21 C          -7.6010    9.7660   62.5980 C.ar    1  UNL11       0.0770
     22 H          -8.7490    7.9020   62.0980 H       1  UNL11       0.0910
     23 O          -6.6310    9.9510   63.4450 O.2     1  UNL11      -0.2180
     24 N          -6.3170    8.8410   64.0720 N.ar    1  UNL11      -0.1230
     25 C          -8.2280   10.8210   61.6970 C.3     1  UNL11      -0.0290
     26 H          -7.4410   11.3850   61.1950 H       1  UNL11       0.0360
     27 H          -8.8580   10.3350   60.9520 H       1  UNL11       0.0360
     28 H          -8.8340   11.5000   62.2970 H       1  UNL11       0.0360
     29 C          -6.1540    4.3880   66.6760 C.3     1  UNL11      -0.0490
     30 H          -5.9400    5.2220   67.3450 H       1  UNL11       0.0300
     31 H          -6.2550    3.4720   67.2570 H       1  UNL11       0.0300
     32 H          -5.3380    4.2780   65.9620 H       1  UNL11       0.0300
     33 C          -9.2230    4.2670   70.5630 C.3     1  UNL11      -0.0330
     34 H          -9.6870    4.9710   71.2520 H       1  UNL11       0.0420
     35 C          -9.6400    2.8300   71.0080 C.3     1  UNL11      -0.0710
     36 H          -9.8690    2.8330   72.0730 H       1  UNL11       0.0280
     37 H         -10.5210    2.5190   70.4480 H       1  UNL11       0.0280
     38 H          -8.8210    2.1380   70.8130 H       1  UNL11       0.0280
     39 C          -7.6740    4.4580   70.6470 C.3     1  UNL11      -0.0710
     40 H          -7.2730    4.6180   69.6460 H       1  UNL11       0.0280
     41 H          -7.4480    5.3240   71.2710 H       1  UNL11       0.0280
     42 H          -7.2210    3.5680   71.0820 H       1  UNL11       0.0280
     43 C         -10.7680    8.9930   69.9220 C.2     1  UNL11       0.2400
     44 O         -10.2730    9.8050   70.6360 O.2     1  UNL11      -0.2710
     45 N         -10.6260    9.1210   68.4430 N.am    1  UNL11      -0.3550
     46 H         -11.0380    8.4360   67.8270 H       1  UNL11       0.1620
     47 C          -9.8750   10.2620   67.8750 C.3     1  UNL11       0.0130
     48 H          -9.4400   10.8230   68.7030 H       1  UNL11       0.0720
     49 C         -10.8220   11.1440   67.0940 C.3     1  UNL11      -0.0380
     50 H         -10.1890   11.7670   66.4610 H       1  UNL11       0.0360
     51 H         -11.5480   10.4680   66.6420 H       1  UNL11       0.0360
     52 C         -11.6230   12.1080   67.9950 C.3     1  UNL11       0.0180
     53 H         -12.6520   11.7480   67.9700 H       1  UNL11       0.0480
     54 H         -11.0820   12.1480   68.9400 H       1  UNL11       0.0480
     55 C         -11.6680   13.5690   67.4650 C.2     1  UNL11       0.2590
     56 O         -11.4330   13.8040   66.3250 O.2     1  UNL11      -0.2650
     57 O         -11.9810   14.6260   68.3640 O.3     1  UNL11      -0.3170
     58 C         -11.0360   14.7870   69.4250 C.3     1  UNL11       0.0520
     59 H         -10.4280   13.8820   69.4190 H       1  UNL11       0.0820
     60 H         -10.5700   15.7580   69.2600 H       1  UNL11       0.0820
     61 C         -11.8220   14.8410   70.7620 C.ar    1  UNL11      -0.0340
     62 C         -12.7330   13.8370   71.0760 C.ar    1  UNL11      -0.0750
     63 C         -13.4390   13.8850   72.2770 C.ar    1  UNL11      -0.0820
     64 H         -12.8920   13.0120   70.3820 H       1  UNL11       0.0840
     65 C         -13.2350   14.9450   73.1650 C.ar    1  UNL11      -0.0830
     66 H         -14.1500   13.0960   72.5210 H       1  UNL11       0.0830
     67 C         -12.3280   15.9460   72.8460 C.ar    1  UNL11      -0.0820
     68 H         -13.7820   14.9900   74.1060 H       1  UNL11       0.0830
     69 C         -11.6180   15.9010   71.6480 C.ar    1  UNL11      -0.0750
     70 H         -12.1720   16.7730   73.5400 H       1  UNL11       0.0830
     71 H         -10.9060   16.6910   71.4050 H       1  UNL11       0.0840
     72 C          -8.7750    9.7460   66.9490 C.3     1  UNL11      -0.0390
     73 H          -8.8630    8.6600   66.9710 H       1  UNL11       0.0360
     74 H          -8.9110   10.2850   66.0110 H       1  UNL11       0.0360
     75 C          -7.3160   10.1140   67.4980 C.3     1  UNL11      -0.0010
     76 C          -7.4230   10.6690   69.0430 C.3     1  UNL11      -0.0350
     77 C          -6.7620   11.8480   69.1290 C.3     1  UNL11       0.0850
     78 H          -8.4540   10.9370   69.2730 H       1  UNL11       0.0360
     79 H          -6.8660   10.0150   69.7140 H       1  UNL11       0.0360
     80 N          -6.4940   12.3090   67.7160 N.4     1  UNL11      -0.0490
     81 H          -7.4600   12.5400   69.6020 H       1  UNL11       0.0750
     82 H          -5.8130   11.6150   69.6120 H       1  UNL11       0.0750
     83 C          -6.7600   11.0260   66.7730 C.3     1  UNL11       0.1930
     84 H          -7.1900   13.0110   67.5080 H       1  UNL11       0.2800
     85 H          -5.5120   12.5420   67.6730 H       1  UNL11       0.2800
     86 H          -5.9240   10.4640   66.3550 H       1  UNL11       0.1290
     87 H          -6.5910    9.3230   67.3040 H       1  UNL11       0.0460
     88 O          -7.5700   11.3950   65.6560 O.3     1  UNL11      -0.3690
     89 H          -7.2410   12.2140   65.2790 H       1  UNL11       0.2120
     90 C         -11.8780    8.0950   71.9910 C.3     1  UNL11      -0.0350
     91 H         -11.8150    7.1330   72.5020 H       1  UNL11       0.0370
     92 H         -11.2100    8.9080   72.2760 H       1  UNL11       0.0370
     93 C         -13.3320    8.6190   72.2150 C.3     1  UNL11      -0.0590
     94 H         -13.5580    8.5230   73.2770 H       1  UNL11       0.0380
     95 C         -13.4810   10.1260   71.8300 C.3     1  UNL11      -0.0730
     96 H         -13.4540   10.7350   72.7330 H       1  UNL11       0.0280
     97 H         -12.6620   10.4150   71.1720 H       1  UNL11       0.0280
     98 H         -14.4310   10.2770   71.3170 H       1  UNL11       0.0280
     99 C         -14.3460    7.7600   71.4550 C.3     1  UNL11      -0.0730
    100 H         -15.3520    7.9870   71.8090 H       1  UNL11       0.0280
    101 H         -14.2780    7.9760   70.3890 H       1  UNL11       0.0280
    102 H         -14.1290    6.7060   71.6260 H       1  UNL11       0.0280
@<TRIPOS>BOND
     1    27    25    1
     2    26    25    1
     3    25    28    1
     4    25    21    1
     5    22    20    1
     6    21    20   ar
     7    21    23   ar
     8    20    19   ar
     9    17    16    2
    10    23    24   ar
    11    19    24   ar
    12    19    16    1
    13    16    15   am
    14    14    13    1
    15    89    88    1
    16    15    13    1
    17    15    18    1
    18    88    83    1
    19    13    29    1
    20    13    10    1
    21    32    29    1
    22    74    72    1
    23    56    55    2
    24    86    83    1
    25    50    49    1
    26    11    10    2
    27    51    49    1
    28    29    31    1
    29    29    30    1
    30    83    75    1
    31    83    80    1
    32    10     9   am
    33    72    73    1
    34    72    75    1
    35    72    47    1
    36    49    47    1
    37    49    52    1
    38    87    75    1
    39    55    52    1
    40    55    57    1
    41    75    76    1
    42    84    80    1
    43    85    80    1
    44    80    77    1
    45    46    45    1
    46    47    45    1
    47    47    48    1
    48    53    52    1
    49    52    54    1
    50     5     4    2
    51     9    12    1
    52     9     7    1
    53    57    58    1
    54    45    43   am
    55     8     7    1
    56    76    77    1
    57    76    78    1
    58    76    79    1
    59    77    81    1
    60    77    82    1
    61     7     4    1
    62     7    33    1
    63     4     3   am
    64    60    58    1
    65    59    58    1
    66    58    61    1
    67    40    39    1
    68    43     1    1
    69    43    44    2
    70     2     1    1
    71    64    62    1
    72   101    99    1
    73    37    35    1
    74     3     1    1
    75     3     6    1
    76     1    90    1
    77    33    39    1
    78    33    35    1
    79    33    34    1
    80    39    42    1
    81    39    41    1
    82    61    62   ar
    83    61    69   ar
    84    38    35    1
    85    35    36    1
    86    62    63   ar
    87    97    95    1
    88    98    95    1
    89    71    69    1
    90    99   102    1
    91    99   100    1
    92    99    93    1
    93    69    67   ar
    94    95    93    1
    95    95    96    1
    96    90    93    1
    97    90    92    1
    98    90    91    1
    99    93    94    1
   100    63    66    1
   101    63    65   ar
   102    67    65   ar
   103    67    70    1
   104    65    68    1
@<TRIPOS>MOLECULE
crystal_redock_e8_er3_1.pdbqt
 102 104 0 0 0
SMALL
GASTEIGER

@<TRIPOS>ATOM
      1 C          -8.5390    5.9680   68.3000 C.3     1  UNL11       0.0890
      2 H          -9.2970    5.6130   67.6020 H       1  UNL11       0.0870
      3 N          -7.3050    6.1530   67.5500 N.am    1  UNL11      -0.3460
      4 C          -7.1080    5.4610   66.2250 C.2     1  UNL11       0.2410
      5 O          -7.9560    4.7580   65.7830 O.2     1  UNL11      -0.2710
      6 H          -6.5950    6.7540   67.9450 H       1  UNL11       0.1630
      7 C          -5.8280    5.6690   65.4600 C.3     1  UNL11       0.0920
      8 H          -5.7520    4.9150   64.6760 H       1  UNL11       0.0880
      9 N          -5.8580    6.9780   64.8000 N.am    1  UNL11      -0.3460
     10 C          -5.5150    7.0890   63.4040 C.2     1  UNL11       0.2400
     11 O          -5.2110    6.1360   62.7960 O.2     1  UNL11      -0.2710
     12 H          -6.1170    7.8090   65.3120 H       1  UNL11       0.1630
     13 C          -5.5460    8.4860   62.7080 C.3     1  UNL11       0.0860
     14 H          -5.8040    8.4250   61.6510 H       1  UNL11       0.0860
     15 N          -6.5690    9.3030   63.3390 N.am    1  UNL11      -0.3430
     16 C          -7.9520    9.2240   62.8620 C.2     1  UNL11       0.2730
     17 O          -8.2300    8.5020   61.9690 O.2     1  UNL11      -0.2660
     18 H          -6.3220    9.9200   64.1000 H       1  UNL11       0.1630
     19 C          -9.0440   10.0820   63.5210 C.ar    1  UNL11       0.1540
     20 C          -9.6150   11.2920   63.0140 C.ar    1  UNL11      -0.0170
     21 C         -10.5650   11.6800   63.9860 C.ar    1  UNL11       0.0770
     22 H          -9.3780   11.8090   62.0850 H       1  UNL11       0.0910
     23 O         -10.5350   10.7900   64.9340 O.2     1  UNL11      -0.2180
     24 N          -9.6550    9.8470   64.6850 N.ar    1  UNL11      -0.1230
     25 C         -11.4580   12.9120   63.9320 C.3     1  UNL11      -0.0290
     26 H         -11.6690   13.1630   62.8920 H       1  UNL11       0.0360
     27 H         -12.3930   12.7060   64.4530 H       1  UNL11       0.0360
     28 H         -10.9520   13.7500   64.4120 H       1  UNL11       0.0360
     29 C          -4.1990    9.1480   62.8440 C.3     1  UNL11      -0.0490
     30 H          -4.3310   10.2260   62.9340 H       1  UNL11       0.0300
     31 H          -3.6950    8.7690   63.7330 H       1  UNL11       0.0300
     32 H          -3.5960    8.9290   61.9630 H       1  UNL11       0.0300
     33 C          -4.6220    5.6140   66.4430 C.3     1  UNL11      -0.0330
     34 H          -4.9720    5.1560   67.3680 H       1  UNL11       0.0420
     35 C          -3.4720    4.7200   65.8830 C.3     1  UNL11      -0.0710
     36 H          -3.7910    4.2640   64.9450 H       1  UNL11       0.0280
     37 H          -2.5880    5.3330   65.7060 H       1  UNL11       0.0280
     38 H          -3.2350    3.9390   66.6050 H       1  UNL11       0.0280
     39 C          -4.1090    7.0510   66.7790 C.3     1  UNL11      -0.0710
     40 H          -4.9580    7.7020   66.9830 H       1  UNL11       0.0280
     41 H          -3.4630    7.0110   67.6560 H       1  UNL11       0.0280
     42 H          -3.5460    7.4430   65.9310 H       1  UNL11       0.0280
     43 C          -8.9300    7.3250   68.9520 C.2     1  UNL11       0.2400
     44 O          -8.9660    7.4230   70.1360 O.2     1  UNL11      -0.2710
     45 N          -9.2520    8.5050   68.1010 N.am    1  UNL11      -0.3550
     46 H          -9.2200    8.4360   67.0940 H       1  UNL11       0.1620
     47 C          -9.6210    9.7890   68.7360 C.3     1  UNL11       0.0130
     48 H          -9.5240    9.6690   69.8150 H       1  UNL11       0.0720
     49 C         -11.0500   10.1300   68.3810 C.3     1  UNL11      -0.0380
     50 H         -11.0230   10.4730   67.3460 H       1  UNL11       0.0360
     51 H         -11.6370    9.2510   68.6490 H       1  UNL11       0.0360
     52 C         -11.6120   11.3010   69.2150 C.3     1  UNL11       0.0180
     53 H         -12.6620   11.0630   69.3890 H       1  UNL11       0.0480
     54 H         -10.9320   11.4150   70.0590 H       1  UNL11       0.0480
     55 C         -11.6000   12.6640   68.4680 C.2     1  UNL11       0.2590
     56 O         -11.9890   12.7410   67.3480 O.2     1  UNL11      -0.2650
     57 O         -11.1070   13.8200   69.1350 O.3     1  UNL11      -0.3170
     58 C         -12.0060   14.9320   69.1140 C.3     1  UNL11       0.0520
     59 H         -11.4240   15.7750   68.7410 H       1  UNL11       0.0820
     60 H         -12.8840   14.5920   68.5660 H       1  UNL11       0.0820
     61 C         -12.4280   15.2350   70.5770 C.ar    1  UNL11      -0.0340
     62 C         -13.6280   14.7360   71.0730 C.ar    1  UNL11      -0.0750
     63 C         -14.0070   15.0080   72.3870 C.ar    1  UNL11      -0.0820
     64 H         -14.2710   14.1320   70.4330 H       1  UNL11       0.0840
     65 C         -13.1820   15.7850   73.2040 C.ar    1  UNL11      -0.0830
     66 H         -14.9470   14.6130   72.7730 H       1  UNL11       0.0830
     67 C         -11.9870   16.2830   72.7040 C.ar    1  UNL11      -0.0820
     68 H         -13.4700   16.0010   74.2330 H       1  UNL11       0.0830
     69 C         -11.6030   16.0120   71.3920 C.ar    1  UNL11      -0.0750
     70 H         -11.3460   16.8910   73.3440 H       1  UNL11       0.0830
     71 H         -10.6620   16.4060   71.0060 H       1  UNL11       0.0840
     72 C          -8.6940   10.8960   68.2390 C.3     1  UNL11      -0.0390
     73 H          -9.2220   11.3670   67.4100 H       1  UNL11       0.0360
     74 H          -8.4400   11.4800   69.1240 H       1  UNL11       0.0360
     75 C          -7.3250   10.3050   67.6540 C.3     1  UNL11      -0.0010
     76 C          -6.1330   10.4340   68.7790 C.3     1  UNL11      -0.0350
     77 C          -5.0600   11.0360   68.2110 C.3     1  UNL11       0.0850
     78 H          -6.4310   11.1310   69.5610 H       1  UNL11       0.0360
     79 H          -5.7590    9.4440   69.0430 H       1  UNL11       0.0360
     80 N          -5.5260   11.6230   66.9000 N.4     1  UNL11      -0.0490
     81 H          -4.7890   11.8470   68.8880 H       1  UNL11       0.0750
     82 H          -4.3500   10.2340   68.0090 H       1  UNL11       0.0750
     83 C          -6.9570   10.9430   66.5920 C.3     1  UNL11       0.1930
     84 H          -5.6670   12.6100   67.0630 H       1  UNL11       0.2800
     85 H          -4.8660   11.3160   66.1990 H       1  UNL11       0.2800
     86 H          -7.0450   10.1530   65.8460 H       1  UNL11       0.1290
     87 H          -7.4630    9.3300   67.1860 H       1  UNL11       0.0460
     88 O          -7.9040   11.9400   66.2070 O.3     1  UNL11      -0.3690
     89 H          -7.4420   12.7520   65.9870 H       1  UNL11       0.2120
     90 C          -8.3090    4.9270   69.3840 C.3     1  UNL11      -0.0350
     91 H          -7.3850    4.4190   69.1050 H       1  UNL11       0.0370
     92 H          -8.3670    5.4740   70.3260 H       1  UNL11       0.0370
     93 C          -9.4170    3.8280   69.4430 C.3     1  UNL11      -0.0590
     94 H         -10.3830    4.3300   69.3970 H       1  UNL11       0.0380
     95 C          -9.3350    2.8430   68.2330 C.3     1  UNL11      -0.0730
     96 H          -8.3440    2.3890   68.2020 H       1  UNL11       0.0280
     97 H         -10.0890    2.0640   68.3470 H       1  UNL11       0.0280
     98 H          -9.5140    3.3890   67.3070 H       1  UNL11       0.0280
     99 C          -9.3630    3.0670   70.7700 C.3     1  UNL11      -0.0730
    100 H          -8.3930    2.5790   70.8690 H       1  UNL11       0.0280
    101 H          -9.5050    3.7660   71.5950 H       1  UNL11       0.0280
    102 H         -10.1520    2.3160   70.7900 H       1  UNL11       0.0280
@<TRIPOS>BOND
     1    14    13    1
     2    32    29    1
     3    17    16    2
     4    22    20    1
     5    13    29    1
     6    13    15    1
     7    13    10    1
     8    11    10    2
     9    29    30    1
    10    29    31    1
    11    16    15   am
    12    16    19    1
    13    26    25    1
    14    20    19   ar
    15    20    21   ar
    16    15    18    1
    17    10     9   am
    18    19    24   ar
    19    25    21    1
    20    25    28    1
    21    25    27    1
    22    21    23   ar
    23     8     7    1
    24    24    23   ar
    25     9    12    1
    26     9     7    1
    27    36    35    1
    28     7     4    1
    29     7    33    1
    30    37    35    1
    31     5     4    2
    32    86    83    1
    33    35    33    1
    34    35    38    1
    35    42    39    1
    36    89    88    1
    37    85    80    1
    38    88    83    1
    39     4     3   am
    40    33    39    1
    41    33    34    1
    42    83    80    1
    43    83    75    1
    44    39    40    1
    45    39    41    1
    46    80    84    1
    47    80    77    1
    48    46    45    1
    49    87    75    1
    50    98    95    1
    51    50    49    1
    52    56    55    2
    53    73    72    1
    54     3     6    1
    55     3     1    1
    56     2     1    1
    57    75    72    1
    58    75    76    1
    59    82    77    1
    60    45    47    1
    61    45    43   am
    62    96    95    1
    63    77    76    1
    64    77    81    1
    65    95    97    1
    66    95    93    1
    67    72    47    1
    68    72    74    1
    69     1    43    1
    70     1    90    1
    71    49    51    1
    72    49    47    1
    73    49    52    1
    74    55    57    1
    75    55    52    1
    76    60    58    1
    77    47    48    1
    78    59    58    1
    79    76    79    1
    80    76    78    1
    81    43    44    2
    82    91    90    1
    83    58    57    1
    84    58    61    1
    85    52    53    1
    86    52    54    1
    87    90    93    1
    88    90    92    1
    89    94    93    1
    90    93    99    1
    91    64    62    1
    92    61    62   ar
    93    61    69   ar
    94    99   102    1
    95    99   100    1
    96    99   101    1
    97    71    69    1
    98    62    63   ar
    99    69    67   ar
   100    63    66    1
   101    63    65   ar
   102    67    65   ar
   103    67    70    1
   104    65    68    1
@<TRIPOS>MOLECULE
crystal_redock_e8_er3_1.pdbqt
 102 104 0 0 0
SMALL
GASTEIGER

@<TRIPOS>ATOM
      1 C          -9.6620    6.4570   69.1000 C.3     1  UNL11       0.0890
      2 H         -10.5920    6.0060   68.7530 H       1  UNL11       0.0870
      3 N          -8.7340    6.4660   67.9790 N.am    1  UNL11      -0.3460
      4 C          -8.8260    5.4110   66.9060 C.2     1  UNL11       0.2410
      5 O          -9.6540    4.5630   66.9670 O.2     1  UNL11      -0.2710
      6 H          -8.0360    7.1950   67.9470 H       1  UNL11       0.1630
      7 C          -7.8610    5.4400   65.7500 C.3     1  UNL11       0.0920
      8 H          -8.1790    4.7160   64.9990 H       1  UNL11       0.0880
      9 N          -7.8930    6.7620   65.1180 N.am    1  UNL11      -0.3460
     10 C          -8.0950    6.8750   63.6940 C.2     1  UNL11       0.2400
     11 O          -8.2310    5.9130   63.0420 O.2     1  UNL11      -0.2710
     12 H          -7.7750    7.6010   65.6670 H       1  UNL11       0.1630
     13 C          -8.1250    8.2850   63.0270 C.3     1  UNL11       0.0860
     14 H          -8.5310    8.2650   62.0160 H       1  UNL11       0.0860
     15 N          -8.9910    9.1560   63.8040 N.am    1  UNL11      -0.3430
     16 C          -9.5060   10.3870   63.2000 C.2     1  UNL11       0.2730
     17 O          -9.2160   10.6690   62.0900 O.2     1  UNL11      -0.2660
     18 H          -9.2310    8.9100   64.7540 H       1  UNL11       0.1630
     19 C         -10.4230   11.3160   64.0100 C.ar    1  UNL11       0.1540
     20 C         -10.9890   12.5600   63.5830 C.ar    1  UNL11      -0.0170
     21 C         -11.7470   13.0120   64.6870 C.ar    1  UNL11       0.0770
     22 H         -10.8690   13.0570   62.6210 H       1  UNL11       0.0910
     23 O         -11.6250   12.1250   65.6300 O.2     1  UNL11      -0.2180
     24 N         -10.8570   11.1260   65.2600 N.ar    1  UNL11      -0.1230
     25 C         -12.5570   14.3000   64.7570 C.3     1  UNL11      -0.0290
     26 H         -13.0560   14.3640   65.7240 H       1  UNL11       0.0360
     27 H         -11.8920   15.1550   64.6340 H       1  UNL11       0.0360
     28 H         -13.3040   14.3040   63.9620 H       1  UNL11       0.0360
     29 C          -6.7290    8.8520   62.9800 C.3     1  UNL11      -0.0490
     30 H          -6.1300    8.2870   62.2660 H       1  UNL11       0.0300
     31 H          -6.7710    9.8970   62.6720 H       1  UNL11       0.0300
     32 H          -6.2760    8.7820   63.9690 H       1  UNL11       0.0300
     33 C          -6.4220    5.1510   66.2690 C.3     1  UNL11      -0.0330
     34 H          -6.1880    5.9010   67.0240 H       1  UNL11       0.0420
     35 C          -6.3350    3.7520   66.9550 C.3     1  UNL11      -0.0710
     36 H          -5.5880    3.1430   66.4460 H       1  UNL11       0.0280
     37 H          -6.0500    3.8770   68.0000 H       1  UNL11       0.0280
     38 H          -7.3060    3.2600   66.9000 H       1  UNL11       0.0280
     39 C          -5.3750    5.2820   65.1160 C.3     1  UNL11      -0.0710
     40 H          -4.5640    5.9360   65.4350 H       1  UNL11       0.0280
     41 H          -4.9740    4.2970   64.8760 H       1  UNL11       0.0280
     42 H          -5.8570    5.7030   64.2340 H       1  UNL11       0.0280
     43 C          -9.8660    7.9210   69.5870 C.2     1  UNL11       0.2400
     44 O         -10.0440    8.1400   70.7410 O.2     1  UNL11      -0.2710
     45 N          -9.8300    9.0500   68.6140 N.am    1  UNL11      -0.3550
     46 H          -9.6750    8.8760   67.6320 H       1  UNL11       0.1620
     47 C         -10.0240   10.4360   69.0930 C.3     1  UNL11       0.0130
     48 H          -9.7020   10.4790   70.1330 H       1  UNL11       0.0720
     49 C         -11.4880   10.8000   68.9900 C.3     1  UNL11      -0.0380
     50 H         -11.5710   11.4380   68.1100 H       1  UNL11       0.0360
     51 H         -12.0300    9.8550   69.0310 H       1  UNL11       0.0360
     52 C         -11.9820   11.6400   70.1880 C.3     1  UNL11       0.0180
     53 H         -13.0260   11.3590   70.3340 H       1  UNL11       0.0480
     54 H         -11.2570   11.4740   70.9840 H       1  UNL11       0.0480
     55 C         -11.9830   13.1700   69.9210 C.2     1  UNL11       0.2590
     56 O         -12.0890   13.9390   70.8210 O.2     1  UNL11      -0.2650
     57 O         -11.8690   13.6450   68.5850 O.3     1  UNL11      -0.3170
     58 C         -11.6070   15.0480   68.4860 C.3     1  UNL11       0.0520
     59 H         -12.2900   15.4220   67.7230 H       1  UNL11       0.0820
     60 H         -11.6660   15.4320   69.5050 H       1  UNL11       0.0820
     61 C         -10.1530   15.2290   67.9760 C.ar    1  UNL11      -0.0340
     62 C          -9.9200   15.6790   66.6800 C.ar    1  UNL11      -0.0750
     63 C          -8.6130   15.8410   66.2220 C.ar    1  UNL11      -0.0820
     64 H         -10.7610   15.9040   66.0240 H       1  UNL11       0.0840
     65 C          -7.5370   15.5490   67.0640 C.ar    1  UNL11      -0.0830
     66 H          -8.4340   16.1960   65.2070 H       1  UNL11       0.0830
     67 C          -7.7740   15.0980   68.3550 C.ar    1  UNL11      -0.0820
     68 H          -6.5120   15.6740   66.7140 H       1  UNL11       0.0830
     69 C          -9.0780   14.9360   68.8180 C.ar    1  UNL11      -0.0750
     70 H          -6.9320   14.8690   69.0090 H       1  UNL11       0.0830
     71 H          -9.2570   14.5820   69.8340 H       1  UNL11       0.0840
     72 C          -9.1980   11.3970   68.2410 C.3     1  UNL11      -0.0390
     73 H          -9.6940   11.4220   67.2700 H       1  UNL11       0.0360
     74 H          -9.1120   12.3080   68.8320 H       1  UNL11       0.0360
     75 C          -7.7130   10.8480   67.9990 C.3     1  UNL11      -0.0010
     76 C          -6.7460   11.2760   69.2580 C.3     1  UNL11      -0.0350
     77 C          -5.6320   11.8720   68.7700 C.3     1  UNL11       0.0850
     78 H          -7.2200   12.0630   69.8430 H       1  UNL11       0.0360
     79 H          -6.3610   10.3840   69.7540 H       1  UNL11       0.0360
     80 N          -5.8990   12.1840   67.3170 N.4     1  UNL11      -0.0490
     81 H          -5.5350   12.8070   69.3220 H       1  UNL11       0.0750
     82 H          -4.8470   11.1190   68.8330 H       1  UNL11       0.0750
     83 C          -7.2070   11.3290   66.9130 C.3     1  UNL11       0.1930
     84 H          -6.1290   13.1660   67.2730 H       1  UNL11       0.2800
     85 H          -5.1090   11.8270   66.7980 H       1  UNL11       0.2800
     86 H          -7.1130   10.4210   66.3180 H       1  UNL11       0.1290
     87 H          -7.7030    9.7990   67.7010 H       1  UNL11       0.0460
     88 O          -8.1350   12.1540   66.2060 O.3     1  UNL11      -0.3690
     89 H          -7.7630   12.3990   65.3560 H       1  UNL11       0.2120
     90 C          -9.0730    5.6220   70.2260 C.3     1  UNL11      -0.0350
     91 H          -8.1830    5.1550   69.8030 H       1  UNL11       0.0370
     92 H          -8.9820    6.3020   71.0730 H       1  UNL11       0.0370
     93 C         -10.0020    4.4560   70.6930 C.3     1  UNL11      -0.0590
     94 H         -10.9150    4.5030   70.1010 H       1  UNL11       0.0380
     95 C          -9.3530    3.0550   70.4570 C.3     1  UNL11      -0.0730
     96 H          -9.4370    2.4580   71.3650 H       1  UNL11       0.0280
     97 H          -9.8680    2.5490   69.6400 H       1  UNL11       0.0280
     98 H          -8.3010    3.1800   70.2010 H       1  UNL11       0.0280
     99 C         -10.4020    4.6310   72.1600 C.3     1  UNL11      -0.0730
    100 H          -9.6020    5.1420   72.6970 H       1  UNL11       0.0280
    101 H         -11.3150    5.2230   72.2190 H       1  UNL11       0.0280
    102 H         -10.5740    3.6530   72.6090 H       1  UNL11       0.0280
@<TRIPOS>BOND
     1    14    13    1
     2    17    16    2
     3    30    29    1
     4    22    20    1
     5    31    29    1
     6    29    13    1
     7    29    32    1
     8    13    10    1
     9    13    15    1
    10    11    10    2
    11    16    15   am
    12    16    19    1
    13    20    19   ar
    14    20    21   ar
    15    10     9   am
    16    15    18    1
    17    28    25    1
    18    19    24   ar
    19    42    39    1
    20    27    25    1
    21    21    25    1
    22    21    23   ar
    23    25    26    1
    24    41    39    1
    25     8     7    1
    26    39    40    1
    27    39    33    1
    28     9    12    1
    29     9     7    1
    30    66    63    1
    31    24    23   ar
    32    89    88    1
    33     7    33    1
    34     7     4    1
    35    64    62    1
    36    88    83    1
    37    63    62   ar
    38    63    65   ar
    39    33    35    1
    40    33    34    1
    41    86    83    1
    42    36    35    1
    43    62    61   ar
    44    68    65    1
    45    85    80    1
    46    38    35    1
    47     4     5    2
    48     4     3   am
    49    83    80    1
    50    83    75    1
    51    35    37    1
    52    65    67   ar
    53    73    72    1
    54    84    80    1
    55    80    77    1
    56    46    45    1
    57    87    75    1
    58    59    58    1
    59     6     3    1
    60    61    58    1
    61    61    69   ar
    62     3     1    1
    63    75    72    1
    64    75    76    1
    65    50    49    1
    66    72    74    1
    67    72    47    1
    68    67    69   ar
    69    67    70    1
    70    58    57    1
    71    58    60    1
    72    57    55    1
    73    45    47    1
    74    45    43   am
    75     2     1    1
    76    77    82    1
    77    77    76    1
    78    77    81    1
    79    69    71    1
    80    49    51    1
    81    49    47    1
    82    49    52    1
    83    47    48    1
    84     1    43    1
    85     1    90    1
    86    76    79    1
    87    76    78    1
    88    43    44    2
    89    97    95    1
    90    91    90    1
    91    55    52    1
    92    55    56    2
    93    94    93    1
    94    52    53    1
    95    52    54    1
    96    98    95    1
    97    90    93    1
    98    90    92    1
    99    95    93    1
   100    95    96    1
   101    93    99    1
   102    99   101    1
   103    99   102    1
   104    99   100    1
@<TRIPOS>MOLECULE
crystal_redock_e8_er3_1.pdbqt
 102 104 0 0 0
SMALL
GASTEIGER

@<TRIPOS>ATOM
      1 C          -8.9870    5.2690   66.4870 C.3     1  UNL11       0.0890
      2 H          -9.4860    4.4910   65.9080 H       1  UNL11       0.0870
      3 N          -8.2010    6.0690   65.5590 N.am    1  UNL11      -0.3460
      4 C          -7.3650    7.2180   66.0630 C.2     1  UNL11       0.2410
      5 O          -7.3420    7.4810   67.2200 O.2     1  UNL11      -0.2710
      6 H          -8.2360    5.8290   64.5780 H       1  UNL11       0.1630
      7 C          -6.5530    8.0310   65.0890 C.3     1  UNL11       0.0920
      8 H          -6.3150    7.4170   64.2200 H       1  UNL11       0.0880
      9 N          -7.3510    9.1650   64.6140 N.am    1  UNL11      -0.3460
     10 C          -8.1890    9.0180   63.4490 C.2     1  UNL11       0.2400
     11 O          -8.2310    7.9950   62.8810 O.2     1  UNL11      -0.2710
     12 H          -7.3240   10.0540   65.0920 H       1  UNL11       0.1630
     13 C          -9.0340   10.2290   62.9460 C.3     1  UNL11       0.0860
     14 H          -9.9710    9.9240   62.4780 H       1  UNL11       0.0860
     15 N          -9.3890   11.0610   64.0840 N.am    1  UNL11      -0.3430
     16 C         -10.6890   11.7340   64.1070 C.2     1  UNL11       0.2730
     17 O         -11.4420   11.6020   63.2050 O.2     1  UNL11      -0.2660
     18 H          -8.7390   11.1710   64.8490 H       1  UNL11       0.1630
     19 C         -11.0780   12.6160   65.3040 C.ar    1  UNL11       0.1540
     20 C         -10.6380   13.9510   65.5740 C.ar    1  UNL11      -0.0170
     21 C         -11.2790   14.3070   66.7820 C.ar    1  UNL11       0.0770
     22 H          -9.9590   14.5660   64.9840 H       1  UNL11       0.0910
     23 O         -12.0000   13.2900   67.1530 O.2     1  UNL11      -0.2180
     24 N         -11.8990   12.2910   66.3070 N.ar    1  UNL11      -0.1230
     25 C         -11.1490   15.6370   67.5130 C.3     1  UNL11      -0.0290
     26 H         -10.3550   16.2280   67.0540 H       1  UNL11       0.0360
     27 H         -12.0910   16.1810   67.4470 H       1  UNL11       0.0360
     28 H         -10.9070   15.4550   68.5600 H       1  UNL11       0.0360
     29 C          -8.2310   11.0280   61.9520 C.3     1  UNL11      -0.0490
     30 H          -8.5140   10.7400   60.9400 H       1  UNL11       0.0300
     31 H          -8.4270   12.0900   62.0960 H       1  UNL11       0.0300
     32 H          -7.1690   10.8310   62.1010 H       1  UNL11       0.0300
     33 C          -5.2730    8.5630   65.7980 C.3     1  UNL11      -0.0330
     34 H          -5.2890    8.1950   66.8240 H       1  UNL11       0.0420
     35 C          -3.9780    8.0120   65.1230 C.3     1  UNL11      -0.0710
     36 H          -3.8260    8.5140   64.1670 H       1  UNL11       0.0280
     37 H          -3.1230    8.1990   65.7710 H       1  UNL11       0.0280
     38 H          -4.0830    6.9400   64.9580 H       1  UNL11       0.0280
     39 C          -5.2670   10.1240   65.8450 C.3     1  UNL11      -0.0710
     40 H          -4.2410   10.4820   65.9220 H       1  UNL11       0.0280
     41 H          -5.7210   10.5170   64.9350 H       1  UNL11       0.0280
     42 H          -5.8360   10.4640   66.7100 H       1  UNL11       0.0280
     43 C          -9.9990    6.2030   67.2110 C.2     1  UNL11       0.2400
     44 O         -10.8790    6.7120   66.5950 O.2     1  UNL11      -0.2710
     45 N          -9.8760    6.4550   68.6750 N.am    1  UNL11      -0.3550
     46 H          -9.1360    6.0250   69.2100 H       1  UNL11       0.1620
     47 C         -10.8470    7.3440   69.3490 C.3     1  UNL11       0.0130
     48 H         -11.7170    7.4450   68.7000 H       1  UNL11       0.0720
     49 C         -10.2120    8.6980   69.5750 C.3     1  UNL11      -0.0380
     50 H         -10.1400    8.8130   70.6570 H       1  UNL11       0.0360
     51 H          -9.3090    8.7040   68.9640 H       1  UNL11       0.0360
     52 C         -11.0900    9.8630   69.0690 C.3     1  UNL11       0.0180
     53 H         -10.3950   10.6530   68.7810 H       1  UNL11       0.0480
     54 H         -11.7590    9.4280   68.3270 H       1  UNL11       0.0480
     55 C         -12.0060   10.4780   70.1630 C.2     1  UNL11       0.2590
     56 O         -12.6550    9.7770   70.8700 O.2     1  UNL11      -0.2650
     57 O         -12.0710   11.8920   70.3040 O.3     1  UNL11      -0.3170
     58 C         -13.0830   12.3410   71.2100 C.3     1  UNL11       0.0520
     59 H         -13.9970   12.4110   70.6200 H       1  UNL11       0.0820
     60 H         -13.0360   11.6660   72.0630 H       1  UNL11       0.0820
     61 C         -12.6980   13.7660   71.6890 C.ar    1  UNL11      -0.0340
     62 C         -11.9390   14.5960   70.8700 C.ar    1  UNL11      -0.0750
     63 C         -11.5930   15.8760   71.3010 C.ar    1  UNL11      -0.0820
     64 H         -11.6160   14.2430   69.8900 H       1  UNL11       0.0840
     65 C         -12.0070   16.3250   72.5580 C.ar    1  UNL11      -0.0830
     66 H         -11.0010   16.5240   70.6550 H       1  UNL11       0.0830
     67 C         -12.7620   15.4920   73.3730 C.ar    1  UNL11      -0.0820
     68 H         -11.7420   17.3240   72.9020 H       1  UNL11       0.0830
     69 C         -13.1120   14.2130   72.9460 C.ar    1  UNL11      -0.0750
     70 H         -13.0820   15.8440   74.3540 H       1  UNL11       0.0830
     71 H         -13.7050   13.5650   73.5910 H       1  UNL11       0.0840
     72 C         -11.2530    6.7410   70.6920 C.3     1  UNL11      -0.0390
     73 H         -12.2080    7.2050   70.9420 H       1  UNL11       0.0360
     74 H         -11.1920    5.6620   70.5560 H       1  UNL11       0.0360
     75 C         -10.2210    7.1310   71.8540 C.3     1  UNL11      -0.0010
     76 C          -9.3370    5.8130   72.2830 C.3     1  UNL11      -0.0350
     77 C          -9.3950    5.6670   73.6280 C.3     1  UNL11       0.0850
     78 H          -9.8110    4.9060   71.9070 H       1  UNL11       0.0360
     79 H          -8.2790    5.9930   72.0920 H       1  UNL11       0.0360
     80 N         -10.5010    6.5680   74.1220 N.4     1  UNL11      -0.0490
     81 H          -9.6820    4.6280   73.7970 H       1  UNL11       0.0750
     82 H          -8.4420    6.0370   74.0030 H       1  UNL11       0.0750
     83 C         -10.8380    7.5680   72.9000 C.3     1  UNL11       0.1930
     84 H         -11.3030    5.9760   74.2830 H       1  UNL11       0.2800
     85 H         -10.1120    7.1090   74.8820 H       1  UNL11       0.2800
     86 H         -10.4900    8.6010   72.9180 H       1  UNL11       0.1290
     87 H          -9.6710    8.0450   71.6280 H       1  UNL11       0.0460
     88 O         -12.2510    7.6440   72.7010 O.3     1  UNL11      -0.3690
     89 H         -12.7000    7.4850   73.5340 H       1  UNL11       0.2120
     90 C          -8.0560    4.6350   67.5070 C.3     1  UNL11      -0.0350
     91 H          -7.0580    4.9860   67.2450 H       1  UNL11       0.0370
     92 H          -8.4820    4.8820   68.4800 H       1  UNL11       0.0370
     93 C          -8.0100    3.0760   67.4290 C.3     1  UNL11      -0.0590
     94 H          -7.7910    2.8030   66.3970 H       1  UNL11       0.0380
     95 C          -6.8830    2.4740   68.3290 C.3     1  UNL11      -0.0730
     96 H          -7.2030    1.5050   68.7110 H       1  UNL11       0.0280
     97 H          -5.9740    2.3510   67.7400 H       1  UNL11       0.0280
     98 H          -6.6870    3.1470   69.1640 H       1  UNL11       0.0280
     99 C          -9.3710    2.4700   67.7820 C.3     1  UNL11      -0.0730
    100 H          -9.6100    2.6940   68.8220 H       1  UNL11       0.0280
    101 H         -10.1370    2.8960   67.1330 H       1  UNL11       0.0280
    102 H          -9.3350    1.3900   67.6410 H       1  UNL11       0.0280
@<TRIPOS>BOND
     1    30    29    1
     2    29    31    1
     3    29    32    1
     4    29    13    1
     5    14    13    1
     6    11    10    2
     7    13    10    1
     8    13    15    1
     9    17    16    2
    10    10     9   am
    11    15    16   am
    12    15    18    1
    13    16    19    1
    14    36    35    1
    15     8     7    1
    16     6     3    1
    17     9     7    1
    18     9    12    1
    19    41    39    1
    20    38    35    1
    21    22    20    1
    22     7    33    1
    23     7     4    1
    24    35    37    1
    25    35    33    1
    26    19    20   ar
    27    19    24   ar
    28     3     4   am
    29     3     1    1
    30    20    21   ar
    31    33    39    1
    32    33    34    1
    33    39    40    1
    34    39    42    1
    35     2     1    1
    36     4     5    2
    37    24    23   ar
    38    94    93    1
    39     1    43    1
    40     1    90    1
    41    44    43    2
    42    21    23   ar
    43    21    25    1
    44    26    25    1
    45   101    99    1
    46    43    45   am
    47    91    90    1
    48    93    90    1
    49    93    99    1
    50    93    95    1
    51    27    25    1
    52    90    92    1
    53    25    28    1
    54   102    99    1
    55    97    95    1
    56    99   100    1
    57    54    52    1
    58    95    96    1
    59    95    98    1
    60    45    46    1
    61    45    47    1
    62    48    47    1
    63    53    52    1
    64    51    49    1
    65    52    49    1
    66    52    55    1
    67    47    49    1
    68    47    72    1
    69    49    50    1
    70    64    62    1
    71    55    57    1
    72    55    56    2
    73    57    58    1
    74    74    72    1
    75    59    58    1
    76    66    63    1
    77    72    73    1
    78    72    75    1
    79    62    63   ar
    80    62    61   ar
    81    58    61    1
    82    58    60    1
    83    63    65   ar
    84    87    75    1
    85    61    69   ar
    86    75    76    1
    87    75    83    1
    88    78    76    1
    89    79    76    1
    90    76    77    1
    91    65    68    1
    92    65    67   ar
    93    88    83    1
    94    88    89    1
    95    83    86    1
    96    83    80    1
    97    69    67   ar
    98    69    71    1
    99    67    70    1
   100    77    81    1
   101    77    82    1
   102    77    80    1
   103    80    84    1
   104    80    85    1
@<TRIPOS>MOLECULE
crystal_redock_e8_er3_1.pdbqt
 102 104 0 0 0
SMALL
GASTEIGER

@<TRIPOS>ATOM
      1 C          -6.8130    9.7180   64.5230 C.3     1  UNL11       0.0890
      2 H          -6.3340   10.0830   63.6140 H       1  UNL11       0.0870
      3 N          -6.0010   10.1520   65.6510 N.am    1  UNL11      -0.3460
      4 C          -4.7900   11.0220   65.4280 C.2     1  UNL11       0.2410
      5 O          -4.4870   11.3580   64.3310 O.2     1  UNL11      -0.2710
      6 H          -6.2750    9.8520   66.5760 H       1  UNL11       0.1630
      7 C          -3.9650   11.4660   66.6070 C.3     1  UNL11       0.0920
      8 H          -3.2460   12.2170   66.2790 H       1  UNL11       0.0880
      9 N          -4.8340   12.1040   67.6000 N.am    1  UNL11      -0.3460
     10 C          -4.7570   13.5280   67.8160 C.2     1  UNL11       0.2400
     11 O          -4.0000   14.1750   67.2010 O.2     1  UNL11      -0.2710
     12 H          -5.4910   11.5590   68.1390 H       1  UNL11       0.1630
     13 C          -5.6830   14.2010   68.8770 C.3     1  UNL11       0.0860
     14 H          -5.1440   14.8820   69.5350 H       1  UNL11       0.0860
     15 N          -6.6880   14.9950   68.1890 N.am    1  UNL11      -0.3430
     16 C          -6.5430   16.4510   68.1360 C.2     1  UNL11       0.2730
     17 O          -5.6170   16.9750   68.6510 O.2     1  UNL11      -0.2660
     18 H          -7.4770   14.5400   67.7540 H       1  UNL11       0.1630
     19 C          -7.5970   17.3030   67.4110 C.ar    1  UNL11       0.1540
     20 C          -8.6020   18.1290   68.0090 C.ar    1  UNL11      -0.0170
     21 C          -9.3040   18.6920   66.9200 C.ar    1  UNL11       0.0770
     22 H          -8.7910   18.2940   69.0690 H       1  UNL11       0.0910
     23 O          -8.7590   18.2380   65.8300 O.2     1  UNL11      -0.2180
     24 N          -7.7600   17.4250   66.0910 N.ar    1  UNL11      -0.1230
     25 C         -10.4820   19.6530   67.0080 C.3     1  UNL11      -0.0290
     26 H         -11.3960   19.1370   66.7120 H       1  UNL11       0.0360
     27 H         -10.5830   20.0120   68.0320 H       1  UNL11       0.0360
     28 H         -10.3110   20.5000   66.3420 H       1  UNL11       0.0360
     29 C          -6.3480   13.1380   69.7130 C.3     1  UNL11      -0.0490
     30 H          -7.3360   13.4830   70.0210 H       1  UNL11       0.0300
     31 H          -6.4490   12.2240   69.1280 H       1  UNL11       0.0300
     32 H          -5.7420   12.9390   70.5970 H       1  UNL11       0.0300
     33 C          -3.2700   10.2300   67.2480 C.3     1  UNL11      -0.0330
     34 H          -2.3180   10.5650   67.6610 H       1  UNL11       0.0420
     35 C          -4.1140    9.6500   68.4260 C.3     1  UNL11      -0.0710
     36 H          -4.8210   10.4050   68.7710 H       1  UNL11       0.0280
     37 H          -4.6590    8.7710   68.0840 H       1  UNL11       0.0280
     38 H          -3.4510    9.3710   69.2450 H       1  UNL11       0.0280
     39 C          -2.9710    9.1360   66.1730 C.3     1  UNL11      -0.0710
     40 H          -2.0700    9.4030   65.6230 H       1  UNL11       0.0280
     41 H          -2.8240    8.1740   66.6650 H       1  UNL11       0.0280
     42 H          -3.8120    9.0660   65.4830 H       1  UNL11       0.0280
     43 C          -8.2500   10.2870   64.6990 C.2     1  UNL11       0.2400
     44 O          -9.0840   10.0470   63.8880 O.2     1  UNL11      -0.2710
     45 N          -8.5880   11.1250   65.8850 N.am    1  UNL11      -0.3550
     46 H          -7.8890   11.3320   66.5830 H       1  UNL11       0.1620
     47 C          -9.9590   11.6580   66.0380 C.3     1  UNL11       0.0130
     48 H         -10.3480   11.8750   65.0430 H       1  UNL11       0.0720
     49 C          -9.9140   12.9240   66.8630 C.3     1  UNL11      -0.0380
     50 H          -9.6260   12.6120   67.8670 H       1  UNL11       0.0360
     51 H          -9.2820   13.6160   66.3050 H       1  UNL11       0.0360
     52 C         -11.2940   13.6030   66.9950 C.3     1  UNL11       0.0180
     53 H         -11.8290   13.3670   66.0750 H       1  UNL11       0.0480
     54 H         -11.6930   13.2770   67.9560 H       1  UNL11       0.0480
     55 C         -11.2250   15.1540   67.0650 C.2     1  UNL11       0.2590
     56 O         -10.8840   15.7860   66.1180 O.2     1  UNL11      -0.2650
     57 O         -11.5630   15.8130   68.2790 O.3     1  UNL11      -0.3170
     58 C         -10.7740   15.4060   69.4010 C.3     1  UNL11       0.0520
     59 H         -10.2220   14.5270   69.0700 H       1  UNL11       0.0820
     60 H         -10.2370   16.2980   69.7230 H       1  UNL11       0.0820
     61 C         -11.7420   14.9800   70.5370 C.ar    1  UNL11      -0.0340
     62 C         -12.2380   13.6810   70.5790 C.ar    1  UNL11      -0.0750
     63 C         -13.1070   13.2970   71.5990 C.ar    1  UNL11      -0.0820
     64 H         -11.9450   12.9630   69.8130 H       1  UNL11       0.0840
     65 C         -13.4820   14.2200   72.5800 C.ar    1  UNL11      -0.0830
     66 H         -13.4920   12.2780   71.6310 H       1  UNL11       0.0830
     67 C         -12.9870   15.5160   72.5320 C.ar    1  UNL11      -0.0820
     68 H         -14.1610   13.9290   73.3810 H       1  UNL11       0.0830
     69 C         -12.1170   15.9030   71.5150 C.ar    1  UNL11      -0.0750
     70 H         -13.2840   16.2340   73.2970 H       1  UNL11       0.0830
     71 H         -11.7320   16.9230   71.4860 H       1  UNL11       0.0840
     72 C         -10.8390   10.6250   66.7380 C.3     1  UNL11      -0.0390
     73 H         -11.7710   11.1430   66.9640 H       1  UNL11       0.0360
     74 H         -10.8450    9.7560   66.0800 H       1  UNL11       0.0360
     75 C         -10.2080   10.1560   68.1340 C.3     1  UNL11      -0.0010
     76 C          -9.6110    8.6300   67.9950 C.3     1  UNL11      -0.0350
     77 C         -10.1090    7.8740   69.0020 C.3     1  UNL11       0.0850
     78 H         -10.0070    8.1550   67.0980 H       1  UNL11       0.0360
     79 H          -8.5370    8.6300   68.1830 H       1  UNL11       0.0360
     80 N         -11.2430    8.6540   69.6210 N.4     1  UNL11      -0.0490
     81 H         -10.5130    6.9800   68.5230 H       1  UNL11       0.0750
     82 H          -9.3010    7.7860   69.7270 H       1  UNL11       0.0750
     83 C         -11.0930   10.1650   69.0740 C.3     1  UNL11       0.1930
     84 H         -12.0970    8.2610   69.2510 H       1  UNL11       0.2800
     85 H         -11.0790    8.6560   70.6180 H       1  UNL11       0.2800
     86 H         -10.6920   10.9500   69.7160 H       1  UNL11       0.1290
     87 H          -9.5470   10.9100   68.5620 H       1  UNL11       0.0460
     88 O         -12.3570   10.6530   68.6190 O.3     1  UNL11      -0.3690
     89 H         -12.2970   10.8770   67.6880 H       1  UNL11       0.2120
     90 C          -6.8640    8.1990   64.5040 C.3     1  UNL11      -0.0350
     91 H          -6.2210    7.8780   65.3240 H       1  UNL11       0.0370
     92 H          -7.9240    7.9450   64.5120 H       1  UNL11       0.0370
     93 C          -6.2690    7.5680   63.2050 C.3     1  UNL11      -0.0590
     94 H          -7.0840    7.4520   62.4900 H       1  UNL11       0.0380
     95 C          -5.1860    8.4830   62.5480 C.3     1  UNL11      -0.0730
     96 H          -5.1910    8.3330   61.4680 H       1  UNL11       0.0280
     97 H          -5.4100    9.5270   62.7700 H       1  UNL11       0.0280
     98 H          -4.2050    8.2290   62.9470 H       1  UNL11       0.0280
     99 C          -5.7060    6.1720   63.4830 C.3     1  UNL11      -0.0730
    100 H          -5.8890    5.9070   64.5240 H       1  UNL11       0.0280
    101 H          -6.1940    5.4470   62.8310 H       1  UNL11       0.0280
    102 H          -4.6330    6.1680   63.2900 H       1  UNL11       0.0280
@<TRIPOS>BOND
     1    96    95    1
     2    94    93    1
     3    95    97    1
     4    95    98    1
     5    95    93    1
     6   101    99    1
     7    93    99    1
     8    93    90    1
     9   102    99    1
    10    99   100    1
    11     2     1    1
    12    44    43    2
    13     5     4    2
    14    90    92    1
    15    90     1    1
    16    90    91    1
    17     1    43    1
    18     1     3    1
    19    43    45   am
    20    48    47    1
    21     4     3   am
    22     4     7    1
    23    42    39    1
    24    40    39    1
    25     3     6    1
    26    23    24   ar
    27    23    21   ar
    28    45    47    1
    29    45    46    1
    30    47    72    1
    31    47    49    1
    32    53    52    1
    33    74    72    1
    34    24    19   ar
    35    56    55    2
    36    39    41    1
    37    39    33    1
    38     8     7    1
    39    51    49    1
    40    28    25    1
    41     7    33    1
    42     7     9    1
    43    26    25    1
    44    72    73    1
    45    72    75    1
    46    49    52    1
    47    49    50    1
    48    21    25    1
    49    21    20   ar
    50    52    55    1
    51    52    54    1
    52    25    27    1
    53    55    57    1
    54    78    76    1
    55    11    10    2
    56    33    34    1
    57    33    35    1
    58    19    20   ar
    59    19    16    1
    60     9    10   am
    61     9    12    1
    62    89    88    1
    63    18    15    1
    64    10    13    1
    65    76    75    1
    66    76    79    1
    67    76    77    1
    68    20    22    1
    69    37    35    1
    70    75    87    1
    71    75    83    1
    72    16    15   am
    73    16    17    2
    74    15    13    1
    75    57    58    1
    76    35    36    1
    77    35    38    1
    78    81    77    1
    79    88    83    1
    80    13    14    1
    81    13    29    1
    82    77    80    1
    83    77    82    1
    84    59    58    1
    85    83    80    1
    86    83    86    1
    87    31    29    1
    88    84    80    1
    89    58    60    1
    90    58    61    1
    91    80    85    1
    92    29    30    1
    93    29    32    1
    94    64    62    1
    95    61    62   ar
    96    61    69   ar
    97    62    63   ar
    98    71    69    1
    99    69    67   ar
   100    63    66    1
   101    63    65   ar
   102    67    65   ar
   103    67    70    1
   104    65    68    1
