MODEL 0
REMARK  26 active torsions:
REMARK  status: ('A' for Active; 'I' for Inactive)
REMARK    1  A    between atoms: C2_2  and  C3_3 
REMARK    2  A    between atoms: C4_6  and  C5_7 
REMARK       I    between atoms: C5_7  and  N2_9 
REMARK    3  A    between atoms: N2_9  and  C6_10 
REMARK    4  A    between atoms: C6_10  and  C7_11 
REMARK    5  A    between atoms: C6_10  and  C8_13 
REMARK       I    between atoms: C7_11  and  N3_14 
REMARK    6  A    between atoms: N3_14  and  C9_15 
REMARK    7  A    between atoms: C9_15  and  C10_16 
REMARK    8  A    between atoms: C9_15  and  C11_18 
REMARK       I    between atoms: C10_16  and  N4_21 
REMARK    9  A    between atoms: C11_18  and  C12_19 
REMARK   10  A    between atoms: C11_18  and  C13_20 
REMARK   11  A    between atoms: N4_21  and  C14_22 
REMARK   12  A    between atoms: C14_22  and  C15_23 
REMARK   13  A    between atoms: C14_22  and  C16_25 
REMARK       I    between atoms: C15_23  and  N6_40 
REMARK   14  A    between atoms: C16_25  and  C17_26 
REMARK   15  A    between atoms: C17_26  and  C18_27 
REMARK   16  A    between atoms: C17_26  and  C19_28 
REMARK   17  A    between atoms: C20_29  and  C21_30 
REMARK   18  A    between atoms: C20_29  and  C24_33 
REMARK   19  A    between atoms: C20_29  and  N6_40 
REMARK   20  A    between atoms: C21_30  and  C22_31 
REMARK   21  A    between atoms: C22_31  and  C23_32 
REMARK   22  A    between atoms: C23_32  and  O8_43 
REMARK   23  A    between atoms: C24_33  and  C25_34 
REMARK   24  A    between atoms: C28_38  and  O6_39 
REMARK   25  A    between atoms: C29_42  and  O8_43 
REMARK   26  A    between atoms: C29_42  and  C35_49 
ROOT
ATOM      1  C14 non d ame     -12.124  14.096  69.716  0.00  0.00     0.089 C 
ATOM      2  H20 non d ame     -13.195  13.893  69.691  0.00  0.00     0.087 H 
ENDROOT
BRANCH   1   3
ATOM      3  N4  non d ame     -11.452  12.859  70.085  0.00  0.00    -0.346 N 
ATOM      4  C10 non d ame     -11.663  11.606  69.273  0.00  0.00     0.241 C 
ATOM      5  O4  non d ame     -12.381  11.617  68.328  0.00  0.00    -0.271 OA
ATOM      6  H19 non d ame     -10.847  12.870  70.894  0.00  0.00     0.163 HD
BRANCH   4   7
ATOM      7  C9  non d ame     -10.955  10.336  69.666  0.00  0.00     0.092 C 
ATOM      8  H11 non d ame     -10.419  10.499  70.601  0.00  0.00     0.088 H 
BRANCH   7   9
ATOM      9  N3  non d ame     -11.943   9.281  69.911  0.00  0.00    -0.346 N 
ATOM     10  C7  non d ame     -12.115   8.750  71.241  0.00  0.00     0.240 C 
ATOM     11  O3  non d ame     -11.466   9.159  72.125  0.00  0.00    -0.271 OA
ATOM     12  H10 non d ame     -12.509   8.917  69.158  0.00  0.00     0.163 HD
BRANCH  10  13
ATOM     13  C6  non d ame     -13.166   7.625  71.495  0.00  0.00     0.086 C 
ATOM     14  H6  non d ame     -13.457   7.106  70.582  0.00  0.00     0.086 H 
BRANCH  13  15
ATOM     15  N2  non d ame     -12.583   6.625  72.374  0.00  0.00    -0.343 N 
ATOM     16  C5  non d ame     -11.475   5.798  71.891  0.00  0.00     0.273 C 
ATOM     17  O2  non d ame     -11.062   5.943  70.793  0.00  0.00    -0.266 OA
ATOM     18  H5  non d ame     -12.944   6.506  73.310  0.00  0.00     0.163 HD
BRANCH  16  19
ATOM     19  C4  non d ame     -10.848   4.738  72.810  0.00  0.00     0.154 A 
ATOM     20  C1  non d ame     -10.425   3.420  72.447  0.00  0.00    -0.017 A 
ATOM     21  C2  non d ame      -9.924   2.857  73.642  0.00  0.00     0.077 A 
ATOM     22  H1  non d ame     -10.474   2.945  71.467  0.00  0.00     0.091 H 
ATOM     23  O1  non d ame     -10.048   3.755  74.575  0.00  0.00    -0.218 OA
ATOM     24  N1  non d ame     -10.585   4.861  74.114  0.00  0.00    -0.123 NA
BRANCH  21  25
ATOM     25  C3  non d ame      -9.345   1.458  73.806  0.00  0.00    -0.029 C 
ATOM     26  H2  non d ame      -9.249   1.226  74.867  0.00  0.00     0.036 H 
ATOM     27  H3  non d ame     -10.008   0.733  73.334  0.00  0.00     0.036 H 
ATOM     28  H4  non d ame      -8.363   1.413  73.334  0.00  0.00     0.036 H 
ENDBRANCH  21  25
ENDBRANCH  16  19
ENDBRANCH  13  15
BRANCH  13  29
ATOM     29  C8  non d ame     -14.397   8.218  72.132  0.00  0.00    -0.049 C 
ATOM     30  H7  non d ame     -14.303   8.172  73.217  0.00  0.00     0.030 H 
ATOM     31  H8  non d ame     -14.503   9.257  71.820  0.00  0.00     0.030 H 
ATOM     32  H9  non d ame     -15.275   7.653  71.820  0.00  0.00     0.030 H 
ENDBRANCH  13  29
ENDBRANCH  10  13
ENDBRANCH   7   9
BRANCH   7  33
ATOM     33  C11 non d ame     -10.004   9.895  68.515  0.00  0.00    -0.033 C 
ATOM     34  H12 non d ame     -10.626   9.570  67.681  0.00  0.00     0.042 H 
BRANCH  33  35
ATOM     35  C12 non d ame      -9.130  11.086  68.012  0.00  0.00    -0.071 C 
ATOM     36  H13 non d ame      -8.730  11.630  68.868  0.00  0.00     0.028 H 
ATOM     37  H14 non d ame      -8.307  10.703  67.409  0.00  0.00     0.028 H 
ATOM     38  H15 non d ame      -9.742  11.756  67.409  0.00  0.00     0.028 H 
ENDBRANCH  33  35
BRANCH  33  39
ATOM     39  C13 non d ame      -9.116   8.687  68.955  0.00  0.00    -0.071 C 
ATOM     40  H16 non d ame      -9.081   8.639  70.043  0.00  0.00     0.028 H 
ATOM     41  H17 non d ame      -9.541   7.762  68.564  0.00  0.00     0.028 H 
ATOM     42  H18 non d ame      -8.107   8.817  68.564  0.00  0.00     0.028 H 
ENDBRANCH  33  39
ENDBRANCH   7  33
ENDBRANCH   4   7
ENDBRANCH   1   3
BRANCH   1  43
ATOM     43  C15 non d ame     -11.582  14.561  68.334  0.00  0.00     0.240 C 
ATOM     44  O5  non d ame     -10.411  14.570  68.131  0.00  0.00    -0.271 OA
ATOM     45  N6  non d ame     -12.524  14.987  67.260  0.00  0.00    -0.355 N 
ATOM     46  H46 non d ame     -13.521  14.979  67.419  0.00  0.00     0.162 HD
BRANCH  45  47
ATOM     47  C20 non d ame     -11.993  15.425  65.951  0.00  0.00     0.013 C 
ATOM     48  H30 non d ame     -10.905  15.430  66.015  0.00  0.00     0.072 H 
BRANCH  47  49
ATOM     49  C21 non d ame     -12.499  16.817  65.647  0.00  0.00    -0.038 C 
ATOM     50  H31 non d ame     -13.115  16.718  64.753  0.00  0.00     0.036 H 
ATOM     51  H32 non d ame     -12.940  17.179  66.576  0.00  0.00     0.036 H 
BRANCH  49  52
ATOM     52  C22 non d ame     -11.365  17.802  65.289  0.00  0.00     0.018 C 
ATOM     53  H33 non d ame     -10.973  17.465  64.329  0.00  0.00     0.048 H 
ATOM     54  H34 non d ame     -11.799  18.798  65.381  0.00  0.00     0.048 H 
BRANCH  52  55
ATOM     55  C23 non d ame     -10.167  17.764  66.278  0.00  0.00     0.259 C 
ATOM     56  O7  non d ame     -10.354  17.731  67.451  0.00  0.00    -0.265 OA
BRANCH  55  57
ATOM     57  O8  non d ame      -8.840  17.782  65.766  0.00  0.00    -0.317 OA
BRANCH  57  58
ATOM     58  C29 non d ame      -7.830  17.582  66.759  0.00  0.00     0.052 C 
ATOM     59  H47 non d ame      -8.364  17.344  67.679  0.00  0.00     0.082 H 
ATOM     60  H48 non d ame      -7.134  16.861  66.331  0.00  0.00     0.082 H 
BRANCH  58  61
ATOM     61  C35 non d ame      -7.082  18.927  66.959  0.00  0.00    -0.034 A 
ATOM     62  C30 non d ame      -5.739  18.930  67.322  0.00  0.00    -0.075 A 
ATOM     63  C31 non d ame      -5.067  20.138  67.502  0.00  0.00    -0.082 A 
ATOM     64  H49 non d ame      -5.213  17.986  67.465  0.00  0.00     0.084 H 
ATOM     65  C32 non d ame      -5.744  21.347  67.320  0.00  0.00    -0.083 A 
ATOM     66  H50 non d ame      -4.014  20.137  67.784  0.00  0.00     0.083 H 
ATOM     67  C33 non d ame      -7.085  21.339  66.961  0.00  0.00    -0.082 A 
ATOM     68  H51 non d ame      -5.226  22.296  67.458  0.00  0.00     0.083 H 
ATOM     69  C34 non d ame      -7.760  20.134  66.778  0.00  0.00    -0.075 A 
ATOM     70  H52 non d ame      -7.611  22.284  66.822  0.00  0.00     0.083 H 
ATOM     71  H53 non d ame      -8.813  20.136  66.495  0.00  0.00     0.084 H 
ENDBRANCH  58  61
ENDBRANCH  57  58
ENDBRANCH  55  57
ENDBRANCH  52  55
ENDBRANCH  49  52
ENDBRANCH  47  49
BRANCH  47  72
ATOM     72  C24 non d ame     -12.456  14.464  64.858  0.00  0.00    -0.039 C 
ATOM     73  H35 non d ame     -13.534  14.370  64.992  0.00  0.00     0.036 H 
ATOM     74  H36 non d ame     -12.056  14.868  63.928  0.00  0.00     0.036 H 
BRANCH  72  75
ATOM     75  C25 non d ame     -11.827  13.003  65.048  0.00  0.00    -0.001 C 
ATOM     76  C26 non d ame     -10.215  13.041  64.725  0.00  0.00    -0.035 C 
ATOM     77  C27 non d ame      -9.925  12.061  63.836  0.00  0.00     0.085 C 
ATOM     78  H38 non d ame      -9.963  13.955  64.188  0.00  0.00     0.036 H 
ATOM     79  H39 non d ame      -9.649  12.756  65.612  0.00  0.00     0.036 H 
ATOM     80  N5  non d ame     -11.238  11.571  63.275  0.00  0.00    -0.049 N 
ATOM     81  H40 non d ame      -9.358  12.547  63.041  0.00  0.00     0.075 H 
ATOM     82  H41 non d ame      -9.469  11.263  64.421  0.00  0.00     0.075 H 
ATOM     83  C28 non d ame     -12.383  12.148  64.256  0.00  0.00     0.193 C 
ATOM     84  H42 non d ame     -11.342  12.005  62.369  0.00  0.00     0.280 HD
ATOM     85  H43 non d ame     -11.225  10.564  63.354  0.00  0.00     0.280 HD
ATOM     86  H44 non d ame     -12.872  11.496  64.980  0.00  0.00     0.129 H 
ATOM     87  H37 non d ame     -12.134  12.540  65.986  0.00  0.00     0.046 H 
BRANCH  83  88
ATOM     88  O6  non d ame     -13.440  12.730  63.491  0.00  0.00    -0.369 OA
ATOM     89  H45 non d ame     -14.101  13.094  64.084  0.00  0.00     0.212 HD
ENDBRANCH  83  88
ENDBRANCH  72  75
ENDBRANCH  47  72
ENDBRANCH  45  47
ENDBRANCH   1  43
BRANCH   1  90
ATOM     90  C16 non d ame     -11.825  15.155  70.765  0.00  0.00    -0.035 C 
ATOM     91  H21 non d ame     -10.999  14.754  71.353  0.00  0.00     0.037 H 
ATOM     92  H22 non d ame     -11.697  16.084  70.209  0.00  0.00     0.037 H 
BRANCH  90  93
ATOM     93  C17 non d ame     -13.001  15.397  71.764  0.00  0.00    -0.059 C 
ATOM     94  H23 non d ame     -13.666  16.137  71.319  0.00  0.00     0.038 H 
BRANCH  93  95
ATOM     95  C18 non d ame     -13.834  14.100  72.019  0.00  0.00    -0.073 C 
ATOM     96  H24 non d ame     -13.937  13.940  73.092  0.00  0.00     0.028 H 
ATOM     97  H25 non d ame     -14.822  14.209  71.571  0.00  0.00     0.028 H 
ATOM     98  H26 non d ame     -13.324  13.247  71.571  0.00  0.00     0.028 H 
ENDBRANCH  93  95
BRANCH  93  99
ATOM     99  C19 non d ame     -12.487  15.982  73.082  0.00  0.00    -0.073 C 
ATOM    100  H27 non d ame     -12.222  15.171  73.761  0.00  0.00     0.028 H 
ATOM    101  H28 non d ame     -11.607  16.596  72.888  0.00  0.00     0.028 H 
ATOM    102  H29 non d ame     -13.265  16.596  73.535  0.00  0.00     0.028 H 
ENDBRANCH  93  99
ENDBRANCH  90  93
ENDBRANCH   1  90
TORSDOF 26
ENDMDL
MODEL 1
REMARK VINA RESULT:      -7.1      0.000      0.000
REMARK  26 active torsions:
REMARK  status: ('A' for Active; 'I' for Inactive)
REMARK    1  A    between atoms: C2_2  and  C3_3 
REMARK    2  A    between atoms: C4_6  and  C5_7 
REMARK       I    between atoms: C5_7  and  N2_9 
REMARK    3  A    between atoms: N2_9  and  C6_10 
REMARK    4  A    between atoms: C6_10  and  C7_11 
REMARK    5  A    between atoms: C6_10  and  C8_13 
REMARK       I    between atoms: C7_11  and  N3_14 
REMARK    6  A    between atoms: N3_14  and  C9_15 
REMARK    7  A    between atoms: C9_15  and  C10_16 
REMARK    8  A    between atoms: C9_15  and  C11_18 
REMARK       I    between atoms: C10_16  and  N4_21 
REMARK    9  A    between atoms: C11_18  and  C12_19 
REMARK   10  A    between atoms: C11_18  and  C13_20 
REMARK   11  A    between atoms: N4_21  and  C14_22 
REMARK   12  A    between atoms: C14_22  and  C15_23 
REMARK   13  A    between atoms: C14_22  and  C16_25 
REMARK       I    between atoms: C15_23  and  N6_40 
REMARK   14  A    between atoms: C16_25  and  C17_26 
REMARK   15  A    between atoms: C17_26  and  C18_27 
REMARK   16  A    between atoms: C17_26  and  C19_28 
REMARK   17  A    between atoms: C20_29  and  C21_30 
REMARK   18  A    between atoms: C20_29  and  C24_33 
REMARK   19  A    between atoms: C20_29  and  N6_40 
REMARK   20  A    between atoms: C21_30  and  C22_31 
REMARK   21  A    between atoms: C22_31  and  C23_32 
REMARK   22  A    between atoms: C23_32  and  O8_43 
REMARK   23  A    between atoms: C24_33  and  C25_34 
REMARK   24  A    between atoms: C28_38  and  O6_39 
REMARK   25  A    between atoms: C29_42  and  O8_43 
REMARK   26  A    between atoms: C29_42  and  C35_49 
ROOT
ATOM      1  C14 non d ame      -9.447   6.856  66.475  0.00  0.00     0.089 C 
ATOM      2  H20 non d ame      -9.973   6.546  65.572  0.00  0.00     0.087 H 
ENDROOT
BRANCH   1   3
ATOM      3  N4  non d ame      -8.996   8.225  66.272  0.00  0.00    -0.346 N 
ATOM      4  C10 non d ame      -8.358   8.631  64.967  0.00  0.00     0.241 C 
ATOM      5  O4  non d ame      -8.215   7.837  64.096  0.00  0.00    -0.271 OA
ATOM      6  H19 non d ame      -9.125   8.884  67.026  0.00  0.00     0.163 HD
BRANCH   4   7
ATOM      7  C9  non d ame      -7.902  10.053  64.772  0.00  0.00     0.092 C 
ATOM      8  H11 non d ame      -7.654  10.209  63.722  0.00  0.00     0.088 H 
BRANCH   7   9
ATOM      9  N3  non d ame      -9.001  10.967  65.097  0.00  0.00    -0.346 N 
ATOM     10  C7  non d ame      -9.982  11.302  64.094  0.00  0.00     0.240 C 
ATOM     11  O3  non d ame      -9.901  10.845  63.019  0.00  0.00    -0.271 OA
ATOM     12  H10 non d ame      -9.082  11.371  66.019  0.00  0.00     0.163 HD
BRANCH  10  13
ATOM     13  C6  non d ame     -11.146  12.278  64.445  0.00  0.00     0.086 C 
ATOM     14  H6  non d ame     -11.724  11.953  65.311  0.00  0.00     0.086 H 
BRANCH  13  15
ATOM     15  N2  non d ame     -10.587  13.576  64.782  0.00  0.00    -0.343 N 
ATOM     16  C5  non d ame     -11.354  14.495  65.627  0.00  0.00     0.273 C 
ATOM     17  O2  non d ame     -12.420  14.180  66.028  0.00  0.00    -0.266 OA
ATOM     18  H5  non d ame      -9.676  13.838  64.434  0.00  0.00     0.163 HD
BRANCH  16  19
ATOM     19  C4  non d ame     -10.774  15.870  65.994  0.00  0.00     0.154 A 
ATOM     20  C1  non d ame     -10.351  16.313  67.287  0.00  0.00    -0.017 A 
ATOM     21  C2  non d ame      -9.903  17.638  67.090  0.00  0.00     0.077 A 
ATOM     22  H1  non d ame     -10.366  15.758  68.226  0.00  0.00     0.091 H 
ATOM     23  O1  non d ame     -10.053  17.914  65.827  0.00  0.00    -0.218 OA
ATOM     24  N1  non d ame     -10.561  16.897  65.167  0.00  0.00    -0.123 NA
BRANCH  21  25
ATOM     25  C3  non d ame      -9.345  18.569  68.157  0.00  0.00    -0.029 C 
ATOM     26  H2  non d ame      -9.650  19.594  67.942  0.00  0.00     0.036 H 
ATOM     27  H3  non d ame      -9.728  18.274  69.133  0.00  0.00     0.036 H 
ATOM     28  H4  non d ame      -8.256  18.508  68.161  0.00  0.00     0.036 H 
ENDBRANCH  21  25
ENDBRANCH  16  19
ENDBRANCH  13  15
BRANCH  13  29
ATOM     29  C8  non d ame     -12.072  12.407  63.263  0.00  0.00    -0.049 C 
ATOM     30  H7  non d ame     -12.927  11.744  63.396  0.00  0.00     0.030 H 
ATOM     31  H8  non d ame     -12.421  13.438  63.186  0.00  0.00     0.030 H 
ATOM     32  H9  non d ame     -11.540  12.135  62.353  0.00  0.00     0.030 H 
ENDBRANCH  13  29
ENDBRANCH  10  13
ENDBRANCH   7   9
BRANCH   7  33
ATOM     33  C11 non d ame      -6.693  10.344  65.709  0.00  0.00    -0.033 C 
ATOM     34  H12 non d ame      -6.479   9.429  66.262  0.00  0.00     0.042 H 
BRANCH  33  35
ATOM     35  C12 non d ame      -5.415  10.708  64.891  0.00  0.00    -0.071 C 
ATOM     36  H13 non d ame      -5.469  10.243  63.907  0.00  0.00     0.028 H 
ATOM     37  H14 non d ame      -5.352  11.790  64.779  0.00  0.00     0.028 H 
ATOM     38  H15 non d ame      -4.533  10.345  65.418  0.00  0.00     0.028 H 
ENDBRANCH  33  35
BRANCH  33  39
ATOM     39  C13 non d ame      -7.044  11.463  66.741  0.00  0.00    -0.071 C 
ATOM     40  H16 non d ame      -7.987  11.224  67.230  0.00  0.00     0.028 H 
ATOM     41  H17 non d ame      -6.252  11.530  67.488  0.00  0.00     0.028 H 
ATOM     42  H18 non d ame      -7.135  12.418  66.223  0.00  0.00     0.028 H 
ENDBRANCH  33  39
ENDBRANCH   7  33
ENDBRANCH   4   7
ENDBRANCH   1   3
BRANCH   1  43
ATOM     43  C15 non d ame     -10.363   6.818  67.731  0.00  0.00     0.240 C 
ATOM     44  O5  non d ame     -11.259   6.037  67.786  0.00  0.00    -0.271 OA
ATOM     45  N6  non d ame     -10.120   7.747  68.871  0.00  0.00    -0.355 N 
ATOM     46  H46 non d ame      -9.359   8.411  68.837  0.00  0.00     0.162 HD
BRANCH  45  47
ATOM     47  C20 non d ame     -10.999   7.697  70.058  0.00  0.00     0.013 C 
ATOM     48  H30 non d ame     -11.906   7.160  69.781  0.00  0.00     0.072 H 
BRANCH  47  49
ATOM     49  C21 non d ame     -11.343   9.106  70.486  0.00  0.00    -0.038 C 
ATOM     50  H31 non d ame     -12.378   9.262  70.180  0.00  0.00     0.036 H 
ATOM     51  H32 non d ame     -11.070   9.168  71.540  0.00  0.00     0.036 H 
BRANCH  49  52
ATOM     52  C22 non d ame     -10.504  10.176  69.754  0.00  0.00     0.018 C 
ATOM     53  H33 non d ame     -10.390  10.998  70.463  0.00  0.00     0.048 H 
ATOM     54  H34 non d ame      -9.624   9.655  69.378  0.00  0.00     0.048 H 
BRANCH  52  55
ATOM     55  C23 non d ame     -11.210  10.781  68.509  0.00  0.00     0.259 C 
ATOM     56  O7  non d ame     -11.059  10.295  67.436  0.00  0.00    -0.265 OA
BRANCH  55  57
ATOM     57  O8  non d ame     -12.030  11.932  68.663  0.00  0.00    -0.317 OA
BRANCH  57  58
ATOM     58  C29 non d ame     -11.346  13.069  69.198  0.00  0.00     0.052 C 
ATOM     59  H47 non d ame     -10.430  12.680  69.642  0.00  0.00     0.082 H 
ATOM     60  H48 non d ame     -11.291  13.791  68.382  0.00  0.00     0.082 H 
BRANCH  58  61
ATOM     61  C35 non d ame     -12.224  13.669  70.327  0.00  0.00    -0.034 A 
ATOM     62  C30 non d ame     -12.810  12.834  71.272  0.00  0.00    -0.075 A 
ATOM     63  C31 non d ame     -13.599  13.373  72.287  0.00  0.00    -0.082 A 
ATOM     64  H49 non d ame     -12.652  11.758  71.218  0.00  0.00     0.084 H 
ATOM     65  C32 non d ame     -13.803  14.754  72.353  0.00  0.00    -0.083 A 
ATOM     66  H50 non d ame     -14.056  12.716  73.026  0.00  0.00     0.083 H 
ATOM     67  C33 non d ame     -13.219  15.584  71.406  0.00  0.00    -0.082 A 
ATOM     68  H51 non d ame     -14.419  15.184  73.143  0.00  0.00     0.083 H 
ATOM     69  C34 non d ame     -12.427  15.049  70.391  0.00  0.00    -0.075 A 
ATOM     70  H52 non d ame     -13.381  16.661  71.459  0.00  0.00     0.083 H 
ATOM     71  H53 non d ame     -11.970  15.708  69.651  0.00  0.00     0.084 H 
ENDBRANCH  58  61
ENDBRANCH  57  58
ENDBRANCH  55  57
ENDBRANCH  52  55
ENDBRANCH  49  52
ENDBRANCH  47  49
BRANCH  47  72
ATOM     72  C24 non d ame     -10.284   6.978  71.200  0.00  0.00    -0.039 C 
ATOM     73  H35 non d ame     -10.927   6.138  71.462  0.00  0.00     0.036 H 
ATOM     74  H36 non d ame      -9.271   6.796  70.840  0.00  0.00     0.036 H 
BRANCH  72  75
ATOM     75  C25 non d ame     -10.164   7.905  72.501  0.00  0.00    -0.001 C 
ATOM     76  C26 non d ame      -8.583   8.235  72.810  0.00  0.00    -0.035 C 
ATOM     77  C27 non d ame      -8.320   7.940  74.106  0.00  0.00     0.085 C 
ATOM     78  H38 non d ame      -7.943   7.546  72.258  0.00  0.00     0.036 H 
ATOM     79  H39 non d ame      -8.406   9.309  72.752  0.00  0.00     0.036 H 
ATOM     80  N5  non d ame      -9.489   7.136  74.621  0.00  0.00    -0.049 N 
ATOM     81  H40 non d ame      -7.433   7.307  74.087  0.00  0.00     0.075 H 
ATOM     82  H41 non d ame      -8.295   8.900  74.623  0.00  0.00     0.075 H 
ATOM     83  C28 non d ame     -10.671   7.324  73.537  0.00  0.00     0.193 C 
ATOM     84  H42 non d ame      -9.196   6.169  74.612  0.00  0.00     0.280 HD
ATOM     85  H43 non d ame      -9.775   7.568  75.487  0.00  0.00     0.280 HD
ATOM     86  H44 non d ame     -11.512   7.986  73.745  0.00  0.00     0.129 H 
ATOM     87  H37 non d ame     -10.850   8.751  72.470  0.00  0.00     0.046 H 
BRANCH  83  88
ATOM     88  O6  non d ame     -11.251   6.059  73.217  0.00  0.00    -0.369 OA
ATOM     89  H45 non d ame     -12.201   6.102  73.340  0.00  0.00     0.212 HD
ENDBRANCH  83  88
ENDBRANCH  72  75
ENDBRANCH  47  72
ENDBRANCH  45  47
ENDBRANCH   1  43
BRANCH   1  90
ATOM     90  C16 non d ame      -8.236   5.962  66.698  0.00  0.00    -0.035 C 
ATOM     91  H21 non d ame      -7.422   6.438  66.151  0.00  0.00     0.037 H 
ATOM     92  H22 non d ame      -8.166   5.836  67.777  0.00  0.00     0.037 H 
BRANCH  90  93
ATOM     93  C17 non d ame      -8.395   4.531  66.094  0.00  0.00    -0.059 C 
ATOM     94  H23 non d ame      -7.443   4.256  65.640  0.00  0.00     0.038 H 
BRANCH  93  95
ATOM     95  C18 non d ame      -8.729   3.464  67.185  0.00  0.00    -0.073 C 
ATOM     96  H24 non d ame      -8.738   3.939  68.166  0.00  0.00     0.028 H 
ATOM     97  H25 non d ame      -9.708   3.031  66.982  0.00  0.00     0.028 H 
ATOM     98  H26 non d ame      -7.974   2.678  67.168  0.00  0.00     0.028 H 
ENDBRANCH  93  95
BRANCH  93  99
ATOM     99  C19 non d ame      -9.448   4.521  64.982  0.00  0.00    -0.073 C 
ATOM    100  H27 non d ame      -9.331   3.619  64.380  0.00  0.00     0.028 H 
ATOM    101  H28 non d ame     -10.444   4.537  65.424  0.00  0.00     0.028 H 
ATOM    102  H29 non d ame      -9.316   5.398  64.350  0.00  0.00     0.028 H 
ENDBRANCH  93  99
ENDBRANCH  90  93
ENDBRANCH   1  90
TORSDOF 26
ENDMDL
MODEL 2
REMARK VINA RESULT:      -6.6      2.936      8.159
REMARK  26 active torsions:
REMARK  status: ('A' for Active; 'I' for Inactive)
REMARK    1  A    between atoms: C2_2  and  C3_3 
REMARK    2  A    between atoms: C4_6  and  C5_7 
REMARK       I    between atoms: C5_7  and  N2_9 
REMARK    3  A    between atoms: N2_9  and  C6_10 
REMARK    4  A    between atoms: C6_10  and  C7_11 
REMARK    5  A    between atoms: C6_10  and  C8_13 
REMARK       I    between atoms: C7_11  and  N3_14 
REMARK    6  A    between atoms: N3_14  and  C9_15 
REMARK    7  A    between atoms: C9_15  and  C10_16 
REMARK    8  A    between atoms: C9_15  and  C11_18 
REMARK       I    between atoms: C10_16  and  N4_21 
REMARK    9  A    between atoms: C11_18  and  C12_19 
REMARK   10  A    between atoms: C11_18  and  C13_20 
REMARK   11  A    between atoms: N4_21  and  C14_22 
REMARK   12  A    between atoms: C14_22  and  C15_23 
REMARK   13  A    between atoms: C14_22  and  C16_25 
REMARK       I    between atoms: C15_23  and  N6_40 
REMARK   14  A    between atoms: C16_25  and  C17_26 
REMARK   15  A    between atoms: C17_26  and  C18_27 
REMARK   16  A    between atoms: C17_26  and  C19_28 
REMARK   17  A    between atoms: C20_29  and  C21_30 
REMARK   18  A    between atoms: C20_29  and  C24_33 
REMARK   19  A    between atoms: C20_29  and  N6_40 
REMARK   20  A    between atoms: C21_30  and  C22_31 
REMARK   21  A    between atoms: C22_31  and  C23_32 
REMARK   22  A    between atoms: C23_32  and  O8_43 
REMARK   23  A    between atoms: C24_33  and  C25_34 
REMARK   24  A    between atoms: C28_38  and  O6_39 
REMARK   25  A    between atoms: C29_42  and  O8_43 
REMARK   26  A    between atoms: C29_42  and  C35_49 
ROOT
ATOM      1  C14 non d ame      -6.829  12.727  68.133  0.00  0.00     0.089 C 
ATOM      2  H20 non d ame      -6.048  12.596  67.385  0.00  0.00     0.087 H 
ENDROOT
BRANCH   1   3
ATOM      3  N4  non d ame      -7.107  14.152  68.231  0.00  0.00    -0.346 N 
ATOM      4  C10 non d ame      -6.097  15.161  67.744  0.00  0.00     0.241 C 
ATOM      5  O4  non d ame      -5.066  14.801  67.278  0.00  0.00    -0.271 OA
ATOM      6  H19 non d ame      -7.989  14.438  68.633  0.00  0.00     0.163 HD
BRANCH   4   7
ATOM      7  C9  non d ame      -6.403  16.631  67.848  0.00  0.00     0.092 C 
ATOM      8  H11 non d ame      -5.994  17.146  66.979  0.00  0.00     0.088 H 
BRANCH   7   9
ATOM      9  N3  non d ame      -7.855  16.832  67.825  0.00  0.00    -0.346 N 
ATOM     10  C7  non d ame      -8.500  17.299  66.623  0.00  0.00     0.240 C 
ATOM     11  O3  non d ame      -7.864  17.521  65.665  0.00  0.00    -0.271 OA
ATOM     12  H10 non d ame      -8.416  16.646  68.644  0.00  0.00     0.163 HD
BRANCH  10  13
ATOM     13  C6  non d ame     -10.045  17.513  66.605  0.00  0.00     0.086 C 
ATOM     14  H6  non d ame     -10.550  16.885  65.872  0.00  0.00     0.086 H 
BRANCH  13  15
ATOM     15  N2  non d ame     -10.585  17.151  67.905  0.00  0.00    -0.343 N 
ATOM     16  C5  non d ame     -11.258  15.860  68.072  0.00  0.00     0.273 C 
ATOM     17  O2  non d ame     -11.361  15.123  67.154  0.00  0.00    -0.266 OA
ATOM     18  H5  non d ame     -10.495  17.787  68.683  0.00  0.00     0.163 HD
BRANCH  16  19
ATOM     19  C4  non d ame     -11.832  15.463  69.441  0.00  0.00     0.154 A 
ATOM     20  C1  non d ame     -12.302  14.171  69.839  0.00  0.00    -0.017 A 
ATOM     21  C2  non d ame     -12.722  14.333  71.178  0.00  0.00     0.077 A 
ATOM     22  H1  non d ame     -12.334  13.255  69.247  0.00  0.00     0.091 H 
ATOM     23  O1  non d ame     -12.512  15.576  71.502  0.00  0.00    -0.218 OA
ATOM     24  N1  non d ame     -11.994  16.255  70.504  0.00  0.00    -0.123 NA
BRANCH  21  25
ATOM     25  C3  non d ame     -13.309  13.253  72.076  0.00  0.00    -0.029 C 
ATOM     26  H2  non d ame     -12.652  12.382  72.075  0.00  0.00     0.036 H 
ATOM     27  H3  non d ame     -13.402  13.636  73.092  0.00  0.00     0.036 H 
ATOM     28  H4  non d ame     -14.293  12.966  71.705  0.00  0.00     0.036 H 
ENDBRANCH  21  25
ENDBRANCH  16  19
ENDBRANCH  13  15
BRANCH  13  29
ATOM     29  C8  non d ame     -10.352  18.958  66.304  0.00  0.00    -0.049 C 
ATOM     30  H7  non d ame      -9.658  19.328  65.549  0.00  0.00     0.030 H 
ATOM     31  H8  non d ame     -11.374  19.041  65.930  0.00  0.00     0.030 H 
ATOM     32  H9  non d ame     -10.248  19.549  67.213  0.00  0.00     0.030 H 
ENDBRANCH  13  29
ENDBRANCH  10  13
ENDBRANCH   7   9
BRANCH   7  33
ATOM     33  C11 non d ame      -5.827  17.188  69.183  0.00  0.00    -0.033 C 
ATOM     34  H12 non d ame      -6.128  16.508  69.980  0.00  0.00     0.042 H 
BRANCH  33  35
ATOM     35  C12 non d ame      -4.267  17.221  69.159  0.00  0.00    -0.071 C 
ATOM     36  H13 non d ame      -3.930  18.174  68.752  0.00  0.00     0.028 H 
ATOM     37  H14 non d ame      -3.885  17.103  70.173  0.00  0.00     0.028 H 
ATOM     38  H15 non d ame      -3.897  16.407  68.535  0.00  0.00     0.028 H 
ENDBRANCH  33  35
BRANCH  33  39
ATOM     39  C13 non d ame      -6.418  18.599  69.502  0.00  0.00    -0.071 C 
ATOM     40  H16 non d ame      -6.566  18.696  70.577  0.00  0.00     0.028 H 
ATOM     41  H17 non d ame      -5.727  19.369  69.158  0.00  0.00     0.028 H 
ATOM     42  H18 non d ame      -7.374  18.714  68.992  0.00  0.00     0.028 H 
ENDBRANCH  33  39
ENDBRANCH   7  33
ENDBRANCH   4   7
ENDBRANCH   1   3
BRANCH   1  43
ATOM     43  C15 non d ame      -8.144  11.992  67.745  0.00  0.00     0.240 C 
ATOM     44  O5  non d ame      -9.185  12.379  68.170  0.00  0.00    -0.271 OA
ATOM     45  N6  non d ame      -8.107  10.811  66.837  0.00  0.00    -0.355 N 
ATOM     46  H46 non d ame      -7.230  10.475  66.466  0.00  0.00     0.162 HD
BRANCH  45  47
ATOM     47  C20 non d ame      -9.366  10.123  66.477  0.00  0.00     0.013 C 
ATOM     48  H30 non d ame     -10.169  10.561  67.071  0.00  0.00     0.072 H 
BRANCH  47  49
ATOM     49  C21 non d ame      -9.238   8.649  66.787  0.00  0.00    -0.038 C 
ATOM     50  H31 non d ame      -8.763   8.204  65.913  0.00  0.00     0.036 H 
ATOM     51  H32 non d ame      -8.750   8.596  67.761  0.00  0.00     0.036 H 
BRANCH  49  52
ATOM     52  C22 non d ame     -10.605   7.949  66.946  0.00  0.00     0.018 C 
ATOM     53  H33 non d ame     -11.167   8.555  67.659  0.00  0.00     0.048 H 
ATOM     54  H34 non d ame     -10.984   7.807  65.934  0.00  0.00     0.048 H 
BRANCH  52  55
ATOM     55  C23 non d ame     -10.512   6.530  67.572  0.00  0.00     0.259 C 
ATOM     56  O7  non d ame     -10.063   6.381  68.662  0.00  0.00    -0.265 OA
BRANCH  55  57
ATOM     57  O8  non d ame     -10.957   5.406  66.823  0.00  0.00    -0.317 OA
BRANCH  57  58
ATOM     58  C29 non d ame      -9.932   4.447  66.545  0.00  0.00     0.052 C 
ATOM     59  H47 non d ame      -9.045   4.803  67.067  0.00  0.00     0.082 H 
ATOM     60  H48 non d ame     -10.360   3.477  66.799  0.00  0.00     0.082 H 
BRANCH  58  61
ATOM     61  C35 non d ame      -9.650   4.475  65.020  0.00  0.00    -0.034 A 
ATOM     62  C30 non d ame      -8.585   5.218  64.522  0.00  0.00    -0.075 A 
ATOM     63  C31 non d ame      -8.331   5.243  63.152  0.00  0.00    -0.082 A 
ATOM     64  H49 non d ame      -7.949   5.780  65.205  0.00  0.00     0.084 H 
ATOM     65  C32 non d ame      -9.150   4.523  62.277  0.00  0.00    -0.083 A 
ATOM     66  H50 non d ame      -7.495   5.825  62.765  0.00  0.00     0.083 H 
ATOM     67  C33 non d ame     -10.214   3.785  62.778  0.00  0.00    -0.082 A 
ATOM     68  H51 non d ame      -8.959   4.537  61.204  0.00  0.00     0.083 H 
ATOM     69  C34 non d ame     -10.469   3.756  64.148  0.00  0.00    -0.075 A 
ATOM     70  H52 non d ame     -10.852   3.227  62.093  0.00  0.00     0.083 H 
ATOM     71  H53 non d ame     -11.307   3.173  64.534  0.00  0.00     0.084 H 
ENDBRANCH  58  61
ENDBRANCH  57  58
ENDBRANCH  55  57
ENDBRANCH  52  55
ENDBRANCH  49  52
ENDBRANCH  47  49
BRANCH  47  72
ATOM     72  C24 non d ame      -9.648  10.309  64.988  0.00  0.00    -0.039 C 
ATOM     73  H35 non d ame      -8.683  10.197  64.493  0.00  0.00     0.036 H 
ATOM     74  H36 non d ame     -10.460   9.619  64.757  0.00  0.00     0.036 H 
BRANCH  72  75
ATOM     75  C25 non d ame     -10.177  11.786  64.664  0.00  0.00    -0.001 C 
ATOM     76  C26 non d ame     -11.515  12.112  65.562  0.00  0.00    -0.035 C 
ATOM     77  C27 non d ame     -12.494  12.559  64.741  0.00  0.00     0.085 C 
ATOM     78  H38 non d ame     -11.925  11.189  65.969  0.00  0.00     0.036 H 
ATOM     79  H39 non d ame     -11.326  12.961  66.220  0.00  0.00     0.036 H 
ATOM     80  N5  non d ame     -12.056  12.260  63.328  0.00  0.00    -0.049 N 
ATOM     81  H40 non d ame     -13.371  11.956  64.977  0.00  0.00     0.075 H 
ATOM     82  H41 non d ame     -12.521  13.640  64.881  0.00  0.00     0.075 H 
ATOM     83  C28 non d ame     -10.482  11.909  63.415  0.00  0.00     0.193 C 
ATOM     84  H42 non d ame     -12.555  11.428  63.044  0.00  0.00     0.280 HD
ATOM     85  H43 non d ame     -12.166  13.117  62.805  0.00  0.00     0.280 HD
ATOM     86  H44 non d ame      -9.735  12.637  63.098  0.00  0.00     0.129 H 
ATOM     87  H37 non d ame      -9.375  12.524  64.681  0.00  0.00     0.046 H 
BRANCH  83  88
ATOM     88  O6  non d ame     -10.200  10.723  62.671  0.00  0.00    -0.369 OA
ATOM     89  H45 non d ame     -10.971  10.478  62.155  0.00  0.00     0.212 HD
ENDBRANCH  83  88
ENDBRANCH  72  75
ENDBRANCH  47  72
ENDBRANCH  45  47
ENDBRANCH   1  43
BRANCH   1  90
ATOM     90  C16 non d ame      -6.340  12.222  69.482  0.00  0.00    -0.035 C 
ATOM     91  H21 non d ame      -5.960  13.103  69.999  0.00  0.00     0.037 H 
ATOM     92  H22 non d ame      -7.176  11.663  69.901  0.00  0.00     0.037 H 
BRANCH  90  93
ATOM     93  C17 non d ame      -5.145  11.221  69.380  0.00  0.00    -0.059 C 
ATOM     94  H23 non d ame      -4.400  11.521  70.116  0.00  0.00     0.038 H 
BRANCH  93  95
ATOM     95  C18 non d ame      -5.574   9.755  69.705  0.00  0.00    -0.073 C 
ATOM     96  H24 non d ame      -6.329   9.763  70.492  0.00  0.00     0.028 H 
ATOM     97  H25 non d ame      -5.989   9.291  68.810  0.00  0.00     0.028 H 
ATOM     98  H26 non d ame      -4.706   9.188  70.039  0.00  0.00     0.028 H 
ENDBRANCH  93  95
BRANCH  93  99
ATOM     99  C19 non d ame      -4.481  11.303  68.002  0.00  0.00    -0.073 C 
ATOM    100  H27 non d ame      -3.432  11.574  68.121  0.00  0.00     0.028 H 
ATOM    101  H28 non d ame      -4.552  10.334  67.507  0.00  0.00     0.028 H 
ATOM    102  H29 non d ame      -4.986  12.057  67.400  0.00  0.00     0.028 H 
ENDBRANCH  93  99
ENDBRANCH  90  93
ENDBRANCH   1  90
TORSDOF 26
ENDMDL
MODEL 3
REMARK VINA RESULT:      -6.5      3.616      6.347
REMARK  26 active torsions:
REMARK  status: ('A' for Active; 'I' for Inactive)
REMARK    1  A    between atoms: C2_2  and  C3_3 
REMARK    2  A    between atoms: C4_6  and  C5_7 
REMARK       I    between atoms: C5_7  and  N2_9 
REMARK    3  A    between atoms: N2_9  and  C6_10 
REMARK    4  A    between atoms: C6_10  and  C7_11 
REMARK    5  A    between atoms: C6_10  and  C8_13 
REMARK       I    between atoms: C7_11  and  N3_14 
REMARK    6  A    between atoms: N3_14  and  C9_15 
REMARK    7  A    between atoms: C9_15  and  C10_16 
REMARK    8  A    between atoms: C9_15  and  C11_18 
REMARK       I    between atoms: C10_16  and  N4_21 
REMARK    9  A    between atoms: C11_18  and  C12_19 
REMARK   10  A    between atoms: C11_18  and  C13_20 
REMARK   11  A    between atoms: N4_21  and  C14_22 
REMARK   12  A    between atoms: C14_22  and  C15_23 
REMARK   13  A    between atoms: C14_22  and  C16_25 
REMARK       I    between atoms: C15_23  and  N6_40 
REMARK   14  A    between atoms: C16_25  and  C17_26 
REMARK   15  A    between atoms: C17_26  and  C18_27 
REMARK   16  A    between atoms: C17_26  and  C19_28 
REMARK   17  A    between atoms: C20_29  and  C21_30 
REMARK   18  A    between atoms: C20_29  and  C24_33 
REMARK   19  A    between atoms: C20_29  and  N6_40 
REMARK   20  A    between atoms: C21_30  and  C22_31 
REMARK   21  A    between atoms: C22_31  and  C23_32 
REMARK   22  A    between atoms: C23_32  and  O8_43 
REMARK   23  A    between atoms: C24_33  and  C25_34 
REMARK   24  A    between atoms: C28_38  and  O6_39 
REMARK   25  A    between atoms: C29_42  and  O8_43 
REMARK   26  A    between atoms: C29_42  and  C35_49 
ROOT
ATOM      1  C14 non d ame     -10.537   9.938  68.722  0.00  0.00     0.089 C 
ATOM      2  H20 non d ame     -10.847   9.218  67.965  0.00  0.00     0.087 H 
ENDROOT
BRANCH   1   3
ATOM      3  N4  non d ame      -9.174  10.341  68.412  0.00  0.00    -0.346 N 
ATOM      4  C10 non d ame      -8.739  10.519  66.979  0.00  0.00     0.241 C 
ATOM      5  O4  non d ame      -9.504  10.329  66.091  0.00  0.00    -0.271 OA
ATOM      6  H19 non d ame      -8.537  10.496  69.181  0.00  0.00     0.163 HD
BRANCH   4   7
ATOM      7  C9  non d ame      -7.326  10.942  66.676  0.00  0.00     0.092 C 
ATOM      8  H11 non d ame      -7.344  11.859  66.087  0.00  0.00     0.088 H 
BRANCH   7   9
ATOM      9  N3  non d ame      -6.627  11.247  67.929  0.00  0.00    -0.346 N 
ATOM     10  C7  non d ame      -5.862  12.462  68.051  0.00  0.00     0.240 C 
ATOM     11  O3  non d ame      -5.796  13.207  67.150  0.00  0.00    -0.271 OA
ATOM     12  H10 non d ame      -6.674  10.613  68.713  0.00  0.00     0.163 HD
BRANCH  10  13
ATOM     13  C6  non d ame      -5.119  12.779  69.385  0.00  0.00     0.086 C 
ATOM     14  H6  non d ame      -4.034  12.777  69.275  0.00  0.00     0.086 H 
BRANCH  13  15
ATOM     15  N2  non d ame      -5.490  14.113  69.826  0.00  0.00    -0.343 N 
ATOM     16  C5  non d ame      -4.505  15.195  69.758  0.00  0.00     0.273 C 
ATOM     17  O2  non d ame      -3.417  14.981  69.349  0.00  0.00    -0.266 OA
ATOM     18  H5  non d ame      -6.421  14.287  70.177  0.00  0.00     0.163 HD
BRANCH  16  19
ATOM     19  C4  non d ame      -4.884  16.611  70.218  0.00  0.00     0.154 A 
ATOM     20  C1  non d ame      -5.266  17.716  69.392  0.00  0.00    -0.017 A 
ATOM     21  C2  non d ame      -5.509  18.777  70.293  0.00  0.00     0.077 A 
ATOM     22  H1  non d ame      -5.352  17.744  68.306  0.00  0.00     0.091 H 
ATOM     23  O1  non d ame      -5.292  18.324  71.493  0.00  0.00    -0.218 OA
ATOM     24  N1  non d ame      -4.925  17.062  71.475  0.00  0.00    -0.123 NA
BRANCH  21  25
ATOM     25  C3  non d ame      -5.948  20.188  69.926  0.00  0.00    -0.029 C 
ATOM     26  H2  non d ame      -6.825  20.141  69.280  0.00  0.00     0.036 H 
ATOM     27  H3  non d ame      -6.194  20.739  70.834  0.00  0.00     0.036 H 
ATOM     28  H4  non d ame      -5.138  20.696  69.402  0.00  0.00     0.036 H 
ENDBRANCH  21  25
ENDBRANCH  16  19
ENDBRANCH  13  15
BRANCH  13  29
ATOM     29  C8  non d ame      -5.504  11.764  70.432  0.00  0.00    -0.049 C 
ATOM     30  H7  non d ame      -4.622  11.483  71.008  0.00  0.00     0.030 H 
ATOM     31  H8  non d ame      -6.250  12.196  71.099  0.00  0.00     0.030 H 
ATOM     32  H9  non d ame      -5.917  10.881  69.947  0.00  0.00     0.030 H 
ENDBRANCH  13  29
ENDBRANCH  10  13
ENDBRANCH   7   9
BRANCH   7  33
ATOM     33  C11 non d ame      -6.585   9.788  65.939  0.00  0.00    -0.033 C 
ATOM     34  H12 non d ame      -7.342   9.158  65.471  0.00  0.00     0.042 H 
BRANCH  33  35
ATOM     35  C12 non d ame      -5.664  10.337  64.805  0.00  0.00    -0.071 C 
ATOM     36  H13 non d ame      -5.766   9.709  63.919  0.00  0.00     0.028 H 
ATOM     37  H14 non d ame      -5.957  11.358  64.561  0.00  0.00     0.028 H 
ATOM     38  H15 non d ame      -4.628  10.326  65.141  0.00  0.00     0.028 H 
ENDBRANCH  33  35
BRANCH  33  39
ATOM     39  C13 non d ame      -5.778   8.908  66.947  0.00  0.00    -0.071 C 
ATOM     40  H16 non d ame      -5.564   9.487  67.845  0.00  0.00     0.028 H 
ATOM     41  H17 non d ame      -6.365   8.028  67.213  0.00  0.00     0.028 H 
ATOM     42  H18 non d ame      -4.842   8.594  66.485  0.00  0.00     0.028 H 
ENDBRANCH  33  39
ENDBRANCH   7  33
ENDBRANCH   4   7
ENDBRANCH   1   3
BRANCH   1  43
ATOM     43  C15 non d ame     -11.438  11.206  68.731  0.00  0.00     0.240 C 
ATOM     44  O5  non d ame     -12.230  11.375  67.859  0.00  0.00    -0.271 OA
ATOM     45  N6  non d ame     -11.322  12.206  69.830  0.00  0.00    -0.355 N 
ATOM     46  H46 non d ame     -10.656  12.072  70.577  0.00  0.00     0.162 HD
BRANCH  45  47
ATOM     47  C20 non d ame     -12.187  13.405  69.824  0.00  0.00     0.013 C 
ATOM     48  H30 non d ame     -12.989  13.237  69.106  0.00  0.00     0.072 H 
BRANCH  47  49
ATOM     49  C21 non d ame     -11.370  14.609  69.412  0.00  0.00    -0.038 C 
ATOM     50  H31 non d ame     -11.845  15.466  69.892  0.00  0.00     0.036 H 
ATOM     51  H32 non d ame     -10.335  14.356  69.646  0.00  0.00     0.036 H 
BRANCH  49  52
ATOM     52  C22 non d ame     -11.421  14.876  67.892  0.00  0.00     0.018 C 
ATOM     53  H33 non d ame     -12.139  14.160  67.490  0.00  0.00     0.048 H 
ATOM     54  H34 non d ame     -11.601  15.947  67.786  0.00  0.00     0.048 H 
BRANCH  52  55
ATOM     55  C23 non d ame     -10.079  14.592  67.162  0.00  0.00     0.259 C 
ATOM     56  O7  non d ame      -9.326  13.775  67.582  0.00  0.00    -0.265 OA
BRANCH  55  57
ATOM     57  O8  non d ame      -9.753  15.330  65.991  0.00  0.00    -0.317 OA
BRANCH  57  58
ATOM     58  C29 non d ame      -8.647  16.224  66.154  0.00  0.00     0.052 C 
ATOM     59  H47 non d ame      -7.971  15.733  66.853  0.00  0.00     0.082 H 
ATOM     60  H48 non d ame      -8.310  16.462  65.145  0.00  0.00     0.082 H 
BRANCH  58  61
ATOM     61  C35 non d ame      -9.177  17.525  66.814  0.00  0.00    -0.034 A 
ATOM     62  C30 non d ame     -10.141  18.291  66.168  0.00  0.00    -0.075 A 
ATOM     63  C31 non d ame     -10.616  19.460  66.760  0.00  0.00    -0.082 A 
ATOM     64  H49 non d ame     -10.523  17.977  65.198  0.00  0.00     0.084 H 
ATOM     65  C32 non d ame     -10.122  19.862  68.004  0.00  0.00    -0.083 A 
ATOM     66  H50 non d ame     -11.373  20.057  66.252  0.00  0.00     0.083 H 
ATOM     67  C33 non d ame      -9.158  19.096  68.645  0.00  0.00    -0.082 A 
ATOM     68  H51 non d ame     -10.489  20.774  68.475  0.00  0.00     0.083 H 
ATOM     69  C34 non d ame      -8.682  17.926  68.056  0.00  0.00    -0.075 A 
ATOM     70  H52 non d ame      -8.772  19.414  69.614  0.00  0.00     0.083 H 
ATOM     71  H53 non d ame      -7.924  17.328  68.566  0.00  0.00     0.084 H 
ENDBRANCH  58  61
ENDBRANCH  57  58
ENDBRANCH  55  57
ENDBRANCH  52  55
ENDBRANCH  49  52
ENDBRANCH  47  49
BRANCH  47  72
ATOM     72  C24 non d ame     -12.762  13.633  71.220  0.00  0.00    -0.039 C 
ATOM     73  H35 non d ame     -13.793  13.281  71.171  0.00  0.00     0.036 H 
ATOM     74  H36 non d ame     -12.058  13.161  71.905  0.00  0.00     0.036 H 
BRANCH  72  75
ATOM     75  C25 non d ame     -12.813  15.190  71.593  0.00  0.00    -0.001 C 
ATOM     76  C26 non d ame     -11.832  15.492  72.878  0.00  0.00    -0.035 C 
ATOM     77  C27 non d ame     -12.534  16.171  73.814  0.00  0.00     0.085 C 
ATOM     78  H38 non d ame     -11.576  14.558  73.379  0.00  0.00     0.036 H 
ATOM     79  H39 non d ame     -11.045  16.190  72.592  0.00  0.00     0.036 H 
ATOM     80  N5  non d ame     -13.991  16.078  73.429  0.00  0.00    -0.049 N 
ATOM     81  H40 non d ame     -12.378  15.630  74.747  0.00  0.00     0.075 H 
ATOM     82  H41 non d ame     -12.211  17.208  73.725  0.00  0.00     0.075 H 
ATOM     83  C28 non d ame     -14.013  15.558  71.900  0.00  0.00     0.193 C 
ATOM     84  H42 non d ame     -14.397  15.363  74.016  0.00  0.00     0.280 HD
ATOM     85  H43 non d ame     -14.355  17.019  73.454  0.00  0.00     0.280 HD
ATOM     86  H44 non d ame     -14.223  16.250  71.083  0.00  0.00     0.129 H 
ATOM     87  H37 non d ame     -12.695  15.829  70.718  0.00  0.00     0.046 H 
BRANCH  83  88
ATOM     88  O6  non d ame     -14.957  14.496  71.754  0.00  0.00    -0.369 OA
ATOM     89  H45 non d ame     -15.273  14.472  70.849  0.00  0.00     0.212 HD
ENDBRANCH  83  88
ENDBRANCH  72  75
ENDBRANCH  47  72
ENDBRANCH  45  47
ENDBRANCH   1  43
BRANCH   1  90
ATOM     90  C16 non d ame     -10.562   9.284  70.095  0.00  0.00    -0.035 C 
ATOM     91  H21 non d ame      -9.796   9.801  70.674  0.00  0.00     0.037 H 
ATOM     92  H22 non d ame     -11.603   9.321  70.413  0.00  0.00     0.037 H 
BRANCH  90  93
ATOM     93  C17 non d ame     -10.157   7.776  70.077  0.00  0.00    -0.059 C 
ATOM     94  H23 non d ame      -9.769   7.549  69.084  0.00  0.00     0.038 H 
BRANCH  93  95
ATOM     95  C18 non d ame      -9.034   7.454  71.113  0.00  0.00    -0.073 C 
ATOM     96  H24 non d ame      -9.218   6.474  71.555  0.00  0.00     0.028 H 
ATOM     97  H25 non d ame      -8.067   7.449  70.611  0.00  0.00     0.028 H 
ATOM     98  H26 non d ame      -9.033   8.212  71.896  0.00  0.00     0.028 H 
ENDBRANCH  93  95
BRANCH  93  99
ATOM     99  C19 non d ame     -11.379   6.880  70.301  0.00  0.00    -0.073 C 
ATOM    100  H27 non d ame     -11.669   6.918  71.351  0.00  0.00     0.028 H 
ATOM    101  H28 non d ame     -12.206   7.232  69.683  0.00  0.00     0.028 H 
ATOM    102  H29 non d ame     -11.132   5.855  70.029  0.00  0.00     0.028 H 
ENDBRANCH  93  99
ENDBRANCH  90  93
ENDBRANCH   1  90
TORSDOF 26
ENDMDL
MODEL 4
REMARK VINA RESULT:      -6.4      2.359      4.051
REMARK  26 active torsions:
REMARK  status: ('A' for Active; 'I' for Inactive)
REMARK    1  A    between atoms: C2_2  and  C3_3 
REMARK    2  A    between atoms: C4_6  and  C5_7 
REMARK       I    between atoms: C5_7  and  N2_9 
REMARK    3  A    between atoms: N2_9  and  C6_10 
REMARK    4  A    between atoms: C6_10  and  C7_11 
REMARK    5  A    between atoms: C6_10  and  C8_13 
REMARK       I    between atoms: C7_11  and  N3_14 
REMARK    6  A    between atoms: N3_14  and  C9_15 
REMARK    7  A    between atoms: C9_15  and  C10_16 
REMARK    8  A    between atoms: C9_15  and  C11_18 
REMARK       I    between atoms: C10_16  and  N4_21 
REMARK    9  A    between atoms: C11_18  and  C12_19 
REMARK   10  A    between atoms: C11_18  and  C13_20 
REMARK   11  A    between atoms: N4_21  and  C14_22 
REMARK   12  A    between atoms: C14_22  and  C15_23 
REMARK   13  A    between atoms: C14_22  and  C16_25 
REMARK       I    between atoms: C15_23  and  N6_40 
REMARK   14  A    between atoms: C16_25  and  C17_26 
REMARK   15  A    between atoms: C17_26  and  C18_27 
REMARK   16  A    between atoms: C17_26  and  C19_28 
REMARK   17  A    between atoms: C20_29  and  C21_30 
REMARK   18  A    between atoms: C20_29  and  C24_33 
REMARK   19  A    between atoms: C20_29  and  N6_40 
REMARK   20  A    between atoms: C21_30  and  C22_31 
REMARK   21  A    between atoms: C22_31  and  C23_32 
REMARK   22  A    between atoms: C23_32  and  O8_43 
REMARK   23  A    between atoms: C24_33  and  C25_34 
REMARK   24  A    between atoms: C28_38  and  O6_39 
REMARK   25  A    between atoms: C29_42  and  O8_43 
REMARK   26  A    between atoms: C29_42  and  C35_49 
ROOT
ATOM      1  C14 non d ame      -8.097   5.843  68.157  0.00  0.00     0.089 C 
ATOM      2  H20 non d ame      -9.133   5.531  68.027  0.00  0.00     0.087 H 
ENDROOT
BRANCH   1   3
ATOM      3  N4  non d ame      -7.558   6.135  66.837  0.00  0.00    -0.346 N 
ATOM      4  C10 non d ame      -8.331   7.000  65.873  0.00  0.00     0.241 C 
ATOM      5  O4  non d ame      -9.386   7.447  66.181  0.00  0.00    -0.271 OA
ATOM      6  H19 non d ame      -6.659   5.742  66.593  0.00  0.00     0.163 HD
BRANCH   4   7
ATOM      7  C9  non d ame      -7.756   7.296  64.513  0.00  0.00     0.092 C 
ATOM      8  H11 non d ame      -8.264   6.685  63.768  0.00  0.00     0.088 H 
BRANCH   7   9
ATOM      9  N3  non d ame      -8.012   8.698  64.169  0.00  0.00    -0.346 N 
ATOM     10  C7  non d ame      -8.425   9.049  62.833  0.00  0.00     0.240 C 
ATOM     11  O3  non d ame      -8.555   8.216  62.021  0.00  0.00    -0.271 OA
ATOM     12  H10 non d ame      -7.902   9.428  64.859  0.00  0.00     0.163 HD
BRANCH  10  13
ATOM     13  C6  non d ame      -8.692  10.543  62.473  0.00  0.00     0.086 C 
ATOM     14  H6  non d ame      -9.618  10.684  61.914  0.00  0.00     0.086 H 
BRANCH  13  15
ATOM     15  N2  non d ame      -8.829  11.307  63.702  0.00  0.00    -0.343 N 
ATOM     16  C5  non d ame     -10.088  12.002  63.982  0.00  0.00     0.273 C 
ATOM     17  O2  non d ame     -10.982  11.943  63.212  0.00  0.00    -0.266 OA
ATOM     18  H5  non d ame      -8.060  11.355  64.354  0.00  0.00     0.163 HD
BRANCH  16  19
ATOM     19  C4  non d ame     -10.248  12.812  65.279  0.00  0.00     0.154 A 
ATOM     20  C1  non d ame     -10.131  14.230  65.433  0.00  0.00    -0.017 A 
ATOM     21  C2  non d ame     -10.364  14.467  66.806  0.00  0.00     0.077 A 
ATOM     22  H1  non d ame      -9.910  14.973  64.666  0.00  0.00     0.091 H 
ATOM     23  O1  non d ame     -10.589  13.314  67.366  0.00  0.00    -0.218 OA
ATOM     24  N1  non d ame     -10.526  12.333  66.495  0.00  0.00    -0.123 NA
BRANCH  21  25
ATOM     25  C3  non d ame     -10.355  15.822  67.500  0.00  0.00    -0.029 C 
ATOM     26  H2  non d ame     -11.147  16.448  67.087  0.00  0.00     0.036 H 
ATOM     27  H3  non d ame     -10.523  15.683  68.568  0.00  0.00     0.036 H 
ATOM     28  H4  non d ame      -9.391  16.306  67.344  0.00  0.00     0.036 H 
ENDBRANCH  21  25
ENDBRANCH  16  19
ENDBRANCH  13  15
BRANCH  13  29
ATOM     29  C8  non d ame      -7.544  11.080  61.658  0.00  0.00    -0.049 C 
ATOM     30  H7  non d ame      -7.929  11.556  60.755  0.00  0.00     0.030 H 
ATOM     31  H8  non d ame      -6.992  11.814  62.247  0.00  0.00     0.030 H 
ATOM     32  H9  non d ame      -6.881  10.262  61.381  0.00  0.00     0.030 H 
ENDBRANCH  13  29
ENDBRANCH  10  13
ENDBRANCH   7   9
BRANCH   7  33
ATOM     33  C11 non d ame      -6.220   7.041  64.532  0.00  0.00    -0.033 C 
ATOM     34  H12 non d ame      -6.005   6.392  65.381  0.00  0.00     0.042 H 
BRANCH  33  35
ATOM     35  C12 non d ame      -5.752   6.297  63.243  0.00  0.00    -0.071 C 
ATOM     36  H13 non d ame      -5.415   7.025  62.505  0.00  0.00     0.028 H 
ATOM     37  H14 non d ame      -4.931   5.624  63.490  0.00  0.00     0.028 H 
ATOM     38  H15 non d ame      -6.582   5.721  62.834  0.00  0.00     0.028 H 
ENDBRANCH  33  35
BRANCH  33  39
ATOM     39  C13 non d ame      -5.434   8.376  64.733  0.00  0.00    -0.071 C 
ATOM     40  H16 non d ame      -4.553   8.190  65.346  0.00  0.00     0.028 H 
ATOM     41  H17 non d ame      -5.126   8.767  63.762  0.00  0.00     0.028 H 
ATOM     42  H18 non d ame      -6.076   9.103  65.230  0.00  0.00     0.028 H 
ENDBRANCH  33  39
ENDBRANCH   7  33
ENDBRANCH   4   7
ENDBRANCH   1   3
BRANCH   1  43
ATOM     43  C15 non d ame      -7.973   7.120  69.036  0.00  0.00     0.240 C 
ATOM     44  O5  non d ame      -6.941   7.373  69.570  0.00  0.00    -0.271 OA
ATOM     45  N6  non d ame      -9.138   8.035  69.206  0.00  0.00    -0.355 N 
ATOM     46  H46 non d ame     -10.019   7.833  68.754  0.00  0.00     0.162 HD
BRANCH  45  47
ATOM     47  C20 non d ame      -9.004   9.246  70.044  0.00  0.00     0.013 C 
ATOM     48  H30 non d ame      -8.056   9.180  70.578  0.00  0.00     0.072 H 
BRANCH  47  49
ATOM     49  C21 non d ame     -10.149   9.302  71.029  0.00  0.00    -0.038 C 
ATOM     50  H31 non d ame     -10.176   8.322  71.507  0.00  0.00     0.036 H 
ATOM     51  H32 non d ame      -9.977  10.196  71.629  0.00  0.00     0.036 H 
BRANCH  49  52
ATOM     52  C22 non d ame     -11.520   9.493  70.345  0.00  0.00     0.018 C 
ATOM     53  H33 non d ame     -11.336  10.145  69.491  0.00  0.00     0.048 H 
ATOM     54  H34 non d ame     -11.915   8.489  70.189  0.00  0.00     0.048 H 
BRANCH  52  55
ATOM     55  C23 non d ame     -12.563  10.232  71.229  0.00  0.00     0.259 C 
ATOM     56  O7  non d ame     -13.117   9.661  72.111  0.00  0.00    -0.265 OA
BRANCH  55  57
ATOM     57  O8  non d ame     -12.859  11.597  70.964  0.00  0.00    -0.317 OA
BRANCH  57  58
ATOM     58  C29 non d ame     -13.405  12.304  72.082  0.00  0.00     0.052 C 
ATOM     59  H47 non d ame     -14.481  12.331  71.918  0.00  0.00     0.082 H 
ATOM     60  H48 non d ame     -13.001  11.812  72.967  0.00  0.00     0.082 H 
BRANCH  58  61
ATOM     61  C35 non d ame     -12.864  13.758  72.040  0.00  0.00    -0.034 A 
ATOM     62  C30 non d ame     -12.094  14.183  70.963  0.00  0.00    -0.075 A 
ATOM     63  C31 non d ame     -11.609  15.489  70.924  0.00  0.00    -0.082 A 
ATOM     64  H49 non d ame     -11.871  13.494  70.149  0.00  0.00     0.084 H 
ATOM     65  C32 non d ame     -11.895  16.371  71.970  0.00  0.00    -0.083 A 
ATOM     66  H50 non d ame     -11.007  15.820  70.078  0.00  0.00     0.083 H 
ATOM     67  C33 non d ame     -12.661  15.941  73.045  0.00  0.00    -0.082 A 
ATOM     68  H51 non d ame     -11.519  17.394  71.948  0.00  0.00     0.083 H 
ATOM     69  C34 non d ame     -13.151  14.637  73.085  0.00  0.00    -0.075 A 
ATOM     70  H52 non d ame     -12.881  16.631  73.860  0.00  0.00     0.083 H 
ATOM     71  H53 non d ame     -13.753  14.307  73.933  0.00  0.00     0.084 H 
ENDBRANCH  58  61
ENDBRANCH  57  58
ENDBRANCH  55  57
ENDBRANCH  52  55
ENDBRANCH  49  52
ENDBRANCH  47  49
BRANCH  47  72
ATOM     72  C24 non d ame      -9.030  10.490  69.160  0.00  0.00    -0.039 C 
ATOM     73  H35 non d ame      -9.641  10.222  68.298  0.00  0.00     0.036 H 
ATOM     74  H36 non d ame      -9.339  11.305  69.815  0.00  0.00     0.036 H 
BRANCH  72  75
ATOM     75  C25 non d ame      -7.570  10.856  68.609  0.00  0.00    -0.001 C 
ATOM     76  C26 non d ame      -7.223  12.429  68.939  0.00  0.00    -0.035 C 
ATOM     77  C27 non d ame      -6.817  13.035  67.799  0.00  0.00     0.085 C 
ATOM     78  H38 non d ame      -8.136  12.965  69.201  0.00  0.00     0.036 H 
ATOM     79  H39 non d ame      -6.349  12.491  69.588  0.00  0.00     0.036 H 
ATOM     80  N5  non d ame      -7.164  12.110  66.658  0.00  0.00    -0.049 N 
ATOM     81  H40 non d ame      -7.419  13.940  67.718  0.00  0.00     0.075 H 
ATOM     82  H41 non d ame      -5.732  13.107  67.879  0.00  0.00     0.075 H 
ATOM     83  C28 non d ame      -7.496  10.680  67.331  0.00  0.00     0.193 C 
ATOM     84  H42 non d ame      -8.010  12.473  66.242  0.00  0.00     0.280 HD
ATOM     85  H43 non d ame      -6.328  12.015  66.100  0.00  0.00     0.280 HD
ATOM     86  H44 non d ame      -6.773   9.865  67.285  0.00  0.00     0.129 H 
ATOM     87  H37 non d ame      -6.824  10.113  68.892  0.00  0.00     0.046 H 
BRANCH  83  88
ATOM     88  O6  non d ame      -8.706  10.149  66.789  0.00  0.00    -0.369 OA
ATOM     89  H45 non d ame      -9.294  10.870  66.554  0.00  0.00     0.212 HD
ENDBRANCH  83  88
ENDBRANCH  72  75
ENDBRANCH  47  72
ENDBRANCH  45  47
ENDBRANCH   1  43
BRANCH   1  90
ATOM     90  C16 non d ame      -7.295   4.712  68.782  0.00  0.00    -0.035 C 
ATOM     91  H21 non d ame      -6.311   5.136  68.988  0.00  0.00     0.037 H 
ATOM     92  H22 non d ame      -7.909   4.341  69.602  0.00  0.00     0.037 H 
BRANCH  90  93
ATOM     93  C17 non d ame      -7.061   3.504  67.822  0.00  0.00    -0.059 C 
ATOM     94  H23 non d ame      -7.430   3.789  66.836  0.00  0.00     0.038 H 
BRANCH  93  95
ATOM     95  C18 non d ame      -5.548   3.146  67.679  0.00  0.00    -0.073 C 
ATOM     96  H24 non d ame      -5.449   2.117  67.332  0.00  0.00     0.028 H 
ATOM     97  H25 non d ame      -5.082   3.818  66.958  0.00  0.00     0.028 H 
ATOM     98  H26 non d ame      -5.056   3.254  68.646  0.00  0.00     0.028 H 
ENDBRANCH  93  95
BRANCH  93  99
ATOM     99  C19 non d ame      -7.870   2.284  68.273  0.00  0.00    -0.073 C 
ATOM    100  H27 non d ame      -7.756   1.483  67.542  0.00  0.00     0.028 H 
ATOM    101  H28 non d ame      -7.506   1.945  69.243  0.00  0.00     0.028 H 
ATOM    102  H29 non d ame      -8.922   2.555  68.353  0.00  0.00     0.028 H 
ENDBRANCH  93  99
ENDBRANCH  90  93
ENDBRANCH   1  90
TORSDOF 26
ENDMDL
MODEL 5
REMARK VINA RESULT:      -6.4      2.379      6.630
REMARK  26 active torsions:
REMARK  status: ('A' for Active; 'I' for Inactive)
REMARK    1  A    between atoms: C2_2  and  C3_3 
REMARK    2  A    between atoms: C4_6  and  C5_7 
REMARK       I    between atoms: C5_7  and  N2_9 
REMARK    3  A    between atoms: N2_9  and  C6_10 
REMARK    4  A    between atoms: C6_10  and  C7_11 
REMARK    5  A    between atoms: C6_10  and  C8_13 
REMARK       I    between atoms: C7_11  and  N3_14 
REMARK    6  A    between atoms: N3_14  and  C9_15 
REMARK    7  A    between atoms: C9_15  and  C10_16 
REMARK    8  A    between atoms: C9_15  and  C11_18 
REMARK       I    between atoms: C10_16  and  N4_21 
REMARK    9  A    between atoms: C11_18  and  C12_19 
REMARK   10  A    between atoms: C11_18  and  C13_20 
REMARK   11  A    between atoms: N4_21  and  C14_22 
REMARK   12  A    between atoms: C14_22  and  C15_23 
REMARK   13  A    between atoms: C14_22  and  C16_25 
REMARK       I    between atoms: C15_23  and  N6_40 
REMARK   14  A    between atoms: C16_25  and  C17_26 
REMARK   15  A    between atoms: C17_26  and  C18_27 
REMARK   16  A    between atoms: C17_26  and  C19_28 
REMARK   17  A    between atoms: C20_29  and  C21_30 
REMARK   18  A    between atoms: C20_29  and  C24_33 
REMARK   19  A    between atoms: C20_29  and  N6_40 
REMARK   20  A    between atoms: C21_30  and  C22_31 
REMARK   21  A    between atoms: C22_31  and  C23_32 
REMARK   22  A    between atoms: C23_32  and  O8_43 
REMARK   23  A    between atoms: C24_33  and  C25_34 
REMARK   24  A    between atoms: C28_38  and  O6_39 
REMARK   25  A    between atoms: C29_42  and  O8_43 
REMARK   26  A    between atoms: C29_42  and  C35_49 
ROOT
ATOM      1  C14 non d ame     -10.584   9.488  69.174  0.00  0.00     0.089 C 
ATOM      2  H20 non d ame     -11.285   8.687  68.942  0.00  0.00     0.087 H 
ENDROOT
BRANCH   1   3
ATOM      3  N4  non d ame      -9.303   9.137  68.578  0.00  0.00    -0.346 N 
ATOM      4  C10 non d ame      -9.063   7.743  68.056  0.00  0.00     0.241 C 
ATOM      5  O4  non d ame      -9.915   6.920  68.129  0.00  0.00    -0.271 OA
ATOM      6  H19 non d ame      -8.591   9.852  68.528  0.00  0.00     0.163 HD
BRANCH   4   7
ATOM      7  C9  non d ame      -7.734   7.398  67.438  0.00  0.00     0.092 C 
ATOM      8  H11 non d ame      -7.840   6.493  66.840  0.00  0.00     0.088 H 
BRANCH   7   9
ATOM      9  N3  non d ame      -7.325   8.472  66.527  0.00  0.00    -0.346 N 
ATOM     10  C7  non d ame      -7.105   8.190  65.131  0.00  0.00     0.240 C 
ATOM     11  O3  non d ame      -7.250   7.102  64.722  0.00  0.00    -0.271 OA
ATOM     12  H10 non d ame      -7.193   9.415  66.866  0.00  0.00     0.163 HD
BRANCH  10  13
ATOM     13  C6  non d ame      -6.666   9.336  64.168  0.00  0.00     0.086 C 
ATOM     14  H6  non d ame      -6.629   9.021  63.125  0.00  0.00     0.086 H 
BRANCH  13  15
ATOM     15  N2  non d ame      -7.641  10.412  64.242  0.00  0.00    -0.343 N 
ATOM     16  C5  non d ame      -8.952  10.242  63.611  0.00  0.00     0.273 C 
ATOM     17  O2  non d ame      -9.211   9.237  63.045  0.00  0.00    -0.266 OA
ATOM     18  H5  non d ame      -7.411  11.267  64.726  0.00  0.00     0.163 HD
BRANCH  16  19
ATOM     19  C4  non d ame      -9.993  11.370  63.684  0.00  0.00     0.154 A 
ATOM     20  C1  non d ame     -10.017  12.467  64.603  0.00  0.00    -0.017 A 
ATOM     21  C2  non d ame     -11.166  13.210  64.253  0.00  0.00     0.077 A 
ATOM     22  H1  non d ame      -9.308  12.690  65.401  0.00  0.00     0.091 H 
ATOM     23  O1  non d ame     -11.729  12.603  63.248  0.00  0.00    -0.218 OA
ATOM     24  N1  non d ame     -11.062  11.526  62.899  0.00  0.00    -0.123 NA
BRANCH  21  25
ATOM     25  C3  non d ame     -11.654  14.485  64.925  0.00  0.00    -0.029 C 
ATOM     26  H2  non d ame     -10.844  15.215  64.953  0.00  0.00     0.036 H 
ATOM     27  H3  non d ame     -12.492  14.895  64.362  0.00  0.00     0.036 H 
ATOM     28  H4  non d ame     -11.976  14.261  65.943  0.00  0.00     0.036 H 
ENDBRANCH  21  25
ENDBRANCH  16  19
ENDBRANCH  13  15
BRANCH  13  29
ATOM     29  C8  non d ame      -5.306   9.844  64.572  0.00  0.00    -0.049 C 
ATOM     30  H7  non d ame      -5.173  10.862  64.206  0.00  0.00     0.030 H 
ATOM     31  H8  non d ame      -5.224   9.836  65.660  0.00  0.00     0.030 H 
ATOM     32  H9  non d ame      -4.536   9.202  64.146  0.00  0.00     0.030 H 
ENDBRANCH  13  29
ENDBRANCH  10  13
ENDBRANCH   7   9
BRANCH   7  33
ATOM     33  C11 non d ame      -6.666   7.237  68.559  0.00  0.00    -0.033 C 
ATOM     34  H12 non d ame      -6.372   8.237  68.879  0.00  0.00     0.042 H 
BRANCH  33  35
ATOM     35  C12 non d ame      -7.254   6.500  69.802  0.00  0.00    -0.071 C 
ATOM     36  H13 non d ame      -7.090   7.105  70.694  0.00  0.00     0.028 H 
ATOM     37  H14 non d ame      -8.323   6.345  69.661  0.00  0.00     0.028 H 
ATOM     38  H15 non d ame      -6.759   5.536  69.920  0.00  0.00     0.028 H 
ENDBRANCH  33  35
BRANCH  33  39
ATOM     39  C13 non d ame      -5.393   6.509  68.018  0.00  0.00    -0.071 C 
ATOM     40  H16 non d ame      -4.501   7.003  68.403  0.00  0.00     0.028 H 
ATOM     41  H17 non d ame      -5.403   5.469  68.344  0.00  0.00     0.028 H 
ATOM     42  H18 non d ame      -5.389   6.549  66.929  0.00  0.00     0.028 H 
ENDBRANCH  33  39
ENDBRANCH   7  33
ENDBRANCH   4   7
ENDBRANCH   1   3
BRANCH   1  43
ATOM     43  C15 non d ame     -11.042  10.856  68.592  0.00  0.00     0.240 C 
ATOM     44  O5  non d ame     -11.933  10.896  67.805  0.00  0.00    -0.271 OA
ATOM     45  N6  non d ame     -10.377  12.119  69.021  0.00  0.00    -0.355 N 
ATOM     46  H46 non d ame      -9.622  12.099  69.692  0.00  0.00     0.162 HD
BRANCH  45  47
ATOM     47  C20 non d ame     -10.825  13.412  68.460  0.00  0.00     0.013 C 
ATOM     48  H30 non d ame     -10.928  13.291  67.382  0.00  0.00     0.072 H 
BRANCH  47  49
ATOM     49  C21 non d ame      -9.793  14.474  68.764  0.00  0.00    -0.038 C 
ATOM     50  H31 non d ame     -10.332  15.268  69.282  0.00  0.00     0.036 H 
ATOM     51  H32 non d ame      -8.975  13.954  69.263  0.00  0.00     0.036 H 
BRANCH  49  52
ATOM     52  C22 non d ame      -9.194  15.109  67.491  0.00  0.00     0.018 C 
ATOM     53  H33 non d ame      -8.115  15.124  67.647  0.00  0.00     0.048 H 
ATOM     54  H34 non d ame      -9.616  14.551  66.655  0.00  0.00     0.048 H 
BRANCH  52  55
ATOM     55  C23 non d ame      -9.613  16.590  67.274  0.00  0.00     0.259 C 
ATOM     56  O7  non d ame     -10.682  16.971  67.626  0.00  0.00    -0.265 OA
BRANCH  55  57
ATOM     57  O8  non d ame      -8.711  17.484  66.634  0.00  0.00    -0.317 OA
BRANCH  57  58
ATOM     58  C29 non d ame      -9.036  18.866  66.809  0.00  0.00     0.052 C 
ATOM     59  H47 non d ame      -9.114  19.280  65.805  0.00  0.00     0.082 H 
ATOM     60  H48 non d ame      -9.900  18.883  67.474  0.00  0.00     0.082 H 
BRANCH  58  61
ATOM     61  C35 non d ame      -7.846  19.550  67.533  0.00  0.00    -0.034 A 
ATOM     62  C30 non d ame      -7.544  19.214  68.848  0.00  0.00    -0.075 A 
ATOM     63  C31 non d ame      -6.475  19.829  69.498  0.00  0.00    -0.082 A 
ATOM     64  H49 non d ame      -8.144  18.469  69.369  0.00  0.00     0.084 H 
ATOM     65  C32 non d ame      -5.708  20.786  68.828  0.00  0.00    -0.083 A 
ATOM     66  H50 non d ame      -6.240  19.562  70.528  0.00  0.00     0.083 H 
ATOM     67  C33 non d ame      -6.015  21.121  67.516  0.00  0.00    -0.082 A 
ATOM     68  H51 non d ame      -4.871  21.271  69.328  0.00  0.00     0.083 H 
ATOM     69  C34 non d ame      -7.082  20.507  66.862  0.00  0.00    -0.075 A 
ATOM     70  H52 non d ame      -5.417  21.870  66.997  0.00  0.00     0.083 H 
ATOM     71  H53 non d ame      -7.316  20.775  65.831  0.00  0.00     0.084 H 
ENDBRANCH  58  61
ENDBRANCH  57  58
ENDBRANCH  55  57
ENDBRANCH  52  55
ENDBRANCH  49  52
ENDBRANCH  47  49
BRANCH  47  72
ATOM     72  C24 non d ame     -12.163  13.807  69.080  0.00  0.00    -0.039 C 
ATOM     73  H35 non d ame     -12.522  14.647  68.485  0.00  0.00     0.036 H 
ATOM     74  H36 non d ame     -12.745  12.887  69.129  0.00  0.00     0.036 H 
BRANCH  72  75
ATOM     75  C25 non d ame     -11.987  14.334  70.583  0.00  0.00    -0.001 C 
ATOM     76  C26 non d ame     -12.891  13.420  71.608  0.00  0.00    -0.035 C 
ATOM     77  C27 non d ame     -13.652  14.241  72.370  0.00  0.00     0.085 C 
ATOM     78  H38 non d ame     -13.625  12.844  71.044  0.00  0.00     0.036 H 
ATOM     79  H39 non d ame     -12.247  12.922  72.333  0.00  0.00     0.036 H 
ATOM     80  N5  non d ame     -13.592  15.611  71.739  0.00  0.00    -0.049 N 
ATOM     81  H40 non d ame     -14.669  13.857  72.289  0.00  0.00     0.075 H 
ATOM     82  H41 non d ame     -13.158  14.277  73.341  0.00  0.00     0.075 H 
ATOM     83  C28 non d ame     -12.362  15.565  70.694  0.00  0.00     0.193 C 
ATOM     84  H42 non d ame     -14.450  15.725  71.219  0.00  0.00     0.280 HD
ATOM     85  H43 non d ame     -13.360  16.258  72.479  0.00  0.00     0.280 HD
ATOM     86  H44 non d ame     -11.411  16.042  70.936  0.00  0.00     0.129 H 
ATOM     87  H37 non d ame     -10.940  14.486  70.847  0.00  0.00     0.046 H 
BRANCH  83  88
ATOM     88  O6  non d ame     -12.760  16.123  69.440  0.00  0.00    -0.369 OA
ATOM     89  H45 non d ame     -13.574  15.706  69.149  0.00  0.00     0.212 HD
ENDBRANCH  83  88
ENDBRANCH  72  75
ENDBRANCH  47  72
ENDBRANCH  45  47
ENDBRANCH   1  43
BRANCH   1  90
ATOM     90  C16 non d ame     -10.415   9.605  70.681  0.00  0.00    -0.035 C 
ATOM     91  H21 non d ame      -9.500   9.060  70.912  0.00  0.00     0.037 H 
ATOM     92  H22 non d ame     -10.484  10.670  70.897  0.00  0.00     0.037 H 
BRANCH  90  93
ATOM     93  C17 non d ame     -11.555   8.914  71.494  0.00  0.00    -0.059 C 
ATOM     94  H23 non d ame     -11.232   8.855  72.533  0.00  0.00     0.038 H 
BRANCH  93  95
ATOM     95  C18 non d ame     -12.887   9.728  71.453  0.00  0.00    -0.073 C 
ATOM     96  H24 non d ame     -13.224   9.924  72.472  0.00  0.00     0.028 H 
ATOM     97  H25 non d ame     -12.718  10.675  70.939  0.00  0.00     0.028 H 
ATOM     98  H26 non d ame     -13.647   9.157  70.922  0.00  0.00     0.028 H 
ENDBRANCH  93  95
BRANCH  93  99
ATOM     99  C19 non d ame     -11.780   7.479  71.008  0.00  0.00    -0.073 C 
ATOM    100  H27 non d ame     -11.067   6.815  71.497  0.00  0.00     0.028 H 
ATOM    101  H28 non d ame     -12.795   7.166  71.254  0.00  0.00     0.028 H 
ATOM    102  H29 non d ame     -11.636   7.434  69.929  0.00  0.00     0.028 H 
ENDBRANCH  93  99
ENDBRANCH  90  93
ENDBRANCH   1  90
TORSDOF 26
ENDMDL
MODEL 6
REMARK VINA RESULT:      -6.3      2.588      6.670
REMARK  26 active torsions:
REMARK  status: ('A' for Active; 'I' for Inactive)
REMARK    1  A    between atoms: C2_2  and  C3_3 
REMARK    2  A    between atoms: C4_6  and  C5_7 
REMARK       I    between atoms: C5_7  and  N2_9 
REMARK    3  A    between atoms: N2_9  and  C6_10 
REMARK    4  A    between atoms: C6_10  and  C7_11 
REMARK    5  A    between atoms: C6_10  and  C8_13 
REMARK       I    between atoms: C7_11  and  N3_14 
REMARK    6  A    between atoms: N3_14  and  C9_15 
REMARK    7  A    between atoms: C9_15  and  C10_16 
REMARK    8  A    between atoms: C9_15  and  C11_18 
REMARK       I    between atoms: C10_16  and  N4_21 
REMARK    9  A    between atoms: C11_18  and  C12_19 
REMARK   10  A    between atoms: C11_18  and  C13_20 
REMARK   11  A    between atoms: N4_21  and  C14_22 
REMARK   12  A    between atoms: C14_22  and  C15_23 
REMARK   13  A    between atoms: C14_22  and  C16_25 
REMARK       I    between atoms: C15_23  and  N6_40 
REMARK   14  A    between atoms: C16_25  and  C17_26 
REMARK   15  A    between atoms: C17_26  and  C18_27 
REMARK   16  A    between atoms: C17_26  and  C19_28 
REMARK   17  A    between atoms: C20_29  and  C21_30 
REMARK   18  A    between atoms: C20_29  and  C24_33 
REMARK   19  A    between atoms: C20_29  and  N6_40 
REMARK   20  A    between atoms: C21_30  and  C22_31 
REMARK   21  A    between atoms: C22_31  and  C23_32 
REMARK   22  A    between atoms: C23_32  and  O8_43 
REMARK   23  A    between atoms: C24_33  and  C25_34 
REMARK   24  A    between atoms: C28_38  and  O6_39 
REMARK   25  A    between atoms: C29_42  and  O8_43 
REMARK   26  A    between atoms: C29_42  and  C35_49 
ROOT
ATOM      1  C14 non d ame     -11.170   9.656  70.112  0.00  0.00     0.089 C 
ATOM      2  H20 non d ame     -11.533   8.739  69.649  0.00  0.00     0.087 H 
ENDROOT
BRANCH   1   3
ATOM      3  N4  non d ame      -9.716   9.600  70.115  0.00  0.00    -0.346 N 
ATOM      4  C10 non d ame      -9.000   8.369  69.619  0.00  0.00     0.241 C 
ATOM      5  O4  non d ame      -9.616   7.434  69.224  0.00  0.00    -0.271 OA
ATOM      6  H19 non d ame      -9.210  10.405  70.458  0.00  0.00     0.163 HD
BRANCH   4   7
ATOM      7  C9  non d ame      -7.494   8.330  69.624  0.00  0.00     0.092 C 
ATOM      8  H11 non d ame      -7.162   7.295  69.704  0.00  0.00     0.088 H 
BRANCH   7   9
ATOM      9  N3  non d ame      -6.987   8.850  68.351  0.00  0.00    -0.346 N 
ATOM     10  C7  non d ame      -6.481   7.942  67.351  0.00  0.00     0.240 C 
ATOM     11  O3  non d ame      -6.473   6.789  67.556  0.00  0.00    -0.271 OA
ATOM     12  H10 non d ame      -6.986   9.842  68.162  0.00  0.00     0.163 HD
BRANCH  10  13
ATOM     13  C6  non d ame      -5.940   8.502  66.000  0.00  0.00     0.086 C 
ATOM     14  H6  non d ame      -5.791   7.725  65.250  0.00  0.00     0.086 H 
BRANCH  13  15
ATOM     15  N2  non d ame      -6.915   9.430  65.450  0.00  0.00    -0.343 N 
ATOM     16  C5  non d ame      -8.067   8.910  64.711  0.00  0.00     0.273 C 
ATOM     17  O2  non d ame      -8.200   7.745  64.563  0.00  0.00    -0.266 OA
ATOM     18  H5  non d ame      -6.793  10.423  65.579  0.00  0.00     0.163 HD
BRANCH  16  19
ATOM     19  C4  non d ame      -9.107   9.878  64.126  0.00  0.00     0.154 A 
ATOM     20  C1  non d ame     -10.105  10.611  64.843  0.00  0.00    -0.017 A 
ATOM     21  C2  non d ame     -10.797  11.347  63.855  0.00  0.00     0.077 A 
ATOM     22  H1  non d ame     -10.299  10.610  65.916  0.00  0.00     0.091 H 
ATOM     23  O1  non d ame     -10.250  11.064  62.708  0.00  0.00    -0.218 OA
ATOM     24  N1  non d ame      -9.263  10.208  62.841  0.00  0.00    -0.123 NA
BRANCH  21  25
ATOM     25  C3  non d ame     -11.963  12.298  64.090  0.00  0.00    -0.029 C 
ATOM     26  H2  non d ame     -12.880  11.723  64.226  0.00  0.00     0.036 H 
ATOM     27  H3  non d ame     -11.772  12.893  64.982  0.00  0.00     0.036 H 
ATOM     28  H4  non d ame     -12.073  12.959  63.230  0.00  0.00     0.036 H 
ENDBRANCH  21  25
ENDBRANCH  16  19
ENDBRANCH  13  15
BRANCH  13  29
ATOM     29  C8  non d ame      -4.630   9.210  66.234  0.00  0.00    -0.049 C 
ATOM     30  H7  non d ame      -4.802  10.285  66.295  0.00  0.00     0.030 H 
ATOM     31  H8  non d ame      -4.189   8.859  67.168  0.00  0.00     0.030 H 
ATOM     32  H9  non d ame      -3.950   8.999  65.410  0.00  0.00     0.030 H 
ENDBRANCH  13  29
ENDBRANCH  10  13
ENDBRANCH   7   9
BRANCH   7  33
ATOM     33  C11 non d ame      -6.956   9.208  70.792  0.00  0.00    -0.033 C 
ATOM     34  H12 non d ame      -7.815   9.675  71.274  0.00  0.00     0.042 H 
BRANCH  33  35
ATOM     35  C12 non d ame      -6.229   8.342  71.867  0.00  0.00    -0.071 C 
ATOM     36  H13 non d ame      -6.903   8.161  72.704  0.00  0.00     0.028 H 
ATOM     37  H14 non d ame      -5.934   7.389  71.427  0.00  0.00     0.028 H 
ATOM     38  H15 non d ame      -5.343   8.869  72.219  0.00  0.00     0.028 H 
ENDBRANCH  33  35
BRANCH  33  39
ATOM     39  C13 non d ame      -6.027  10.343  70.255  0.00  0.00    -0.071 C 
ATOM     40  H16 non d ame      -6.104  10.393  69.169  0.00  0.00     0.028 H 
ATOM     41  H17 non d ame      -6.330  11.297  70.687  0.00  0.00     0.028 H 
ATOM     42  H18 non d ame      -4.995  10.129  70.535  0.00  0.00     0.028 H 
ENDBRANCH  33  39
ENDBRANCH   7  33
ENDBRANCH   4   7
ENDBRANCH   1   3
BRANCH   1  43
ATOM     43  C15 non d ame     -11.614  10.925  69.330  0.00  0.00     0.240 C 
ATOM     44  O5  non d ame     -12.056  10.818  68.231  0.00  0.00    -0.271 OA
ATOM     45  N6  non d ame     -11.499  12.274  69.954  0.00  0.00    -0.355 N 
ATOM     46  H46 non d ame     -11.130  12.377  70.888  0.00  0.00     0.162 HD
BRANCH  45  47
ATOM     47  C20 non d ame     -11.927  13.470  69.198  0.00  0.00     0.013 C 
ATOM     48  H30 non d ame     -12.566  13.139  68.379  0.00  0.00     0.072 H 
BRANCH  47  49
ATOM     49  C21 non d ame     -10.709  14.177  68.648  0.00  0.00    -0.038 C 
ATOM     50  H31 non d ame     -10.990  15.228  68.567  0.00  0.00     0.036 H 
ATOM     51  H32 non d ame      -9.881  13.882  69.293  0.00  0.00     0.036 H 
BRANCH  49  52
ATOM     52  C22 non d ame     -10.338  13.712  67.223  0.00  0.00     0.018 C 
ATOM     53  H33 non d ame     -10.352  12.622  67.255  0.00  0.00     0.048 H 
ATOM     54  H34 non d ame     -11.013  14.246  66.553  0.00  0.00     0.048 H 
BRANCH  52  55
ATOM     55  C23 non d ame      -8.900  14.110  66.790  0.00  0.00     0.259 C 
ATOM     56  O7  non d ame      -7.987  13.375  66.987  0.00  0.00    -0.265 OA
BRANCH  55  57
ATOM     57  O8  non d ame      -8.682  15.369  66.167  0.00  0.00    -0.317 OA
BRANCH  57  58
ATOM     58  C29 non d ame      -9.883  16.065  65.822  0.00  0.00     0.052 C 
ATOM     59  H47 non d ame      -9.800  16.288  64.759  0.00  0.00     0.082 H 
ATOM     60  H48 non d ame     -10.700  15.441  66.185  0.00  0.00     0.082 H 
BRANCH  58  61
ATOM     61  C35 non d ame      -9.903  17.404  66.605  0.00  0.00    -0.034 A 
ATOM     62  C30 non d ame      -9.332  17.479  67.871  0.00  0.00    -0.075 A 
ATOM     63  C31 non d ame      -9.350  18.682  68.575  0.00  0.00    -0.082 A 
ATOM     64  H49 non d ame      -8.872  16.596  68.312  0.00  0.00     0.084 H 
ATOM     65  C32 non d ame      -9.943  19.814  68.008  0.00  0.00    -0.083 A 
ATOM     66  H50 non d ame      -8.901  18.738  69.566  0.00  0.00     0.083 H 
ATOM     67  C33 non d ame     -10.514  19.734  66.745  0.00  0.00    -0.082 A 
ATOM     68  H51 non d ame      -9.961  20.758  68.551  0.00  0.00     0.083 H 
ATOM     69  C34 non d ame     -10.496  18.533  66.037  0.00  0.00    -0.075 A 
ATOM     70  H52 non d ame     -10.978  20.618  66.306  0.00  0.00     0.083 H 
ATOM     71  H53 non d ame     -10.946  18.479  65.045  0.00  0.00     0.084 H 
ENDBRANCH  58  61
ENDBRANCH  57  58
ENDBRANCH  55  57
ENDBRANCH  52  55
ENDBRANCH  49  52
ENDBRANCH  47  49
BRANCH  47  72
ATOM     72  C24 non d ame     -12.694  14.416  70.119  0.00  0.00    -0.039 C 
ATOM     73  H35 non d ame     -12.655  15.391  69.633  0.00  0.00     0.036 H 
ATOM     74  H36 non d ame     -13.655  13.934  70.296  0.00  0.00     0.036 H 
BRANCH  72  75
ATOM     75  C25 non d ame     -11.973  14.570  71.542  0.00  0.00    -0.001 C 
ATOM     76  C26 non d ame     -13.049  14.273  72.750  0.00  0.00    -0.035 C 
ATOM     77  C27 non d ame     -13.007  15.299  73.633  0.00  0.00     0.085 C 
ATOM     78  H38 non d ame     -14.066  14.313  72.362  0.00  0.00     0.036 H 
ATOM     79  H39 non d ame     -12.723  13.416  73.339  0.00  0.00     0.036 H 
ATOM     80  N5  non d ame     -12.242  16.420  72.973  0.00  0.00    -0.049 N 
ATOM     81  H40 non d ame     -14.044  15.609  73.771  0.00  0.00     0.075 H 
ATOM     82  H41 non d ame     -12.432  14.929  74.482  0.00  0.00     0.075 H 
ATOM     83  C28 non d ame     -11.499  15.761  71.700  0.00  0.00     0.193 C 
ATOM     84  H42 non d ame     -12.931  17.078  72.638  0.00  0.00     0.280 HD
ATOM     85  H43 non d ame     -11.540  16.718  73.635  0.00  0.00     0.280 HD
ATOM     86  H44 non d ame     -10.430  15.547  71.732  0.00  0.00     0.129 H 
ATOM     87  H37 non d ame     -11.023  14.038  71.583  0.00  0.00     0.046 H 
BRANCH  83  88
ATOM     88  O6  non d ame     -11.691  16.575  70.542  0.00  0.00    -0.369 OA
ATOM     89  H45 non d ame     -10.867  17.014  70.319  0.00  0.00     0.212 HD
ENDBRANCH  83  88
ENDBRANCH  72  75
ENDBRANCH  47  72
ENDBRANCH  45  47
ENDBRANCH   1  43
BRANCH   1  90
ATOM     90  C16 non d ame     -11.667   9.739  71.547  0.00  0.00    -0.035 C 
ATOM     91  H21 non d ame     -10.768   9.737  72.164  0.00  0.00     0.037 H 
ATOM     92  H22 non d ame     -12.340  10.595  71.569  0.00  0.00     0.037 H 
BRANCH  90  93
ATOM     93  C17 non d ame     -12.509   8.502  71.991  0.00  0.00    -0.059 C 
ATOM     94  H23 non d ame     -12.109   8.154  72.943  0.00  0.00     0.038 H 
BRANCH  93  95
ATOM     95  C18 non d ame     -14.014   8.859  72.208  0.00  0.00    -0.073 C 
ATOM     96  H24 non d ame     -14.639   8.117  71.711  0.00  0.00     0.028 H 
ATOM     97  H25 non d ame     -14.236   8.863  73.275  0.00  0.00     0.028 H 
ATOM     98  H26 non d ame     -14.218   9.845  71.791  0.00  0.00     0.028 H 
ENDBRANCH  93  95
BRANCH  93  99
ATOM     99  C19 non d ame     -12.361   7.353  70.989  0.00  0.00    -0.073 C 
ATOM    100  H27 non d ame     -11.373   7.396  70.531  0.00  0.00     0.028 H 
ATOM    101  H28 non d ame     -12.481   6.402  71.508  0.00  0.00     0.028 H 
ATOM    102  H29 non d ame     -13.124   7.444  70.217  0.00  0.00     0.028 H 
ENDBRANCH  93  99
ENDBRANCH  90  93
ENDBRANCH   1  90
TORSDOF 26
ENDMDL
MODEL 7
REMARK VINA RESULT:      -6.3      2.500      7.620
REMARK  26 active torsions:
REMARK  status: ('A' for Active; 'I' for Inactive)
REMARK    1  A    between atoms: C2_2  and  C3_3 
REMARK    2  A    between atoms: C4_6  and  C5_7 
REMARK       I    between atoms: C5_7  and  N2_9 
REMARK    3  A    between atoms: N2_9  and  C6_10 
REMARK    4  A    between atoms: C6_10  and  C7_11 
REMARK    5  A    between atoms: C6_10  and  C8_13 
REMARK       I    between atoms: C7_11  and  N3_14 
REMARK    6  A    between atoms: N3_14  and  C9_15 
REMARK    7  A    between atoms: C9_15  and  C10_16 
REMARK    8  A    between atoms: C9_15  and  C11_18 
REMARK       I    between atoms: C10_16  and  N4_21 
REMARK    9  A    between atoms: C11_18  and  C12_19 
REMARK   10  A    between atoms: C11_18  and  C13_20 
REMARK   11  A    between atoms: N4_21  and  C14_22 
REMARK   12  A    between atoms: C14_22  and  C15_23 
REMARK   13  A    between atoms: C14_22  and  C16_25 
REMARK       I    between atoms: C15_23  and  N6_40 
REMARK   14  A    between atoms: C16_25  and  C17_26 
REMARK   15  A    between atoms: C17_26  and  C18_27 
REMARK   16  A    between atoms: C17_26  and  C19_28 
REMARK   17  A    between atoms: C20_29  and  C21_30 
REMARK   18  A    between atoms: C20_29  and  C24_33 
REMARK   19  A    between atoms: C20_29  and  N6_40 
REMARK   20  A    between atoms: C21_30  and  C22_31 
REMARK   21  A    between atoms: C22_31  and  C23_32 
REMARK   22  A    between atoms: C23_32  and  O8_43 
REMARK   23  A    between atoms: C24_33  and  C25_34 
REMARK   24  A    between atoms: C28_38  and  O6_39 
REMARK   25  A    between atoms: C29_42  and  O8_43 
REMARK   26  A    between atoms: C29_42  and  C35_49 
ROOT
ATOM      1  C14 non d ame      -7.809   9.396  64.011  0.00  0.00     0.089 C 
ATOM      2  H20 non d ame      -7.037   9.905  64.588  0.00  0.00     0.087 H 
ENDROOT
BRANCH   1   3
ATOM      3  N4  non d ame      -8.142   8.166  64.713  0.00  0.00    -0.346 N 
ATOM      4  C10 non d ame      -8.005   8.083  66.213  0.00  0.00     0.241 C 
ATOM      5  O4  non d ame      -7.622   9.020  66.833  0.00  0.00    -0.271 OA
ATOM      6  H19 non d ame      -8.464   7.379  64.166  0.00  0.00     0.163 HD
BRANCH   4   7
ATOM      7  C9  non d ame      -8.359   6.804  66.923  0.00  0.00     0.092 C 
ATOM      8  H11 non d ame      -7.498   6.136  66.910  0.00  0.00     0.088 H 
BRANCH   7   9
ATOM      9  N3  non d ame      -8.660   7.092  68.329  0.00  0.00    -0.346 N 
ATOM     10  C7  non d ame      -7.891   6.465  69.375  0.00  0.00     0.240 C 
ATOM     11  O3  non d ame      -7.027   5.724  69.104  0.00  0.00    -0.271 OA
ATOM     12  H10 non d ame      -9.404   7.728  68.578  0.00  0.00     0.163 HD
BRANCH  10  13
ATOM     13  C6  non d ame      -8.219   6.774  70.869  0.00  0.00     0.086 C 
ATOM     14  H6  non d ame      -7.782   7.712  71.212  0.00  0.00     0.086 H 
BRANCH  13  15
ATOM     15  N2  non d ame      -9.659   6.907  71.017  0.00  0.00    -0.343 N 
ATOM     16  C5  non d ame     -10.206   8.055  71.745  0.00  0.00     0.273 C 
ATOM     17  O2  non d ame      -9.479   8.864  72.208  0.00  0.00    -0.266 OA
ATOM     18  H5  non d ame     -10.273   6.211  70.620  0.00  0.00     0.163 HD
BRANCH  16  19
ATOM     19  C4  non d ame     -11.726   8.210  71.907  0.00  0.00     0.154 A 
ATOM     20  C1  non d ame     -12.727   7.217  71.662  0.00  0.00    -0.017 A 
ATOM     21  C2  non d ame     -13.952   7.855  71.958  0.00  0.00     0.077 A 
ATOM     22  H1  non d ame     -12.587   6.191  71.321  0.00  0.00     0.091 H 
ATOM     23  O1  non d ame     -13.676   9.071  72.331  0.00  0.00    -0.218 OA
ATOM     24  N1  non d ame     -12.383   9.302  72.309  0.00  0.00    -0.123 NA
BRANCH  21  25
ATOM     25  C3  non d ame     -15.339   7.234  71.862  0.00  0.00    -0.029 C 
ATOM     26  H2  non d ame     -15.552   6.675  72.774  0.00  0.00     0.036 H 
ATOM     27  H3  non d ame     -16.082   8.021  71.737  0.00  0.00     0.036 H 
ATOM     28  H4  non d ame     -15.377   6.560  71.006  0.00  0.00     0.036 H 
ENDBRANCH  21  25
ENDBRANCH  16  19
ENDBRANCH  13  15
BRANCH  13  29
ATOM     29  C8  non d ame      -7.712   5.653  71.740  0.00  0.00    -0.049 C 
ATOM     30  H7  non d ame      -6.664   5.461  71.513  0.00  0.00     0.030 H 
ATOM     31  H8  non d ame      -7.811   5.936  72.789  0.00  0.00     0.030 H 
ATOM     32  H9  non d ame      -8.295   4.753  71.550  0.00  0.00     0.030 H 
ENDBRANCH  13  29
ENDBRANCH  10  13
ENDBRANCH   7   9
BRANCH   7  33
ATOM     33  C11 non d ame      -9.608   6.163  66.249  0.00  0.00    -0.033 C 
ATOM     34  H12 non d ame      -9.718   6.618  65.264  0.00  0.00     0.042 H 
BRANCH  33  35
ATOM     35  C12 non d ame      -9.416   4.629  66.039  0.00  0.00    -0.071 C 
ATOM     36  H13 non d ame      -9.971   4.311  65.156  0.00  0.00     0.028 H 
ATOM     37  H14 non d ame      -8.357   4.411  65.899  0.00  0.00     0.028 H 
ATOM     38  H15 non d ame      -9.784   4.094  66.914  0.00  0.00     0.028 H 
ENDBRANCH  33  35
BRANCH  33  39
ATOM     39  C13 non d ame     -10.903   6.465  67.069  0.00  0.00    -0.071 C 
ATOM     40  H16 non d ame     -11.599   7.034  66.452  0.00  0.00     0.028 H 
ATOM     41  H17 non d ame     -11.368   5.528  67.373  0.00  0.00     0.028 H 
ATOM     42  H18 non d ame     -10.644   7.046  67.954  0.00  0.00     0.028 H 
ENDBRANCH  33  39
ENDBRANCH   7  33
ENDBRANCH   4   7
ENDBRANCH   1   3
BRANCH   1  43
ATOM     43  C15 non d ame      -9.101  10.253  63.874  0.00  0.00     0.240 C 
ATOM     44  O5  non d ame      -9.723  10.227  62.861  0.00  0.00    -0.271 OA
ATOM     45  N6  non d ame      -9.567  11.100  65.009  0.00  0.00    -0.355 N 
ATOM     46  H46 non d ame      -9.049  11.128  65.875  0.00  0.00     0.162 HD
BRANCH  45  47
ATOM     47  C20 non d ame     -10.797  11.908  64.863  0.00  0.00     0.013 C 
ATOM     48  H30 non d ame     -11.400  11.460  64.074  0.00  0.00     0.072 H 
BRANCH  47  49
ATOM     49  C21 non d ame     -10.424  13.324  64.487  0.00  0.00    -0.038 C 
ATOM     50  H31 non d ame      -9.839  13.707  65.323  0.00  0.00     0.036 H 
ATOM     51  H32 non d ame      -9.977  13.256  63.494  0.00  0.00     0.036 H 
BRANCH  49  52
ATOM     52  C22 non d ame     -11.651  14.251  64.350  0.00  0.00     0.018 C 
ATOM     53  H33 non d ame     -11.889  14.272  63.286  0.00  0.00     0.048 H 
ATOM     54  H34 non d ame     -12.384  13.877  65.065  0.00  0.00     0.048 H 
BRANCH  52  55
ATOM     55  C23 non d ame     -11.370  15.725  64.754  0.00  0.00     0.259 C 
ATOM     56  O7  non d ame     -11.582  16.610  63.991  0.00  0.00    -0.265 OA
BRANCH  55  57
ATOM     57  O8  non d ame     -10.841  16.006  66.044  0.00  0.00    -0.317 OA
BRANCH  57  58
ATOM     58  C29 non d ame      -9.982  17.149  66.087  0.00  0.00     0.052 C 
ATOM     59  H47 non d ame      -9.920  17.511  65.061  0.00  0.00     0.082 H 
ATOM     60  H48 non d ame     -10.388  17.794  66.867  0.00  0.00     0.082 H 
BRANCH  58  61
ATOM     61  C35 non d ame      -8.572  16.674  66.527  0.00  0.00    -0.034 A 
ATOM     62  C30 non d ame      -7.480  17.525  66.401  0.00  0.00    -0.075 A 
ATOM     63  C31 non d ame      -6.213  17.098  66.796  0.00  0.00    -0.082 A 
ATOM     64  H49 non d ame      -7.615  18.526  65.993  0.00  0.00     0.084 H 
ATOM     65  C32 non d ame      -6.041  15.813  67.317  0.00  0.00    -0.083 A 
ATOM     66  H50 non d ame      -5.359  17.768  66.698  0.00  0.00     0.083 H 
ATOM     67  C33 non d ame      -7.134  14.965  67.438  0.00  0.00    -0.082 A 
ATOM     68  H51 non d ame      -5.054  15.471  67.629  0.00  0.00     0.083 H 
ATOM     69  C34 non d ame      -8.402  15.389  67.046  0.00  0.00    -0.075 A 
ATOM     70  H52 non d ame      -6.996  13.962  67.843  0.00  0.00     0.083 H 
ATOM     71  H53 non d ame      -9.256  14.718  67.146  0.00  0.00     0.084 H 
ENDBRANCH  58  61
ENDBRANCH  57  58
ENDBRANCH  55  57
ENDBRANCH  52  55
ENDBRANCH  49  52
ENDBRANCH  47  49
BRANCH  47  72
ATOM     72  C24 non d ame     -11.568  11.916  66.181  0.00  0.00    -0.039 C 
ATOM     73  H35 non d ame     -12.137  12.846  66.179  0.00  0.00     0.036 H 
ATOM     74  H36 non d ame     -12.088  10.959  66.220  0.00  0.00     0.036 H 
BRANCH  72  75
ATOM     75  C25 non d ame     -10.582  11.969  67.443  0.00  0.00    -0.001 C 
ATOM     76  C26 non d ame     -10.679  10.562  68.289  0.00  0.00    -0.035 C 
ATOM     77  C27 non d ame     -10.900  10.851  69.594  0.00  0.00     0.085 C 
ATOM     78  H38 non d ame     -11.572  10.011  67.996  0.00  0.00     0.036 H 
ATOM     79  H39 non d ame      -9.709  10.064  68.299  0.00  0.00     0.036 H 
ATOM     80  N5  non d ame     -11.287  12.308  69.664  0.00  0.00    -0.049 N 
ATOM     81  H40 non d ame     -11.754  10.242  69.887  0.00  0.00     0.075 H 
ATOM     82  H41 non d ame      -9.938  10.716  70.088  0.00  0.00     0.075 H 
ATOM     83  C28 non d ame     -10.888  12.944  68.234  0.00  0.00     0.193 C 
ATOM     84  H42 non d ame     -12.293  12.333  69.757  0.00  0.00     0.280 HD
ATOM     85  H43 non d ame     -10.705  12.726  70.375  0.00  0.00     0.280 HD
ATOM     86  H44 non d ame      -9.999  13.567  68.134  0.00  0.00     0.129 H 
ATOM     87  H37 non d ame      -9.586  12.319  67.175  0.00  0.00     0.046 H 
BRANCH  83  88
ATOM     88  O6  non d ame     -11.966  13.732  67.727  0.00  0.00    -0.369 OA
ATOM     89  H45 non d ame     -12.061  14.524  68.261  0.00  0.00     0.212 HD
ENDBRANCH  83  88
ENDBRANCH  72  75
ENDBRANCH  47  72
ENDBRANCH  45  47
ENDBRANCH   1  43
BRANCH   1  90
ATOM     90  C16 non d ame      -7.276   9.051  62.629  0.00  0.00    -0.035 C 
ATOM     91  H21 non d ame      -7.488   7.990  62.495  0.00  0.00     0.037 H 
ATOM     92  H22 non d ame      -7.722   9.784  61.957  0.00  0.00     0.037 H 
BRANCH  90  93
ATOM     93  C17 non d ame      -5.729   9.212  62.497  0.00  0.00    -0.059 C 
ATOM     94  H23 non d ame      -5.507   9.421  61.450  0.00  0.00     0.038 H 
BRANCH  93  95
ATOM     95  C18 non d ame      -5.184  10.403  63.347  0.00  0.00    -0.073 C 
ATOM     96  H24 non d ame      -4.153  10.201  63.638  0.00  0.00     0.028 H 
ATOM     97  H25 non d ame      -5.221  11.319  62.756  0.00  0.00     0.028 H 
ATOM     98  H26 non d ame      -5.798  10.524  64.240  0.00  0.00     0.028 H 
ENDBRANCH  93  95
BRANCH  93  99
ATOM     99  C19 non d ame      -5.011   7.910  62.861  0.00  0.00    -0.073 C 
ATOM    100  H27 non d ame      -5.586   7.378  63.619  0.00  0.00     0.028 H 
ATOM    101  H28 non d ame      -4.918   7.286  61.972  0.00  0.00     0.028 H 
ATOM    102  H29 non d ame      -4.020   8.138  63.251  0.00  0.00     0.028 H 
ENDBRANCH  93  99
ENDBRANCH  90  93
ENDBRANCH   1  90
TORSDOF 26
ENDMDL
MODEL 8
REMARK VINA RESULT:      -6.2      2.596      6.255
REMARK  26 active torsions:
REMARK  status: ('A' for Active; 'I' for Inactive)
REMARK    1  A    between atoms: C2_2  and  C3_3 
REMARK    2  A    between atoms: C4_6  and  C5_7 
REMARK       I    between atoms: C5_7  and  N2_9 
REMARK    3  A    between atoms: N2_9  and  C6_10 
REMARK    4  A    between atoms: C6_10  and  C7_11 
REMARK    5  A    between atoms: C6_10  and  C8_13 
REMARK       I    between atoms: C7_11  and  N3_14 
REMARK    6  A    between atoms: N3_14  and  C9_15 
REMARK    7  A    between atoms: C9_15  and  C10_16 
REMARK    8  A    between atoms: C9_15  and  C11_18 
REMARK       I    between atoms: C10_16  and  N4_21 
REMARK    9  A    between atoms: C11_18  and  C12_19 
REMARK   10  A    between atoms: C11_18  and  C13_20 
REMARK   11  A    between atoms: N4_21  and  C14_22 
REMARK   12  A    between atoms: C14_22  and  C15_23 
REMARK   13  A    between atoms: C14_22  and  C16_25 
REMARK       I    between atoms: C15_23  and  N6_40 
REMARK   14  A    between atoms: C16_25  and  C17_26 
REMARK   15  A    between atoms: C17_26  and  C18_27 
REMARK   16  A    between atoms: C17_26  and  C19_28 
REMARK   17  A    between atoms: C20_29  and  C21_30 
REMARK   18  A    between atoms: C20_29  and  C24_33 
REMARK   19  A    between atoms: C20_29  and  N6_40 
REMARK   20  A    between atoms: C21_30  and  C22_31 
REMARK   21  A    between atoms: C22_31  and  C23_32 
REMARK   22  A    between atoms: C23_32  and  O8_43 
REMARK   23  A    between atoms: C24_33  and  C25_34 
REMARK   24  A    between atoms: C28_38  and  O6_39 
REMARK   25  A    between atoms: C29_42  and  O8_43 
REMARK   26  A    between atoms: C29_42  and  C35_49 
ROOT
ATOM      1  C14 non d ame     -10.958   9.234  69.368  0.00  0.00     0.089 C 
ATOM      2  H20 non d ame     -11.908   8.700  69.377  0.00  0.00     0.087 H 
ENDROOT
BRANCH   1   3
ATOM      3  N4  non d ame      -9.971   8.365  68.744  0.00  0.00    -0.346 N 
ATOM      4  C10 non d ame      -8.520   8.773  68.694  0.00  0.00     0.241 C 
ATOM      5  O4  non d ame      -8.171   9.807  69.160  0.00  0.00    -0.271 OA
ATOM      6  H19 non d ame     -10.290   7.490  68.350  0.00  0.00     0.163 HD
BRANCH   4   7
ATOM      7  C9  non d ame      -7.512   7.859  68.049  0.00  0.00     0.092 C 
ATOM      8  H11 non d ame      -7.886   6.835  68.077  0.00  0.00     0.088 H 
BRANCH   7   9
ATOM      9  N3  non d ame      -7.354   8.222  66.638  0.00  0.00    -0.346 N 
ATOM     10  C7  non d ame      -8.282   7.719  65.655  0.00  0.00     0.240 C 
ATOM     11  O3  non d ame      -9.160   7.017  65.982  0.00  0.00    -0.271 OA
ATOM     12  H10 non d ame      -6.600   8.825  66.340  0.00  0.00     0.163 HD
BRANCH  10  13
ATOM     13  C6  non d ame      -8.106   8.107  64.154  0.00  0.00     0.086 C 
ATOM     14  H6  non d ame      -8.241   7.260  63.481  0.00  0.00     0.086 H 
BRANCH  13  15
ATOM     15  N2  non d ame      -9.120   9.086  63.799  0.00  0.00    -0.343 N 
ATOM     16  C5  non d ame      -9.233  10.321  64.579  0.00  0.00     0.273 C 
ATOM     17  O2  non d ame      -8.506  10.516  65.490  0.00  0.00    -0.266 OA
ATOM     18  H5  non d ame      -9.739   8.911  63.021  0.00  0.00     0.163 HD
BRANCH  16  19
ATOM     19  C4  non d ame     -10.298  11.367  64.214  0.00  0.00     0.154 A 
ATOM     20  C1  non d ame     -10.495  12.648  64.819  0.00  0.00    -0.017 A 
ATOM     21  C2  non d ame     -11.591  13.213  64.129  0.00  0.00     0.077 A 
ATOM     22  H1  non d ame      -9.929  13.100  65.635  0.00  0.00     0.091 H 
ATOM     23  O1  non d ame     -11.970  12.349  63.233  0.00  0.00    -0.218 OA
ATOM     24  N1  non d ame     -11.232  11.264  63.264  0.00  0.00    -0.123 NA
BRANCH  21  25
ATOM     25  C3  non d ame     -12.210  14.580  64.385  0.00  0.00    -0.029 C 
ATOM     26  H2  non d ame     -13.273  14.464  64.598  0.00  0.00     0.036 H 
ATOM     27  H3  non d ame     -11.718  15.048  65.238  0.00  0.00     0.036 H 
ATOM     28  H4  non d ame     -12.082  15.209  63.503  0.00  0.00     0.036 H 
ENDBRANCH  21  25
ENDBRANCH  16  19
ENDBRANCH  13  15
BRANCH  13  29
ATOM     29  C8  non d ame      -6.732   8.686  63.939  0.00  0.00    -0.049 C 
ATOM     30  H7  non d ame      -6.006   8.135  64.538  0.00  0.00     0.030 H 
ATOM     31  H8  non d ame      -6.466   8.607  62.883  0.00  0.00     0.030 H 
ATOM     32  H9  non d ame      -6.728   9.733  64.237  0.00  0.00     0.030 H 
ENDBRANCH  13  29
ENDBRANCH  10  13
ENDBRANCH   7   9
BRANCH   7  33
ATOM     33  C11 non d ame      -6.142   8.002  68.775  0.00  0.00    -0.033 C 
ATOM     34  H12 non d ame      -6.090   9.013  69.181  0.00  0.00     0.042 H 
BRANCH  33  35
ATOM     35  C12 non d ame      -6.028   7.009  69.974  0.00  0.00    -0.071 C 
ATOM     36  H13 non d ame      -6.789   7.247  70.717  0.00  0.00     0.028 H 
ATOM     37  H14 non d ame      -6.175   5.990  69.616  0.00  0.00     0.028 H 
ATOM     38  H15 non d ame      -5.039   7.096  70.423  0.00  0.00     0.028 H 
ENDBRANCH  33  35
BRANCH  33  39
ATOM     39  C13 non d ame      -4.957   7.821  67.774  0.00  0.00    -0.071 C 
ATOM     40  H16 non d ame      -4.017   7.794  68.324  0.00  0.00     0.028 H 
ATOM     41  H17 non d ame      -5.084   6.889  67.224  0.00  0.00     0.028 H 
ATOM     42  H18 non d ame      -4.943   8.657  67.074  0.00  0.00     0.028 H 
ENDBRANCH  33  39
ENDBRANCH   7  33
ENDBRANCH   4   7
ENDBRANCH   1   3
BRANCH   1  43
ATOM     43  C15 non d ame     -11.036  10.558  68.554  0.00  0.00     0.240 C 
ATOM     44  O5  non d ame     -11.556  10.565  67.485  0.00  0.00    -0.271 OA
ATOM     45  N6  non d ame     -10.472  11.820  69.112  0.00  0.00    -0.355 N 
ATOM     46  H46 non d ame     -10.032  11.828  70.021  0.00  0.00     0.162 HD
BRANCH  45  47
ATOM     47  C20 non d ame     -10.556  13.070  68.327  0.00  0.00     0.013 C 
ATOM     48  H30 non d ame     -10.601  12.801  67.271  0.00  0.00     0.072 H 
BRANCH  47  49
ATOM     49  C21 non d ame      -9.328  13.911  68.593  0.00  0.00    -0.038 C 
ATOM     50  H31 non d ame      -9.690  14.812  69.090  0.00  0.00     0.036 H 
ATOM     51  H32 non d ame      -8.625  13.252  69.102  0.00  0.00     0.036 H 
BRANCH  49  52
ATOM     52  C22 non d ame      -8.629  14.377  67.298  0.00  0.00     0.018 C 
ATOM     53  H33 non d ame      -8.626  13.511  66.634  0.00  0.00     0.048 H 
ATOM     54  H34 non d ame      -9.141  15.292  66.998  0.00  0.00     0.048 H 
BRANCH  52  55
ATOM     55  C23 non d ame      -7.137  14.766  67.497  0.00  0.00     0.259 C 
ATOM     56  O7  non d ame      -6.278  13.961  67.339  0.00  0.00    -0.265 OA
BRANCH  55  57
ATOM     57  O8  non d ame      -6.809  16.094  67.886  0.00  0.00    -0.317 OA
BRANCH  57  58
ATOM     58  C29 non d ame      -6.948  17.060  66.839  0.00  0.00     0.052 C 
ATOM     59  H47 non d ame      -6.065  17.695  66.904  0.00  0.00     0.082 H 
ATOM     60  H48 non d ame      -7.139  16.485  65.932  0.00  0.00     0.082 H 
BRANCH  58  61
ATOM     61  C35 non d ame      -8.200  17.923  67.147  0.00  0.00    -0.034 A 
ATOM     62  C30 non d ame      -9.243  17.988  66.230  0.00  0.00    -0.075 A 
ATOM     63  C31 non d ame     -10.368  18.764  66.506  0.00  0.00    -0.082 A 
ATOM     64  H49 non d ame      -9.181  17.432  65.296  0.00  0.00     0.084 H 
ATOM     65  C32 non d ame     -10.445  19.479  67.705  0.00  0.00    -0.083 A 
ATOM     66  H50 non d ame     -11.185  18.811  65.787  0.00  0.00     0.083 H 
ATOM     67  C33 non d ame      -9.400  19.414  68.616  0.00  0.00    -0.082 A 
ATOM     68  H51 non d ame     -11.321  20.088  67.929  0.00  0.00     0.083 H 
ATOM     69  C34 non d ame      -8.275  18.637  68.344  0.00  0.00    -0.075 A 
ATOM     70  H52 non d ame      -9.462  19.974  69.549  0.00  0.00     0.083 H 
ATOM     71  H53 non d ame      -7.458  18.590  69.066  0.00  0.00     0.084 H 
ENDBRANCH  58  61
ENDBRANCH  57  58
ENDBRANCH  55  57
ENDBRANCH  52  55
ENDBRANCH  49  52
ENDBRANCH  47  49
BRANCH  47  72
ATOM     72  C24 non d ame     -11.805  13.850  68.729  0.00  0.00    -0.039 C 
ATOM     73  H35 non d ame     -11.811  14.738  68.097  0.00  0.00     0.036 H 
ATOM     74  H36 non d ame     -12.626  13.134  68.670  0.00  0.00     0.036 H 
BRANCH  72  75
ATOM     75  C25 non d ame     -11.726  14.352  70.249  0.00  0.00    -0.001 C 
ATOM     76  C26 non d ame     -12.730  13.452  71.190  0.00  0.00    -0.035 C 
ATOM     77  C27 non d ame     -13.521  14.286  71.906  0.00  0.00     0.085 C 
ATOM     78  H38 non d ame     -13.436  12.905  70.566  0.00  0.00     0.036 H 
ATOM     79  H39 non d ame     -12.156  12.927  71.953  0.00  0.00     0.036 H 
ATOM     80  N5  non d ame     -13.376  15.661  71.302  0.00  0.00    -0.049 N 
ATOM     81  H40 non d ame     -14.540  13.932  71.745  0.00  0.00     0.075 H 
ATOM     82  H41 non d ame     -13.100  14.295  72.912  0.00  0.00     0.075 H 
ATOM     83  C28 non d ame     -12.073  15.592  70.349  0.00  0.00     0.193 C 
ATOM     84  H42 non d ame     -14.190  15.806  70.722  0.00  0.00     0.280 HD
ATOM     85  H43 non d ame     -13.182  16.292  72.066  0.00  0.00     0.280 HD
ATOM     86  H44 non d ame     -11.131  16.038  70.668  0.00  0.00     0.129 H 
ATOM     87  H37 non d ame     -10.698  14.470  70.591  0.00  0.00     0.046 H 
BRANCH  83  88
ATOM     88  O6  non d ame     -12.361  16.177  69.078  0.00  0.00    -0.369 OA
ATOM     89  H45 non d ame     -11.714  15.879  68.435  0.00  0.00     0.212 HD
ENDBRANCH  83  88
ENDBRANCH  72  75
ENDBRANCH  47  72
ENDBRANCH  45  47
ENDBRANCH   1  43
BRANCH   1  90
ATOM     90  C16 non d ame     -10.523   9.536  70.794  0.00  0.00    -0.035 C 
ATOM     91  H21 non d ame      -9.658   8.896  70.973  0.00  0.00     0.037 H 
ATOM     92  H22 non d ame     -10.418  10.619  70.840  0.00  0.00     0.037 H 
BRANCH  90  93
ATOM     93  C17 non d ame     -11.587   9.148  71.868  0.00  0.00    -0.059 C 
ATOM     94  H23 non d ame     -11.264   9.568  72.821  0.00  0.00     0.038 H 
BRANCH  93  95
ATOM     95  C18 non d ame     -12.997   9.735  71.542  0.00  0.00    -0.073 C 
ATOM     96  H24 non d ame     -13.732   8.930  71.528  0.00  0.00     0.028 H 
ATOM     97  H25 non d ame     -13.273  10.464  72.305  0.00  0.00     0.028 H 
ATOM     98  H26 non d ame     -12.971  10.222  70.567  0.00  0.00     0.028 H 
ENDBRANCH  93  95
BRANCH  93  99
ATOM     99  C19 non d ame     -11.657   7.629  72.044  0.00  0.00    -0.073 C 
ATOM    100  H27 non d ame     -11.695   7.151  71.065  0.00  0.00     0.028 H 
ATOM    101  H28 non d ame     -10.774   7.284  72.583  0.00  0.00     0.028 H 
ATOM    102  H29 non d ame     -12.552   7.369  72.609  0.00  0.00     0.028 H 
ENDBRANCH  93  99
ENDBRANCH  90  93
ENDBRANCH   1  90
TORSDOF 26
ENDMDL
MODEL 9
REMARK VINA RESULT:      -6.1      2.092      3.443
REMARK  26 active torsions:
REMARK  status: ('A' for Active; 'I' for Inactive)
REMARK    1  A    between atoms: C2_2  and  C3_3 
REMARK    2  A    between atoms: C4_6  and  C5_7 
REMARK       I    between atoms: C5_7  and  N2_9 
REMARK    3  A    between atoms: N2_9  and  C6_10 
REMARK    4  A    between atoms: C6_10  and  C7_11 
REMARK    5  A    between atoms: C6_10  and  C8_13 
REMARK       I    between atoms: C7_11  and  N3_14 
REMARK    6  A    between atoms: N3_14  and  C9_15 
REMARK    7  A    between atoms: C9_15  and  C10_16 
REMARK    8  A    between atoms: C9_15  and  C11_18 
REMARK       I    between atoms: C10_16  and  N4_21 
REMARK    9  A    between atoms: C11_18  and  C12_19 
REMARK   10  A    between atoms: C11_18  and  C13_20 
REMARK   11  A    between atoms: N4_21  and  C14_22 
REMARK   12  A    between atoms: C14_22  and  C15_23 
REMARK   13  A    between atoms: C14_22  and  C16_25 
REMARK       I    between atoms: C15_23  and  N6_40 
REMARK   14  A    between atoms: C16_25  and  C17_26 
REMARK   15  A    between atoms: C17_26  and  C18_27 
REMARK   16  A    between atoms: C17_26  and  C19_28 
REMARK   17  A    between atoms: C20_29  and  C21_30 
REMARK   18  A    between atoms: C20_29  and  C24_33 
REMARK   19  A    between atoms: C20_29  and  N6_40 
REMARK   20  A    between atoms: C21_30  and  C22_31 
REMARK   21  A    between atoms: C22_31  and  C23_32 
REMARK   22  A    between atoms: C23_32  and  O8_43 
REMARK   23  A    between atoms: C24_33  and  C25_34 
REMARK   24  A    between atoms: C28_38  and  O6_39 
REMARK   25  A    between atoms: C29_42  and  O8_43 
REMARK   26  A    between atoms: C29_42  and  C35_49 
ROOT
ATOM      1  C14 non d ame      -8.975   6.890  68.194  0.00  0.00     0.089 C 
ATOM      2  H20 non d ame      -9.115   5.993  67.590  0.00  0.00     0.087 H 
ENDROOT
BRANCH   1   3
ATOM      3  N4  non d ame      -8.700   7.993  67.286  0.00  0.00    -0.346 N 
ATOM      4  C10 non d ame      -8.599   7.750  65.801  0.00  0.00     0.241 C 
ATOM      5  O4  non d ame      -8.741   6.656  65.361  0.00  0.00    -0.271 OA
ATOM      6  H19 non d ame      -8.580   8.915  67.681  0.00  0.00     0.163 HD
BRANCH   4   7
ATOM      7  C9  non d ame      -8.319   8.904  64.875  0.00  0.00     0.092 C 
ATOM      8  H11 non d ame      -8.516   8.595  63.848  0.00  0.00     0.088 H 
BRANCH   7   9
ATOM      9  N3  non d ame      -9.235  10.007  65.178  0.00  0.00    -0.346 N 
ATOM     10  C7  non d ame      -9.929  10.683  64.110  0.00  0.00     0.240 C 
ATOM     11  O3  non d ame      -9.761  10.352  62.999  0.00  0.00    -0.271 OA
ATOM     12  H10 non d ame      -9.388  10.305  66.131  0.00  0.00     0.163 HD
BRANCH  10  13
ATOM     13  C6  non d ame     -10.900  11.859  64.439  0.00  0.00     0.086 C 
ATOM     14  H6  non d ame     -11.489  11.681  65.339  0.00  0.00     0.086 H 
BRANCH  13  15
ATOM     15  N2  non d ame     -10.118  13.060  64.684  0.00  0.00    -0.343 N 
ATOM     16  C5  non d ame     -10.680  14.128  65.515  0.00  0.00     0.273 C 
ATOM     17  O2  non d ame     -11.760  14.012  65.979  0.00  0.00    -0.266 OA
ATOM     18  H5  non d ame      -9.197  13.152  64.283  0.00  0.00     0.163 HD
BRANCH  16  19
ATOM     19  C4  non d ame      -9.864  15.402  65.785  0.00  0.00     0.154 A 
ATOM     20  C1  non d ame      -8.599  15.495  66.448  0.00  0.00    -0.017 A 
ATOM     21  C2  non d ame      -8.283  16.872  66.438  0.00  0.00     0.077 A 
ATOM     22  H1  non d ame      -8.002  14.687  66.873  0.00  0.00     0.091 H 
ATOM     23  O1  non d ame      -9.258  17.489  65.835  0.00  0.00    -0.218 OA
ATOM     24  N1  non d ame     -10.192  16.652  65.445  0.00  0.00    -0.123 NA
BRANCH  21  25
ATOM     25  C3  non d ame      -7.032  17.514  67.022  0.00  0.00    -0.029 C 
ATOM     26  H2  non d ame      -7.268  18.521  67.368  0.00  0.00     0.036 H 
ATOM     27  H3  non d ame      -6.675  16.916  67.860  0.00  0.00     0.036 H 
ATOM     28  H4  non d ame      -6.257  17.565  66.257  0.00  0.00     0.036 H 
ENDBRANCH  21  25
ENDBRANCH  16  19
ENDBRANCH  13  15
BRANCH  13  29
ATOM     29  C8  non d ame     -11.837  12.081  63.279  0.00  0.00    -0.049 C 
ATOM     30  H7  non d ame     -12.115  13.135  63.233  0.00  0.00     0.030 H 
ATOM     31  H8  non d ame     -11.340  11.796  62.351  0.00  0.00     0.030 H 
ATOM     32  H9  non d ame     -12.732  11.476  63.414  0.00  0.00     0.030 H 
ENDBRANCH  13  29
ENDBRANCH  10  13
ENDBRANCH   7   9
BRANCH   7  33
ATOM     33  C11 non d ame      -6.851   9.382  65.071  0.00  0.00    -0.033 C 
ATOM     34  H12 non d ame      -6.822   9.992  65.973  0.00  0.00     0.042 H 
BRANCH  33  35
ATOM     35  C12 non d ame      -5.884   8.176  65.288  0.00  0.00    -0.071 C 
ATOM     36  H13 non d ame      -4.938   8.538  65.691  0.00  0.00     0.028 H 
ATOM     37  H14 non d ame      -6.332   7.474  65.990  0.00  0.00     0.028 H 
ATOM     38  H15 non d ame      -5.708   7.676  64.337  0.00  0.00     0.028 H 
ENDBRANCH  33  35
BRANCH  33  39
ATOM     39  C13 non d ame      -6.387  10.270  63.871  0.00  0.00    -0.071 C 
ATOM     40  H16 non d ame      -6.413   9.683  62.954  0.00  0.00     0.028 H 
ATOM     41  H17 non d ame      -7.054  11.127  63.774  0.00  0.00     0.028 H 
ATOM     42  H18 non d ame      -5.371  10.619  64.051  0.00  0.00     0.028 H 
ENDBRANCH  33  39
ENDBRANCH   7  33
ENDBRANCH   4   7
ENDBRANCH   1   3
BRANCH   1  43
ATOM     43  C15 non d ame     -10.241   7.239  69.028  0.00  0.00     0.240 C 
ATOM     44  O5  non d ame     -11.311   6.872  68.661  0.00  0.00    -0.271 OA
ATOM     45  N6  non d ame     -10.119   8.024  70.290  0.00  0.00    -0.355 N 
ATOM     46  H46 non d ame      -9.215   8.337  70.614  0.00  0.00     0.162 HD
BRANCH  45  47
ATOM     47  C20 non d ame     -11.332   8.347  71.072  0.00  0.00     0.013 C 
ATOM     48  H30 non d ame     -12.188   7.911  70.558  0.00  0.00     0.072 H 
BRANCH  47  49
ATOM     49  C21 non d ame     -11.489   9.849  71.154  0.00  0.00    -0.038 C 
ATOM     50  H31 non d ame     -12.060  10.036  72.064  0.00  0.00     0.036 H 
ATOM     51  H32 non d ame     -10.482  10.255  71.049  0.00  0.00     0.036 H 
BRANCH  49  52
ATOM     52  C22 non d ame     -12.318  10.429  69.989  0.00  0.00     0.018 C 
ATOM     53  H33 non d ame     -12.941   9.609  69.632  0.00  0.00     0.048 H 
ATOM     54  H34 non d ame     -12.781  11.336  70.379  0.00  0.00     0.048 H 
BRANCH  52  55
ATOM     55  C23 non d ame     -11.460  10.875  68.772  0.00  0.00     0.259 C 
ATOM     56  O7  non d ame     -11.981  11.220  67.762  0.00  0.00    -0.265 OA
BRANCH  55  57
ATOM     57  O8  non d ame     -10.042  10.853  68.874  0.00  0.00    -0.317 OA
BRANCH  57  58
ATOM     58  C29 non d ame      -9.388  11.890  68.136  0.00  0.00     0.052 C 
ATOM     59  H47 non d ame      -9.783  11.826  67.123  0.00  0.00     0.082 H 
ATOM     60  H48 non d ame      -9.529  12.801  68.719  0.00  0.00     0.082 H 
BRANCH  58  61
ATOM     61  C35 non d ame      -7.871  11.565  68.094  0.00  0.00    -0.034 A 
ATOM     62  C30 non d ame      -7.375  10.468  68.789  0.00  0.00    -0.075 A 
ATOM     63  C31 non d ame      -6.013  10.175  68.752  0.00  0.00    -0.082 A 
ATOM     64  H49 non d ame      -8.053   9.837  69.364  0.00  0.00     0.084 H 
ATOM     65  C32 non d ame      -5.145  10.987  68.016  0.00  0.00    -0.083 A 
ATOM     66  H50 non d ame      -5.627   9.314  69.296  0.00  0.00     0.083 H 
ATOM     67  C33 non d ame      -5.644  12.083  67.326  0.00  0.00    -0.082 A 
ATOM     68  H51 non d ame      -4.078  10.766  67.981  0.00  0.00     0.083 H 
ATOM     69  C34 non d ame      -7.006  12.377  67.359  0.00  0.00    -0.075 A 
ATOM     70  H52 non d ame      -4.964  12.716  66.754  0.00  0.00     0.083 H 
ATOM     71  H53 non d ame      -7.391  13.240  66.813  0.00  0.00     0.084 H 
ENDBRANCH  58  61
ENDBRANCH  57  58
ENDBRANCH  55  57
ENDBRANCH  52  55
ENDBRANCH  49  52
ENDBRANCH  47  49
BRANCH  47  72
ATOM     72  C24 non d ame     -11.207   7.769  72.480  0.00  0.00    -0.039 C 
ATOM     73  H35 non d ame     -10.637   8.505  73.047  0.00  0.00     0.036 H 
ATOM     74  H36 non d ame     -12.224   7.517  72.782  0.00  0.00     0.036 H 
BRANCH  72  75
ATOM     75  C25 non d ame     -10.361   6.408  72.489  0.00  0.00    -0.001 C 
ATOM     76  C26 non d ame     -11.358   5.129  72.757  0.00  0.00    -0.035 C 
ATOM     77  C27 non d ame     -10.855   4.388  73.772  0.00  0.00     0.085 C 
ATOM     78  H38 non d ame     -12.315   5.477  73.147  0.00  0.00     0.036 H 
ATOM     79  H39 non d ame     -11.331   4.449  71.906  0.00  0.00     0.036 H 
ATOM     80  N5  non d ame      -9.783   5.218  74.436  0.00  0.00    -0.049 N 
ATOM     81  H40 non d ame     -11.680   4.249  74.471  0.00  0.00     0.075 H 
ATOM     82  H41 non d ame     -10.390   3.523  73.298  0.00  0.00     0.075 H 
ATOM     83  C28 non d ame      -9.459   6.425  73.414  0.00  0.00     0.193 C 
ATOM     84  H42 non d ame     -10.197   5.607  75.271  0.00  0.00     0.280 HD
ATOM     85  H43 non d ame      -8.966   4.629  74.506  0.00  0.00     0.280 HD
ATOM     86  H44 non d ame      -8.553   6.410  72.808  0.00  0.00     0.129 H 
ATOM     87  H37 non d ame      -9.682   6.339  71.639  0.00  0.00     0.046 H 
BRANCH  83  88
ATOM     88  O6  non d ame      -9.428   7.669  74.115  0.00  0.00    -0.369 OA
ATOM     89  H45 non d ame      -8.683   7.677  74.719  0.00  0.00     0.212 HD
ENDBRANCH  83  88
ENDBRANCH  72  75
ENDBRANCH  47  72
ENDBRANCH  45  47
ENDBRANCH   1  43
BRANCH   1  90
ATOM     90  C16 non d ame      -7.786   6.703  69.124  0.00  0.00    -0.035 C 
ATOM     91  H21 non d ame      -7.631   7.675  69.593  0.00  0.00     0.037 H 
ATOM     92  H22 non d ame      -8.032   5.836  69.736  0.00  0.00     0.037 H 
BRANCH  90  93
ATOM     93  C17 non d ame      -6.458   6.357  68.380  0.00  0.00    -0.059 C 
ATOM     94  H23 non d ame      -6.325   7.088  67.582  0.00  0.00     0.038 H 
BRANCH  93  95
ATOM     95  C18 non d ame      -5.214   6.445  69.319  0.00  0.00    -0.073 C 
ATOM     96  H24 non d ame      -4.869   5.440  69.562  0.00  0.00     0.028 H 
ATOM     97  H25 non d ame      -4.415   6.989  68.815  0.00  0.00     0.028 H 
ATOM     98  H26 non d ame      -5.486   6.968  70.236  0.00  0.00     0.028 H 
ENDBRANCH  93  95
BRANCH  93  99
ATOM     99  C19 non d ame      -6.545   4.977  67.720  0.00  0.00    -0.073 C 
ATOM    100  H27 non d ame      -5.733   4.867  67.001  0.00  0.00     0.028 H 
ATOM    101  H28 non d ame      -6.464   4.204  68.483  0.00  0.00     0.028 H 
ATOM    102  H29 non d ame      -7.501   4.881  67.205  0.00  0.00     0.028 H 
ENDBRANCH  93  99
ENDBRANCH  90  93
ENDBRANCH   1  90
TORSDOF 26
ENDMDL
MODEL 10
REMARK VINA RESULT:      -6.1      2.384      4.043
REMARK  26 active torsions:
REMARK  status: ('A' for Active; 'I' for Inactive)
REMARK    1  A    between atoms: C2_2  and  C3_3 
REMARK    2  A    between atoms: C4_6  and  C5_7 
REMARK       I    between atoms: C5_7  and  N2_9 
REMARK    3  A    between atoms: N2_9  and  C6_10 
REMARK    4  A    between atoms: C6_10  and  C7_11 
REMARK    5  A    between atoms: C6_10  and  C8_13 
REMARK       I    between atoms: C7_11  and  N3_14 
REMARK    6  A    between atoms: N3_14  and  C9_15 
REMARK    7  A    between atoms: C9_15  and  C10_16 
REMARK    8  A    between atoms: C9_15  and  C11_18 
REMARK       I    between atoms: C10_16  and  N4_21 
REMARK    9  A    between atoms: C11_18  and  C12_19 
REMARK   10  A    between atoms: C11_18  and  C13_20 
REMARK   11  A    between atoms: N4_21  and  C14_22 
REMARK   12  A    between atoms: C14_22  and  C15_23 
REMARK   13  A    between atoms: C14_22  and  C16_25 
REMARK       I    between atoms: C15_23  and  N6_40 
REMARK   14  A    between atoms: C16_25  and  C17_26 
REMARK   15  A    between atoms: C17_26  and  C18_27 
REMARK   16  A    between atoms: C17_26  and  C19_28 
REMARK   17  A    between atoms: C20_29  and  C21_30 
REMARK   18  A    between atoms: C20_29  and  C24_33 
REMARK   19  A    between atoms: C20_29  and  N6_40 
REMARK   20  A    between atoms: C21_30  and  C22_31 
REMARK   21  A    between atoms: C22_31  and  C23_32 
REMARK   22  A    between atoms: C23_32  and  O8_43 
REMARK   23  A    between atoms: C24_33  and  C25_34 
REMARK   24  A    between atoms: C28_38  and  O6_39 
REMARK   25  A    between atoms: C29_42  and  O8_43 
REMARK   26  A    between atoms: C29_42  and  C35_49 
ROOT
ATOM      1  C14 non d ame      -9.377   5.371  65.998  0.00  0.00     0.089 C 
ATOM      2  H20 non d ame      -9.778   5.442  64.987  0.00  0.00     0.087 H 
ENDROOT
BRANCH   1   3
ATOM      3  N4  non d ame      -7.976   5.761  65.943  0.00  0.00    -0.346 N 
ATOM      4  C10 non d ame      -7.227   5.729  64.635  0.00  0.00     0.241 C 
ATOM      5  O4  non d ame      -7.773   5.383  63.639  0.00  0.00    -0.271 OA
ATOM      6  H19 non d ame      -7.530   6.050  66.803  0.00  0.00     0.163 HD
BRANCH   4   7
ATOM      7  C9  non d ame      -5.780   6.142  64.595  0.00  0.00     0.092 C 
ATOM      8  H11 non d ame      -5.379   5.950  63.600  0.00  0.00     0.088 H 
BRANCH   7   9
ATOM      9  N3  non d ame      -5.675   7.585  64.832  0.00  0.00    -0.346 N 
ATOM     10  C7  non d ame      -5.632   8.498  63.718  0.00  0.00     0.240 C 
ATOM     11  O3  non d ame      -5.679   8.088  62.622  0.00  0.00    -0.271 OA
ATOM     12  H10 non d ame      -5.632   7.952  65.772  0.00  0.00     0.163 HD
BRANCH  10  13
ATOM     13  C6  non d ame      -5.518  10.032  63.977  0.00  0.00     0.086 C 
ATOM     14  H6  non d ame      -4.805  10.520  63.313  0.00  0.00     0.086 H 
BRANCH  13  15
ATOM     15  N2  non d ame      -6.809  10.649  63.726  0.00  0.00    -0.343 N 
ATOM     16  C5  non d ame      -7.993  10.157  64.434  0.00  0.00     0.273 C 
ATOM     17  O2  non d ame      -7.896   9.262  65.200  0.00  0.00    -0.266 OA
ATOM     18  H5  non d ame      -6.884  11.412  63.069  0.00  0.00     0.163 HD
BRANCH  16  19
ATOM     19  C4  non d ame      -9.365  10.802  64.181  0.00  0.00     0.154 A 
ATOM     20  C1  non d ame     -10.142  11.572  65.104  0.00  0.00    -0.017 A 
ATOM     21  C2  non d ame     -11.307  11.929  64.390  0.00  0.00     0.077 A 
ATOM     22  H1  non d ame      -9.898  11.831  66.135  0.00  0.00     0.091 H 
ATOM     23  O1  non d ame     -11.201  11.421  63.196  0.00  0.00    -0.218 OA
ATOM     24  N1  non d ame     -10.077  10.758  63.052  0.00  0.00    -0.123 NA
BRANCH  21  25
ATOM     25  C3  non d ame     -12.469  12.759  64.918  0.00  0.00    -0.029 C 
ATOM     26  H2  non d ame     -12.894  13.350  64.106  0.00  0.00     0.036 H 
ATOM     27  H3  non d ame     -13.234  12.096  65.323  0.00  0.00     0.036 H 
ATOM     28  H4  non d ame     -12.114  13.425  65.705  0.00  0.00     0.036 H 
ENDBRANCH  21  25
ENDBRANCH  16  19
ENDBRANCH  13  15
BRANCH  13  29
ATOM     29  C8  non d ame      -5.099  10.274  65.404  0.00  0.00    -0.049 C 
ATOM     30  H7  non d ame      -5.790   9.767  66.078  0.00  0.00     0.030 H 
ATOM     31  H8  non d ame      -4.091   9.884  65.558  0.00  0.00     0.030 H 
ATOM     32  H9  non d ame      -5.110  11.343  65.611  0.00  0.00     0.030 H 
ENDBRANCH  13  29
ENDBRANCH  10  13
ENDBRANCH   7   9
BRANCH   7  33
ATOM     33  C11 non d ame      -4.992   5.378  65.700  0.00  0.00    -0.033 C 
ATOM     34  H12 non d ame      -5.718   4.831  66.302  0.00  0.00     0.042 H 
BRANCH  33  35
ATOM     35  C12 non d ame      -4.013   4.333  65.081  0.00  0.00    -0.071 C 
ATOM     36  H13 non d ame      -2.994   4.716  65.131  0.00  0.00     0.028 H 
ATOM     37  H14 non d ame      -4.077   3.399  65.639  0.00  0.00     0.028 H 
ATOM     38  H15 non d ame      -4.284   4.153  64.041  0.00  0.00     0.028 H 
ENDBRANCH  33  35
BRANCH  33  39
ATOM     39  C13 non d ame      -4.238   6.374  66.638  0.00  0.00    -0.071 C 
ATOM     40  H16 non d ame      -4.750   6.427  67.599  0.00  0.00     0.028 H 
ATOM     41  H17 non d ame      -3.215   6.029  66.789  0.00  0.00     0.028 H 
ATOM     42  H18 non d ame      -4.223   7.363  66.180  0.00  0.00     0.028 H 
ENDBRANCH  33  39
ENDBRANCH   7  33
ENDBRANCH   4   7
ENDBRANCH   1   3
BRANCH   1  43
ATOM     43  C15 non d ame     -10.116   6.315  66.991  0.00  0.00     0.240 C 
ATOM     44  O5  non d ame     -11.304   6.311  67.037  0.00  0.00    -0.271 OA
ATOM     45  N6  non d ame      -9.342   7.217  67.890  0.00  0.00    -0.355 N 
ATOM     46  H46 non d ame      -8.332   7.226  67.863  0.00  0.00     0.162 HD
BRANCH  45  47
ATOM     47  C20 non d ame     -10.059   8.107  68.829  0.00  0.00     0.013 C 
ATOM     48  H30 non d ame     -11.115   7.839  68.804  0.00  0.00     0.072 H 
BRANCH  47  49
ATOM     49  C21 non d ame      -9.880   9.543  68.391  0.00  0.00    -0.038 C 
ATOM     50  H31 non d ame      -9.154   9.974  69.082  0.00  0.00     0.036 H 
ATOM     51  H32 non d ame      -9.660   9.500  67.324  0.00  0.00     0.036 H 
BRANCH  49  52
ATOM     52  C22 non d ame     -11.170  10.379  68.536  0.00  0.00     0.018 C 
ATOM     53  H33 non d ame     -11.687  10.294  67.579  0.00  0.00     0.048 H 
ATOM     54  H34 non d ame     -11.651  10.024  69.448  0.00  0.00     0.048 H 
BRANCH  52  55
ATOM     55  C23 non d ame     -10.912  11.896  68.750  0.00  0.00     0.259 C 
ATOM     56  O7  non d ame      -9.900  12.393  68.377  0.00  0.00    -0.265 OA
BRANCH  55  57
ATOM     57  O8  non d ame     -11.895  12.685  69.409  0.00  0.00    -0.317 OA
BRANCH  57  58
ATOM     58  C29 non d ame     -11.559  14.072  69.510  0.00  0.00     0.052 C 
ATOM     59  H47 non d ame     -10.471  14.109  69.564  0.00  0.00     0.082 H 
ATOM     60  H48 non d ame     -12.081  14.562  68.688  0.00  0.00     0.082 H 
BRANCH  58  61
ATOM     61  C35 non d ame     -12.136  14.609  70.847  0.00  0.00    -0.034 A 
ATOM     62  C30 non d ame     -13.191  13.946  71.466  0.00  0.00    -0.075 A 
ATOM     63  C31 non d ame     -13.709  14.428  72.666  0.00  0.00    -0.082 A 
ATOM     64  H49 non d ame     -13.611  13.050  71.010  0.00  0.00     0.084 H 
ATOM     65  C32 non d ame     -13.170  15.579  73.247  0.00  0.00    -0.083 A 
ATOM     66  H50 non d ame     -14.535  13.906  73.150  0.00  0.00     0.083 H 
ATOM     67  C33 non d ame     -12.119  16.239  72.625  0.00  0.00    -0.082 A 
ATOM     68  H51 non d ame     -13.569  15.963  74.186  0.00  0.00     0.083 H 
ATOM     69  C34 non d ame     -11.596  15.759  71.425  0.00  0.00    -0.075 A 
ATOM     70  H52 non d ame     -11.702  17.138  73.079  0.00  0.00     0.083 H 
ATOM     71  H53 non d ame     -10.770  16.282  70.942  0.00  0.00     0.084 H 
ENDBRANCH  58  61
ENDBRANCH  57  58
ENDBRANCH  55  57
ENDBRANCH  52  55
ENDBRANCH  49  52
ENDBRANCH  47  49
BRANCH  47  72
ATOM     72  C24 non d ame      -9.499   7.929  70.238  0.00  0.00    -0.039 C 
ATOM     73  H35 non d ame      -8.531   7.445  70.107  0.00  0.00     0.036 H 
ATOM     74  H36 non d ame      -9.556   8.915  70.700  0.00  0.00     0.036 H 
BRANCH  72  75
ATOM     75  C25 non d ame     -10.406   6.943  71.116  0.00  0.00    -0.001 C 
ATOM     76  C26 non d ame     -11.934   6.899  70.512  0.00  0.00    -0.035 C 
ATOM     77  C27 non d ame     -12.809   7.136  71.518  0.00  0.00     0.085 C 
ATOM     78  H38 non d ame     -12.092   7.739  69.835  0.00  0.00     0.036 H 
ATOM     79  H39 non d ame     -12.181   5.887  70.191  0.00  0.00     0.036 H 
ATOM     80  N5  non d ame     -12.008   7.659  72.686  0.00  0.00    -0.049 N 
ATOM     81  H40 non d ame     -13.466   7.927  71.154  0.00  0.00     0.075 H 
ATOM     82  H41 non d ame     -13.222   6.162  71.779  0.00  0.00     0.075 H 
ATOM     83  C28 non d ame     -10.463   7.333  72.346  0.00  0.00     0.193 C 
ATOM     84  H42 non d ame     -12.131   8.661  72.691  0.00  0.00     0.280 HD
ATOM     85  H43 non d ame     -12.283   7.112  73.489  0.00  0.00     0.280 HD
ATOM     86  H44 non d ame      -9.951   6.507  72.841  0.00  0.00     0.129 H 
ATOM     87  H37 non d ame      -9.918   5.986  71.299  0.00  0.00     0.046 H 
BRANCH  83  88
ATOM     88  O6  non d ame      -9.653   8.484  72.586  0.00  0.00    -0.369 OA
ATOM     89  H45 non d ame      -9.667   9.052  71.813  0.00  0.00     0.212 HD
ENDBRANCH  83  88
ENDBRANCH  72  75
ENDBRANCH  47  72
ENDBRANCH  45  47
ENDBRANCH   1  43
BRANCH   1  90
ATOM     90  C16 non d ame      -9.474   3.935  66.490  0.00  0.00    -0.035 C 
ATOM     91  H21 non d ame     -10.499   3.821  66.845  0.00  0.00     0.037 H 
ATOM     92  H22 non d ame      -9.112   3.323  65.665  0.00  0.00     0.037 H 
BRANCH  90  93
ATOM     93  C17 non d ame      -8.549   3.627  67.709  0.00  0.00    -0.059 C 
ATOM     94  H23 non d ame      -8.040   4.552  67.980  0.00  0.00     0.038 H 
BRANCH  93  95
ATOM     95  C18 non d ame      -9.355   3.144  68.956  0.00  0.00    -0.073 C 
ATOM     96  H24 non d ame      -9.928   2.253  68.695  0.00  0.00     0.028 H 
ATOM     97  H25 non d ame      -8.665   2.907  69.766  0.00  0.00     0.028 H 
ATOM     98  H26 non d ame     -10.035   3.932  69.277  0.00  0.00     0.028 H 
ENDBRANCH  93  95
BRANCH  93  99
ATOM     99  C19 non d ame      -7.468   2.610  67.331  0.00  0.00    -0.073 C 
ATOM    100  H27 non d ame      -7.300   1.931  68.167  0.00  0.00     0.028 H 
ATOM    101  H28 non d ame      -7.793   2.041  66.460  0.00  0.00     0.028 H 
ATOM    102  H29 non d ame      -6.542   3.134  67.098  0.00  0.00     0.028 H 
ENDBRANCH  93  99
ENDBRANCH  90  93
ENDBRANCH   1  90
TORSDOF 26
ENDMDL
MODEL 11
REMARK VINA RESULT:      -6.1      2.511      6.443
REMARK  26 active torsions:
REMARK  status: ('A' for Active; 'I' for Inactive)
REMARK    1  A    between atoms: C2_2  and  C3_3 
REMARK    2  A    between atoms: C4_6  and  C5_7 
REMARK       I    between atoms: C5_7  and  N2_9 
REMARK    3  A    between atoms: N2_9  and  C6_10 
REMARK    4  A    between atoms: C6_10  and  C7_11 
REMARK    5  A    between atoms: C6_10  and  C8_13 
REMARK       I    between atoms: C7_11  and  N3_14 
REMARK    6  A    between atoms: N3_14  and  C9_15 
REMARK    7  A    between atoms: C9_15  and  C10_16 
REMARK    8  A    between atoms: C9_15  and  C11_18 
REMARK       I    between atoms: C10_16  and  N4_21 
REMARK    9  A    between atoms: C11_18  and  C12_19 
REMARK   10  A    between atoms: C11_18  and  C13_20 
REMARK   11  A    between atoms: N4_21  and  C14_22 
REMARK   12  A    between atoms: C14_22  and  C15_23 
REMARK   13  A    between atoms: C14_22  and  C16_25 
REMARK       I    between atoms: C15_23  and  N6_40 
REMARK   14  A    between atoms: C16_25  and  C17_26 
REMARK   15  A    between atoms: C17_26  and  C18_27 
REMARK   16  A    between atoms: C17_26  and  C19_28 
REMARK   17  A    between atoms: C20_29  and  C21_30 
REMARK   18  A    between atoms: C20_29  and  C24_33 
REMARK   19  A    between atoms: C20_29  and  N6_40 
REMARK   20  A    between atoms: C21_30  and  C22_31 
REMARK   21  A    between atoms: C22_31  and  C23_32 
REMARK   22  A    between atoms: C23_32  and  O8_43 
REMARK   23  A    between atoms: C24_33  and  C25_34 
REMARK   24  A    between atoms: C28_38  and  O6_39 
REMARK   25  A    between atoms: C29_42  and  O8_43 
REMARK   26  A    between atoms: C29_42  and  C35_49 
ROOT
ATOM      1  C14 non d ame      -6.523   9.928  68.185  0.00  0.00     0.089 C 
ATOM      2  H20 non d ame      -5.465   9.714  68.333  0.00  0.00     0.087 H 
ENDROOT
BRANCH   1   3
ATOM      3  N4  non d ame      -6.865   9.536  66.826  0.00  0.00    -0.346 N 
ATOM      4  C10 non d ame      -5.894   8.731  65.999  0.00  0.00     0.241 C 
ATOM      5  O4  non d ame      -4.842   8.413  66.449  0.00  0.00    -0.271 OA
ATOM      6  H19 non d ame      -7.764   9.819  66.461  0.00  0.00     0.163 HD
BRANCH   4   7
ATOM      7  C9  non d ame      -6.266   8.329  64.596  0.00  0.00     0.092 C 
ATOM      8  H11 non d ame      -7.060   7.583  64.635  0.00  0.00     0.088 H 
BRANCH   7   9
ATOM      9  N3  non d ame      -6.799   9.491  63.879  0.00  0.00    -0.346 N 
ATOM     10  C7  non d ame      -8.024   9.376  63.128  0.00  0.00     0.240 C 
ATOM     11  O3  non d ame      -8.594   8.354  63.088  0.00  0.00    -0.271 OA
ATOM     12  H10 non d ame      -6.317  10.378  63.903  0.00  0.00     0.163 HD
BRANCH  10  13
ATOM     13  C6  non d ame      -8.584  10.616  62.364  0.00  0.00     0.086 C 
ATOM     14  H6  non d ame      -9.467  10.382  61.770  0.00  0.00     0.086 H 
BRANCH  13  15
ATOM     15  N2  non d ame      -8.989  11.621  63.332  0.00  0.00    -0.343 N 
ATOM     16  C5  non d ame     -10.402  11.740  63.701  0.00  0.00     0.273 C 
ATOM     17  O2  non d ame     -11.204  11.023  63.211  0.00  0.00    -0.266 OA
ATOM     18  H5  non d ame      -8.298  12.231  63.744  0.00  0.00     0.163 HD
BRANCH  16  19
ATOM     19  C4  non d ame     -10.844  12.797  64.724  0.00  0.00     0.154 A 
ATOM     20  C1  non d ame     -11.197  12.580  66.094  0.00  0.00    -0.017 A 
ATOM     21  C2  non d ame     -11.525  13.860  66.593  0.00  0.00     0.077 A 
ATOM     22  H1  non d ame     -11.212  11.637  66.643  0.00  0.00     0.091 H 
ATOM     23  O1  non d ame     -11.374  14.707  65.617  0.00  0.00    -0.218 OA
ATOM     24  N1  non d ame     -10.978  14.110  64.516  0.00  0.00    -0.123 NA
BRANCH  21  25
ATOM     25  C3  non d ame     -11.970  14.188  68.012  0.00  0.00    -0.029 C 
ATOM     26  H2  non d ame     -11.430  13.556  68.718  0.00  0.00     0.036 H 
ATOM     27  H3  non d ame     -11.758  15.235  68.226  0.00  0.00     0.036 H 
ATOM     28  H4  non d ame     -13.041  14.007  68.108  0.00  0.00     0.036 H 
ENDBRANCH  21  25
ENDBRANCH  16  19
ENDBRANCH  13  15
BRANCH  13  29
ATOM     29  C8  non d ame      -7.519  11.174  61.456  0.00  0.00    -0.049 C 
ATOM     30  H7  non d ame      -7.802  11.006  60.417  0.00  0.00     0.030 H 
ATOM     31  H8  non d ame      -7.414  12.245  61.635  0.00  0.00     0.030 H 
ATOM     32  H9  non d ame      -6.571  10.677  61.658  0.00  0.00     0.030 H 
ENDBRANCH  13  29
ENDBRANCH  10  13
ENDBRANCH   7   9
BRANCH   7  33
ATOM     33  C11 non d ame      -5.003   7.800  63.856  0.00  0.00    -0.033 C 
ATOM     34  H12 non d ame      -4.218   7.665  64.600  0.00  0.00     0.042 H 
BRANCH  33  35
ATOM     35  C12 non d ame      -5.269   6.410  63.198  0.00  0.00    -0.071 C 
ATOM     36  H13 non d ame      -4.723   5.640  63.743  0.00  0.00     0.028 H 
ATOM     37  H14 non d ame      -6.336   6.191  63.232  0.00  0.00     0.028 H 
ATOM     38  H15 non d ame      -4.935   6.429  62.161  0.00  0.00     0.028 H 
ENDBRANCH  33  35
BRANCH  33  39
ATOM     39  C13 non d ame      -4.497   8.837  62.802  0.00  0.00    -0.071 C 
ATOM     40  H16 non d ame      -3.516   8.535  62.437  0.00  0.00     0.028 H 
ATOM     41  H17 non d ame      -5.198   8.881  61.969  0.00  0.00     0.028 H 
ATOM     42  H18 non d ame      -4.424   9.820  63.268  0.00  0.00     0.028 H 
ENDBRANCH  33  39
ENDBRANCH   7  33
ENDBRANCH   4   7
ENDBRANCH   1   3
BRANCH   1  43
ATOM     43  C15 non d ame      -7.427   9.135  69.171  0.00  0.00     0.240 C 
ATOM     44  O5  non d ame      -7.135   9.074  70.323  0.00  0.00    -0.271 OA
ATOM     45  N6  non d ame      -8.662   8.457  68.683  0.00  0.00    -0.355 N 
ATOM     46  H46 non d ame      -8.923   8.505  67.709  0.00  0.00     0.162 HD
BRANCH  45  47
ATOM     47  C20 non d ame      -9.511   7.708  69.634  0.00  0.00     0.013 C 
ATOM     48  H30 non d ame      -9.000   7.688  70.597  0.00  0.00     0.072 H 
BRANCH  47  49
ATOM     49  C21 non d ame      -9.707   6.297  69.125  0.00  0.00    -0.038 C 
ATOM     50  H31 non d ame     -10.512   5.876  69.728  0.00  0.00     0.036 H 
ATOM     51  H32 non d ame      -9.824   6.388  68.045  0.00  0.00     0.036 H 
BRANCH  49  52
ATOM     52  C22 non d ame      -8.472   5.400  69.356  0.00  0.00     0.018 C 
ATOM     53  H33 non d ame      -7.832   5.949  70.047  0.00  0.00     0.048 H 
ATOM     54  H34 non d ame      -8.866   4.422  69.637  0.00  0.00     0.048 H 
BRANCH  52  55
ATOM     55  C23 non d ame      -7.620   5.168  68.077  0.00  0.00     0.259 C 
ATOM     56  O7  non d ame      -6.464   5.443  68.066  0.00  0.00    -0.265 OA
BRANCH  55  57
ATOM     57  O8  non d ame      -8.240   4.636  66.913  0.00  0.00    -0.317 OA
BRANCH  57  58
ATOM     58  C29 non d ame      -8.232   5.523  65.791  0.00  0.00     0.052 C 
ATOM     59  H47 non d ame      -8.778   6.410  66.111  0.00  0.00     0.082 H 
ATOM     60  H48 non d ame      -7.188   5.606  65.488  0.00  0.00     0.082 H 
BRANCH  58  61
ATOM     61  C35 non d ame      -9.025   4.847  64.641  0.00  0.00    -0.034 A 
ATOM     62  C30 non d ame      -8.622   5.022  63.321  0.00  0.00    -0.075 A 
ATOM     63  C31 non d ame      -9.334   4.415  62.287  0.00  0.00    -0.082 A 
ATOM     64  H49 non d ame      -7.749   5.633  63.096  0.00  0.00     0.084 H 
ATOM     65  C32 non d ame     -10.455   3.632  62.578  0.00  0.00    -0.083 A 
ATOM     66  H50 non d ame      -9.014   4.552  61.255  0.00  0.00     0.083 H 
ATOM     67  C33 non d ame     -10.856   3.463  63.897  0.00  0.00    -0.082 A 
ATOM     68  H51 non d ame     -11.017   3.154  61.776  0.00  0.00     0.083 H 
ATOM     69  C34 non d ame     -10.145   4.067  64.933  0.00  0.00    -0.075 A 
ATOM     70  H52 non d ame     -11.732   2.854  64.120  0.00  0.00     0.083 H 
ATOM     71  H53 non d ame     -10.465   3.928  65.966  0.00  0.00     0.084 H 
ENDBRANCH  58  61
ENDBRANCH  57  58
ENDBRANCH  55  57
ENDBRANCH  52  55
ENDBRANCH  49  52
ENDBRANCH  47  49
BRANCH  47  72
ATOM     72  C24 non d ame     -10.868   8.395  69.767  0.00  0.00    -0.039 C 
ATOM     73  H35 non d ame     -10.780   9.324  69.203  0.00  0.00     0.036 H 
ATOM     74  H36 non d ame     -11.603   7.647  69.471  0.00  0.00     0.036 H 
BRANCH  72  75
ATOM     75  C25 non d ame     -11.184   8.793  71.286  0.00  0.00    -0.001 C 
ATOM     76  C26 non d ame      -9.919   8.377  72.250  0.00  0.00    -0.035 C 
ATOM     77  C27 non d ame     -10.385   7.651  73.294  0.00  0.00     0.085 C 
ATOM     78  H38 non d ame      -9.265   7.679  71.727  0.00  0.00     0.036 H 
ATOM     79  H39 non d ame      -9.501   9.265  72.724  0.00  0.00     0.036 H 
ATOM     80  N5  non d ame     -11.804   7.258  72.960  0.00  0.00    -0.049 N 
ATOM     81  H40 non d ame      -9.766   6.754  73.327  0.00  0.00     0.075 H 
ATOM     82  H41 non d ame     -10.398   8.336  74.142  0.00  0.00     0.075 H 
ATOM     83  C28 non d ame     -12.242   8.191  71.717  0.00  0.00     0.193 C 
ATOM     84  H42 non d ame     -11.768   6.299  72.644  0.00  0.00     0.280 HD
ATOM     85  H43 non d ame     -12.366   7.505  73.761  0.00  0.00     0.280 HD
ATOM     86  H44 non d ame     -12.907   9.041  71.871  0.00  0.00     0.129 H 
ATOM     87  H37 non d ame     -11.562   9.812  71.376  0.00  0.00     0.046 H 
BRANCH  83  88
ATOM     88  O6  non d ame     -12.863   7.400  70.702  0.00  0.00    -0.369 OA
ATOM     89  H45 non d ame     -13.289   7.975  70.063  0.00  0.00     0.212 HD
ENDBRANCH  83  88
ENDBRANCH  72  75
ENDBRANCH  47  72
ENDBRANCH  45  47
ENDBRANCH   1  43
BRANCH   1  90
ATOM     90  C16 non d ame      -6.774  11.420  68.349  0.00  0.00    -0.035 C 
ATOM     91  H21 non d ame      -7.122  11.763  67.375  0.00  0.00     0.037 H 
ATOM     92  H22 non d ame      -7.421  11.509  69.221  0.00  0.00     0.037 H 
BRANCH  90  93
ATOM     93  C17 non d ame      -5.484  12.240  68.671  0.00  0.00    -0.059 C 
ATOM     94  H23 non d ame      -5.787  13.268  68.867  0.00  0.00     0.038 H 
BRANCH  93  95
ATOM     95  C18 non d ame      -4.748  11.708  69.941  0.00  0.00    -0.073 C 
ATOM     96  H24 non d ame      -3.856  12.309  70.121  0.00  0.00     0.028 H 
ATOM     97  H25 non d ame      -5.412  11.779  70.802  0.00  0.00     0.028 H 
ATOM     98  H26 non d ame      -4.462  10.668  69.788  0.00  0.00     0.028 H 
ENDBRANCH  93  95
BRANCH  93  99
ATOM     99  C19 non d ame      -4.541  12.267  67.465  0.00  0.00    -0.073 C 
ATOM    100  H27 non d ame      -3.518  12.097  67.801  0.00  0.00     0.028 H 
ATOM    101  H28 non d ame      -4.827  11.485  66.762  0.00  0.00     0.028 H 
ATOM    102  H29 non d ame      -4.605  13.238  66.976  0.00  0.00     0.028 H 
ENDBRANCH  93  99
ENDBRANCH  90  93
ENDBRANCH   1  90
TORSDOF 26
ENDMDL
MODEL 12
REMARK VINA RESULT:      -6.1      2.349      5.923
REMARK  26 active torsions:
REMARK  status: ('A' for Active; 'I' for Inactive)
REMARK    1  A    between atoms: C2_2  and  C3_3 
REMARK    2  A    between atoms: C4_6  and  C5_7 
REMARK       I    between atoms: C5_7  and  N2_9 
REMARK    3  A    between atoms: N2_9  and  C6_10 
REMARK    4  A    between atoms: C6_10  and  C7_11 
REMARK    5  A    between atoms: C6_10  and  C8_13 
REMARK       I    between atoms: C7_11  and  N3_14 
REMARK    6  A    between atoms: N3_14  and  C9_15 
REMARK    7  A    between atoms: C9_15  and  C10_16 
REMARK    8  A    between atoms: C9_15  and  C11_18 
REMARK       I    between atoms: C10_16  and  N4_21 
REMARK    9  A    between atoms: C11_18  and  C12_19 
REMARK   10  A    between atoms: C11_18  and  C13_20 
REMARK   11  A    between atoms: N4_21  and  C14_22 
REMARK   12  A    between atoms: C14_22  and  C15_23 
REMARK   13  A    between atoms: C14_22  and  C16_25 
REMARK       I    between atoms: C15_23  and  N6_40 
REMARK   14  A    between atoms: C16_25  and  C17_26 
REMARK   15  A    between atoms: C17_26  and  C18_27 
REMARK   16  A    between atoms: C17_26  and  C19_28 
REMARK   17  A    between atoms: C20_29  and  C21_30 
REMARK   18  A    between atoms: C20_29  and  C24_33 
REMARK   19  A    between atoms: C20_29  and  N6_40 
REMARK   20  A    between atoms: C21_30  and  C22_31 
REMARK   21  A    between atoms: C22_31  and  C23_32 
REMARK   22  A    between atoms: C23_32  and  O8_43 
REMARK   23  A    between atoms: C24_33  and  C25_34 
REMARK   24  A    between atoms: C28_38  and  O6_39 
REMARK   25  A    between atoms: C29_42  and  O8_43 
REMARK   26  A    between atoms: C29_42  and  C35_49 
ROOT
ATOM      1  C14 non d ame      -8.348   9.775  68.175  0.00  0.00     0.089 C 
ATOM      2  H20 non d ame      -8.335   8.695  68.030  0.00  0.00     0.087 H 
ENDROOT
BRANCH   1   3
ATOM      3  N4  non d ame      -8.750  10.381  66.914  0.00  0.00    -0.346 N 
ATOM      4  C10 non d ame      -9.649   9.634  65.962  0.00  0.00     0.241 C 
ATOM      5  O4  non d ame     -10.035   8.543  66.231  0.00  0.00    -0.271 OA
ATOM      6  H19 non d ame      -8.409  11.309  66.703  0.00  0.00     0.163 HD
BRANCH   4   7
ATOM      7  C9  non d ame     -10.060  10.278  64.664  0.00  0.00     0.092 C 
ATOM      8  H11 non d ame     -11.058   9.934  64.393  0.00  0.00     0.088 H 
BRANCH   7   9
ATOM      9  N3  non d ame     -10.138  11.731  64.843  0.00  0.00    -0.346 N 
ATOM     10  C7  non d ame     -11.189  12.304  65.648  0.00  0.00     0.240 C 
ATOM     11  O3  non d ame     -11.982  11.609  66.158  0.00  0.00    -0.271 OA
ATOM     12  H10 non d ame      -9.463  12.343  64.408  0.00  0.00     0.163 HD
BRANCH  10  13
ATOM     13  C6  non d ame     -11.269  13.851  65.831  0.00  0.00     0.086 C 
ATOM     14  H6  non d ame     -11.723  14.141  66.779  0.00  0.00     0.086 H 
BRANCH  13  15
ATOM     15  N2  non d ame      -9.921  14.395  65.833  0.00  0.00    -0.343 N 
ATOM     16  C5  non d ame      -9.654  15.659  66.524  0.00  0.00     0.273 C 
ATOM     17  O2  non d ame     -10.531  16.230  67.073  0.00  0.00    -0.266 OA
ATOM     18  H5  non d ame      -9.178  13.901  65.359  0.00  0.00     0.163 HD
BRANCH  16  19
ATOM     19  C4  non d ame      -8.234  16.245  66.535  0.00  0.00     0.154 A 
ATOM     20  C1  non d ame      -7.115  15.784  67.300  0.00  0.00    -0.017 A 
ATOM     21  C2  non d ame      -6.056  16.653  66.955  0.00  0.00     0.077 A 
ATOM     22  H1  non d ame      -7.077  14.948  67.998  0.00  0.00     0.091 H 
ATOM     23  O1  non d ame      -6.522  17.508  66.091  0.00  0.00    -0.218 OA
ATOM     24  N1  non d ame      -7.791  17.290  65.831  0.00  0.00    -0.123 NA
BRANCH  21  25
ATOM     25  C3  non d ame      -4.633  16.598  67.492  0.00  0.00    -0.029 C 
ATOM     26  H2  non d ame      -4.519  17.322  68.300  0.00  0.00     0.036 H 
ATOM     27  H3  non d ame      -4.426  15.597  67.871  0.00  0.00     0.036 H 
ATOM     28  H4  non d ame      -3.931  16.834  66.691  0.00  0.00     0.036 H 
ENDBRANCH  21  25
ENDBRANCH  16  19
ENDBRANCH  13  15
BRANCH  13  29
ATOM     29  C8  non d ame     -12.067  14.453  64.703  0.00  0.00    -0.049 C 
ATOM     30  H7  non d ame     -11.399  14.994  64.033  0.00  0.00     0.030 H 
ATOM     31  H8  non d ame     -12.572  13.659  64.151  0.00  0.00     0.030 H 
ATOM     32  H9  non d ame     -12.807  15.141  65.109  0.00  0.00     0.030 H 
ENDBRANCH  13  29
ENDBRANCH  10  13
ENDBRANCH   7   9
BRANCH   7  33
ATOM     33  C11 non d ame      -9.007   9.949  63.565  0.00  0.00    -0.033 C 
ATOM     34  H12 non d ame      -9.307   9.013  63.094  0.00  0.00     0.042 H 
BRANCH  33  35
ATOM     35  C12 non d ame      -8.983  11.046  62.456  0.00  0.00    -0.071 C 
ATOM     36  H13 non d ame      -8.684  10.597  61.508  0.00  0.00     0.028 H 
ATOM     37  H14 non d ame      -9.976  11.482  62.353  0.00  0.00     0.028 H 
ATOM     38  H15 non d ame      -8.271  11.824  62.731  0.00  0.00     0.028 H 
ENDBRANCH  33  35
BRANCH  33  39
ATOM     39  C13 non d ame      -7.591   9.744  64.192  0.00  0.00    -0.071 C 
ATOM     40  H16 non d ame      -7.645   8.988  64.974  0.00  0.00     0.028 H 
ATOM     41  H17 non d ame      -6.895   9.419  63.418  0.00  0.00     0.028 H 
ATOM     42  H18 non d ame      -7.245  10.685  64.619  0.00  0.00     0.028 H 
ENDBRANCH  33  39
ENDBRANCH   7  33
ENDBRANCH   4   7
ENDBRANCH   1   3
BRANCH   1  43
ATOM     43  C15 non d ame      -9.358  10.208  69.277  0.00  0.00     0.240 C 
ATOM     44  O5  non d ame      -9.182   9.873  70.404  0.00  0.00    -0.271 OA
ATOM     45  N6  non d ame     -10.539  11.049  68.929  0.00  0.00    -0.355 N 
ATOM     46  H46 non d ame     -10.696  11.343  67.976  0.00  0.00     0.162 HD
BRANCH  45  47
ATOM     47  C20 non d ame     -11.488  11.453  69.988  0.00  0.00     0.013 C 
ATOM     48  H30 non d ame     -10.928  11.560  70.917  0.00  0.00     0.072 H 
BRANCH  47  49
ATOM     49  C21 non d ame     -12.548  10.386  70.144  0.00  0.00    -0.038 C 
ATOM     50  H31 non d ame     -13.498  10.884  69.950  0.00  0.00     0.036 H 
ATOM     51  H32 non d ame     -12.226   9.558  69.511  0.00  0.00     0.036 H 
BRANCH  49  52
ATOM     52  C22 non d ame     -12.631   9.829  71.582  0.00  0.00     0.018 C 
ATOM     53  H33 non d ame     -12.051  10.516  72.199  0.00  0.00     0.048 H 
ATOM     54  H34 non d ame     -13.693   9.682  71.780  0.00  0.00     0.048 H 
BRANCH  52  55
ATOM     55  C23 non d ame     -11.964   8.436  71.752  0.00  0.00     0.259 C 
ATOM     56  O7  non d ame     -11.685   8.030  72.833  0.00  0.00    -0.265 OA
BRANCH  55  57
ATOM     57  O8  non d ame     -11.678   7.654  70.600  0.00  0.00    -0.317 OA
BRANCH  57  58
ATOM     58  C29 non d ame     -10.991   6.431  70.880  0.00  0.00     0.052 C 
ATOM     59  H47 non d ame     -10.387   6.627  71.765  0.00  0.00     0.082 H 
ATOM     60  H48 non d ame     -11.761   5.660  70.906  0.00  0.00     0.082 H 
BRANCH  58  61
ATOM     61  C35 non d ame     -10.039   6.133  69.692  0.00  0.00    -0.034 A 
ATOM     62  C30 non d ame     -10.544   5.598  68.512  0.00  0.00    -0.075 A 
ATOM     63  C31 non d ame      -9.689   5.330  67.444  0.00  0.00    -0.082 A 
ATOM     64  H49 non d ame     -11.609   5.388  68.423  0.00  0.00     0.084 H 
ATOM     65  C32 non d ame      -8.322   5.597  67.561  0.00  0.00    -0.083 A 
ATOM     66  H50 non d ame     -10.088   4.912  66.520  0.00  0.00     0.083 H 
ATOM     67  C33 non d ame      -7.821   6.128  68.742  0.00  0.00    -0.082 A 
ATOM     68  H51 non d ame      -7.646   5.391  66.731  0.00  0.00     0.083 H 
ATOM     69  C34 non d ame      -8.673   6.400  69.810  0.00  0.00    -0.075 A 
ATOM     70  H52 non d ame      -6.754   6.334  68.831  0.00  0.00     0.083 H 
ATOM     71  H53 non d ame      -8.272   6.818  70.735  0.00  0.00     0.084 H 
ENDBRANCH  58  61
ENDBRANCH  57  58
ENDBRANCH  55  57
ENDBRANCH  52  55
ENDBRANCH  49  52
ENDBRANCH  47  49
BRANCH  47  72
ATOM     72  C24 non d ame     -12.149  12.777  69.611  0.00  0.00    -0.039 C 
ATOM     73  H35 non d ame     -11.489  13.231  68.872  0.00  0.00     0.036 H 
ATOM     74  H36 non d ame     -13.175  12.524  69.343  0.00  0.00     0.036 H 
BRANCH  72  75
ATOM     75  C25 non d ame     -12.221  13.779  70.859  0.00  0.00    -0.001 C 
ATOM     76  C26 non d ame     -13.483  13.375  71.831  0.00  0.00    -0.035 C 
ATOM     77  C27 non d ame     -14.233  14.480  72.057  0.00  0.00     0.085 C 
ATOM     78  H38 non d ame     -14.165  12.709  71.301  0.00  0.00     0.036 H 
ATOM     79  H39 non d ame     -13.120  13.105  72.823  0.00  0.00     0.036 H 
ATOM     80  N5  non d ame     -13.784  15.528  71.068  0.00  0.00    -0.049 N 
ATOM     81  H40 non d ame     -15.258  14.189  71.828  0.00  0.00     0.075 H 
ATOM     82  H41 non d ame     -13.971  14.807  73.064  0.00  0.00     0.075 H 
ATOM     83  C28 non d ame     -12.380  15.000  70.468  0.00  0.00     0.193 C 
ATOM     84  H42 non d ame     -14.469  15.532  70.326  0.00  0.00     0.280 HD
ATOM     85  H43 non d ame     -13.611  16.368  71.599  0.00  0.00     0.280 HD
ATOM     86  H44 non d ame     -11.438  15.439  70.798  0.00  0.00     0.129 H 
ATOM     87  H37 non d ame     -11.251  13.915  71.336  0.00  0.00     0.046 H 
BRANCH  83  88
ATOM     88  O6  non d ame     -12.379  15.116  69.045  0.00  0.00    -0.369 OA
ATOM     89  H45 non d ame     -12.468  16.039  68.799  0.00  0.00     0.212 HD
ENDBRANCH  83  88
ENDBRANCH  72  75
ENDBRANCH  47  72
ENDBRANCH  45  47
ENDBRANCH   1  43
BRANCH   1  90
ATOM     90  C16 non d ame      -6.954  10.263  68.539  0.00  0.00    -0.035 C 
ATOM     91  H21 non d ame      -6.935  10.293  69.628  0.00  0.00     0.037 H 
ATOM     92  H22 non d ame      -6.270   9.608  68.000  0.00  0.00     0.037 H 
BRANCH  90  93
ATOM     93  C17 non d ame      -6.652  11.715  68.052  0.00  0.00    -0.059 C 
ATOM     94  H23 non d ame      -7.538  12.081  67.533  0.00  0.00     0.038 H 
BRANCH  93  95
ATOM     95  C18 non d ame      -6.360  12.687  69.238  0.00  0.00    -0.073 C 
ATOM     96  H24 non d ame      -5.519  12.308  69.820  0.00  0.00     0.028 H 
ATOM     97  H25 non d ame      -6.115  13.675  68.848  0.00  0.00     0.028 H 
ATOM     98  H26 non d ame      -7.241  12.758  69.876  0.00  0.00     0.028 H 
ENDBRANCH  93  95
BRANCH  93  99
ATOM     99  C19 non d ame      -5.500  11.724  67.043  0.00  0.00    -0.073 C 
ATOM    100  H27 non d ame      -5.605  10.878  66.364  0.00  0.00     0.028 H 
ATOM    101  H28 non d ame      -5.524  12.653  66.473  0.00  0.00     0.028 H 
ATOM    102  H29 non d ame      -4.552  11.648  67.574  0.00  0.00     0.028 H 
ENDBRANCH  93  99
ENDBRANCH  90  93
ENDBRANCH   1  90
TORSDOF 26
ENDMDL
MODEL 13
REMARK VINA RESULT:      -6.1      2.391      6.767
REMARK  26 active torsions:
REMARK  status: ('A' for Active; 'I' for Inactive)
REMARK    1  A    between atoms: C2_2  and  C3_3 
REMARK    2  A    between atoms: C4_6  and  C5_7 
REMARK       I    between atoms: C5_7  and  N2_9 
REMARK    3  A    between atoms: N2_9  and  C6_10 
REMARK    4  A    between atoms: C6_10  and  C7_11 
REMARK    5  A    between atoms: C6_10  and  C8_13 
REMARK       I    between atoms: C7_11  and  N3_14 
REMARK    6  A    between atoms: N3_14  and  C9_15 
REMARK    7  A    between atoms: C9_15  and  C10_16 
REMARK    8  A    between atoms: C9_15  and  C11_18 
REMARK       I    between atoms: C10_16  and  N4_21 
REMARK    9  A    between atoms: C11_18  and  C12_19 
REMARK   10  A    between atoms: C11_18  and  C13_20 
REMARK   11  A    between atoms: N4_21  and  C14_22 
REMARK   12  A    between atoms: C14_22  and  C15_23 
REMARK   13  A    between atoms: C14_22  and  C16_25 
REMARK       I    between atoms: C15_23  and  N6_40 
REMARK   14  A    between atoms: C16_25  and  C17_26 
REMARK   15  A    between atoms: C17_26  and  C18_27 
REMARK   16  A    between atoms: C17_26  and  C19_28 
REMARK   17  A    between atoms: C20_29  and  C21_30 
REMARK   18  A    between atoms: C20_29  and  C24_33 
REMARK   19  A    between atoms: C20_29  and  N6_40 
REMARK   20  A    between atoms: C21_30  and  C22_31 
REMARK   21  A    between atoms: C22_31  and  C23_32 
REMARK   22  A    between atoms: C23_32  and  O8_43 
REMARK   23  A    between atoms: C24_33  and  C25_34 
REMARK   24  A    between atoms: C28_38  and  O6_39 
REMARK   25  A    between atoms: C29_42  and  O8_43 
REMARK   26  A    between atoms: C29_42  and  C35_49 
ROOT
ATOM      1  C14 non d ame     -10.452   8.211  69.050  0.00  0.00     0.089 C 
ATOM      2  H20 non d ame     -11.511   7.996  68.908  0.00  0.00     0.087 H 
ENDROOT
BRANCH   1   3
ATOM      3  N4  non d ame      -9.702   7.075  68.535  0.00  0.00    -0.346 N 
ATOM      4  C10 non d ame     -10.267   6.231  67.421  0.00  0.00     0.241 C 
ATOM      5  O4  non d ame     -11.330   6.483  66.956  0.00  0.00    -0.271 OA
ATOM      6  H19 non d ame      -8.800   6.875  68.946  0.00  0.00     0.163 HD
BRANCH   4   7
ATOM      7  C9  non d ame      -9.475   5.063  66.896  0.00  0.00     0.092 C 
ATOM      8  H11 non d ame      -9.959   4.674  66.000  0.00  0.00     0.088 H 
BRANCH   7   9
ATOM      9  N3  non d ame      -8.138   5.516  66.501  0.00  0.00    -0.346 N 
ATOM     10  C7  non d ame      -7.783   5.589  65.106  0.00  0.00     0.240 C 
ATOM     11  O3  non d ame      -8.561   5.284  64.286  0.00  0.00    -0.271 OA
ATOM     12  H10 non d ame      -7.455   5.780  67.197  0.00  0.00     0.163 HD
BRANCH  10  13
ATOM     13  C6  non d ame      -6.357   6.069  64.693  0.00  0.00     0.086 C 
ATOM     14  H6  non d ame      -6.268   6.255  63.622  0.00  0.00     0.086 H 
BRANCH  13  15
ATOM     15  N2  non d ame      -6.074   7.329  65.359  0.00  0.00    -0.343 N 
ATOM     16  C5  non d ame      -5.833   8.531  64.556  0.00  0.00     0.273 C 
ATOM     17  O2  non d ame      -5.868   8.472  63.376  0.00  0.00    -0.266 OA
ATOM     18  H5  non d ame      -6.044   7.371  66.367  0.00  0.00     0.163 HD
BRANCH  16  19
ATOM     19  C4  non d ame      -5.535   9.871  65.246  0.00  0.00     0.154 A 
ATOM     20  C1  non d ame      -6.235  10.448  66.352  0.00  0.00    -0.017 A 
ATOM     21  C2  non d ame      -5.574  11.672  66.603  0.00  0.00     0.077 A 
ATOM     22  H1  non d ame      -7.092  10.043  66.891  0.00  0.00     0.091 H 
ATOM     23  O1  non d ame      -4.607  11.774  65.738  0.00  0.00    -0.218 OA
ATOM     24  N1  non d ame      -4.565  10.735  64.935  0.00  0.00    -0.123 NA
BRANCH  21  25
ATOM     25  C3  non d ame      -5.926  12.681  67.687  0.00  0.00    -0.029 C 
ATOM     26  H2  non d ame      -5.727  13.690  67.324  0.00  0.00     0.036 H 
ATOM     27  H3  non d ame      -6.982  12.588  67.940  0.00  0.00     0.036 H 
ATOM     28  H4  non d ame      -5.323  12.488  68.575  0.00  0.00     0.036 H 
ENDBRANCH  21  25
ENDBRANCH  16  19
ENDBRANCH  13  15
BRANCH  13  29
ATOM     29  C8  non d ame      -5.339   5.033  65.094  0.00  0.00    -0.049 C 
ATOM     30  H7  non d ame      -5.597   4.074  64.644  0.00  0.00     0.030 H 
ATOM     31  H8  non d ame      -4.351   5.342  64.748  0.00  0.00     0.030 H 
ATOM     32  H9  non d ame      -5.329   4.934  66.179  0.00  0.00     0.030 H 
ENDBRANCH  13  29
ENDBRANCH  10  13
ENDBRANCH   7   9
BRANCH   7  33
ATOM     33  C11 non d ame      -9.346   3.981  68.008  0.00  0.00    -0.033 C 
ATOM     34  H12 non d ame     -10.223   4.065  68.651  0.00  0.00     0.042 H 
BRANCH  33  35
ATOM     35  C12 non d ame      -9.343   2.542  67.404  0.00  0.00    -0.071 C 
ATOM     36  H13 non d ame      -9.303   1.810  68.211  0.00  0.00     0.028 H 
ATOM     37  H14 non d ame     -10.251   2.390  66.822  0.00  0.00     0.028 H 
ATOM     38  H15 non d ame      -8.473   2.422  66.759  0.00  0.00     0.028 H 
ENDBRANCH  33  35
BRANCH  33  39
ATOM     39  C13 non d ame      -8.077   4.230  68.886  0.00  0.00    -0.071 C 
ATOM     40  H16 non d ame      -7.312   3.496  68.634  0.00  0.00     0.028 H 
ATOM     41  H17 non d ame      -7.696   5.234  68.697  0.00  0.00     0.028 H 
ATOM     42  H18 non d ame      -8.341   4.133  69.939  0.00  0.00     0.028 H 
ENDBRANCH  33  39
ENDBRANCH   7  33
ENDBRANCH   4   7
ENDBRANCH   1   3
BRANCH   1  43
ATOM     43  C15 non d ame     -10.003   9.489  68.285  0.00  0.00     0.240 C 
ATOM     44  O5  non d ame      -8.846   9.746  68.191  0.00  0.00    -0.271 OA
ATOM     45  N6  non d ame     -11.015  10.387  67.660  0.00  0.00    -0.355 N 
ATOM     46  H46 non d ame     -12.001  10.177  67.728  0.00  0.00     0.162 HD
BRANCH  45  47
ATOM     47  C20 non d ame     -10.572  11.597  66.934  0.00  0.00     0.013 C 
ATOM     48  H30 non d ame      -9.619  11.372  66.456  0.00  0.00     0.072 H 
BRANCH  47  49
ATOM     49  C21 non d ame     -10.401  12.734  67.916  0.00  0.00    -0.038 C 
ATOM     50  H31 non d ame     -10.328  12.267  68.899  0.00  0.00     0.036 H 
ATOM     51  H32 non d ame      -9.572  13.331  67.533  0.00  0.00     0.036 H 
BRANCH  49  52
ATOM     52  C22 non d ame     -11.626  13.672  67.968  0.00  0.00     0.018 C 
ATOM     53  H33 non d ame     -12.293  13.331  67.175  0.00  0.00     0.048 H 
ATOM     54  H34 non d ame     -11.962  13.662  69.005  0.00  0.00     0.048 H 
BRANCH  52  55
ATOM     55  C23 non d ame     -11.294  15.154  67.639  0.00  0.00     0.259 C 
ATOM     56  O7  non d ame     -10.732  15.436  66.631  0.00  0.00    -0.265 OA
BRANCH  55  57
ATOM     57  O8  non d ame     -11.658  16.172  68.563  0.00  0.00    -0.317 OA
BRANCH  57  58
ATOM     58  C29 non d ame     -10.946  16.116  69.803  0.00  0.00     0.052 C 
ATOM     59  H47 non d ame     -10.281  15.257  69.723  0.00  0.00     0.082 H 
ATOM     60  H48 non d ame     -10.533  17.114  69.950  0.00  0.00     0.082 H 
BRANCH  58  61
ATOM     61  C35 non d ame     -11.974  15.838  70.932  0.00  0.00    -0.034 A 
ATOM     62  C30 non d ame     -11.604  15.995  72.263  0.00  0.00    -0.075 A 
ATOM     63  C31 non d ame     -12.526  15.745  73.278  0.00  0.00    -0.082 A 
ATOM     64  H49 non d ame     -10.592  16.312  72.512  0.00  0.00     0.084 H 
ATOM     65  C32 non d ame     -13.823  15.336  72.957  0.00  0.00    -0.083 A 
ATOM     66  H50 non d ame     -12.234  15.870  74.321  0.00  0.00     0.083 H 
ATOM     67  C33 non d ame     -14.188  15.178  71.627  0.00  0.00    -0.082 A 
ATOM     68  H51 non d ame     -14.551  15.139  73.744  0.00  0.00     0.083 H 
ATOM     69  C34 non d ame     -13.269  15.429  70.609  0.00  0.00    -0.075 A 
ATOM     70  H52 non d ame     -15.199  14.856  71.379  0.00  0.00     0.083 H 
ATOM     71  H53 non d ame     -13.563  15.303  69.566  0.00  0.00     0.084 H 
ENDBRANCH  58  61
ENDBRANCH  57  58
ENDBRANCH  55  57
ENDBRANCH  52  55
ENDBRANCH  49  52
ENDBRANCH  47  49
BRANCH  47  72
ATOM     72  C24 non d ame     -11.614  11.981  65.887  0.00  0.00    -0.039 C 
ATOM     73  H35 non d ame     -12.545  11.522  66.220  0.00  0.00     0.036 H 
ATOM     74  H36 non d ame     -11.546  13.065  65.792  0.00  0.00     0.036 H 
BRANCH  72  75
ATOM     75  C25 non d ame     -11.268  11.360  64.451  0.00  0.00    -0.001 C 
ATOM     76  C26 non d ame     -10.072  10.241  64.598  0.00  0.00    -0.035 C 
ATOM     77  C27 non d ame      -9.095  10.525  63.705  0.00  0.00     0.085 C 
ATOM     78  H38 non d ame      -9.575  10.350  65.562  0.00  0.00     0.036 H 
ATOM     79  H39 non d ame     -10.433   9.263  64.279  0.00  0.00     0.036 H 
ATOM     80  N5  non d ame      -9.361  11.918  63.188  0.00  0.00    -0.049 N 
ATOM     81  H40 non d ame      -8.167  10.529  64.278  0.00  0.00     0.075 H 
ATOM     82  H41 non d ame      -9.230   9.813  62.890  0.00  0.00     0.075 H 
ATOM     83  C28 non d ame     -10.873  12.274  63.629  0.00  0.00     0.193 C 
ATOM     84  H42 non d ame      -8.729  12.532  63.682  0.00  0.00     0.280 HD
ATOM     85  H43 non d ame      -9.325  11.862  62.181  0.00  0.00     0.280 HD
ATOM     86  H44 non d ame     -11.683  12.249  62.899  0.00  0.00     0.129 H 
ATOM     87  H37 non d ame     -12.162  11.061  63.904  0.00  0.00     0.046 H 
BRANCH  83  88
ATOM     88  O6  non d ame     -10.923  13.579  64.209  0.00  0.00    -0.369 OA
ATOM     89  H45 non d ame     -10.033  13.867  64.423  0.00  0.00     0.212 HD
ENDBRANCH  83  88
ENDBRANCH  72  75
ENDBRANCH  47  72
ENDBRANCH  45  47
ENDBRANCH   1  43
BRANCH   1  90
ATOM     90  C16 non d ame     -10.154   8.372  70.533  0.00  0.00    -0.035 C 
ATOM     91  H21 non d ame      -9.358   7.658  70.746  0.00  0.00     0.037 H 
ATOM     92  H22 non d ame      -9.982   9.438  70.678  0.00  0.00     0.037 H 
BRANCH  90  93
ATOM     93  C17 non d ame     -11.351   7.987  71.458  0.00  0.00    -0.059 C 
ATOM     94  H23 non d ame     -12.002   8.857  71.535  0.00  0.00     0.038 H 
BRANCH  93  95
ATOM     95  C18 non d ame     -12.195   6.810  70.872  0.00  0.00    -0.073 C 
ATOM     96  H24 non d ame     -12.701   6.287  71.684  0.00  0.00     0.028 H 
ATOM     97  H25 non d ame     -12.936   7.205  70.178  0.00  0.00     0.028 H 
ATOM     98  H26 non d ame     -11.538   6.118  70.346  0.00  0.00     0.028 H 
ENDBRANCH  93  95
BRANCH  93  99
ATOM     99  C19 non d ame     -10.865   7.657  72.872  0.00  0.00    -0.073 C 
ATOM    100  H27 non d ame      -9.918   8.164  73.057  0.00  0.00     0.028 H 
ATOM    101  H28 non d ame     -11.605   7.993  73.598  0.00  0.00     0.028 H 
ATOM    102  H29 non d ame     -10.725   6.581  72.966  0.00  0.00     0.028 H 
ENDBRANCH  93  99
ENDBRANCH  90  93
ENDBRANCH   1  90
TORSDOF 26
ENDMDL
MODEL 14
REMARK VINA RESULT:      -6.0      2.453      3.950
REMARK  26 active torsions:
REMARK  status: ('A' for Active; 'I' for Inactive)
REMARK    1  A    between atoms: C2_2  and  C3_3 
REMARK    2  A    between atoms: C4_6  and  C5_7 
REMARK       I    between atoms: C5_7  and  N2_9 
REMARK    3  A    between atoms: N2_9  and  C6_10 
REMARK    4  A    between atoms: C6_10  and  C7_11 
REMARK    5  A    between atoms: C6_10  and  C8_13 
REMARK       I    between atoms: C7_11  and  N3_14 
REMARK    6  A    between atoms: N3_14  and  C9_15 
REMARK    7  A    between atoms: C9_15  and  C10_16 
REMARK    8  A    between atoms: C9_15  and  C11_18 
REMARK       I    between atoms: C10_16  and  N4_21 
REMARK    9  A    between atoms: C11_18  and  C12_19 
REMARK   10  A    between atoms: C11_18  and  C13_20 
REMARK   11  A    between atoms: N4_21  and  C14_22 
REMARK   12  A    between atoms: C14_22  and  C15_23 
REMARK   13  A    between atoms: C14_22  and  C16_25 
REMARK       I    between atoms: C15_23  and  N6_40 
REMARK   14  A    between atoms: C16_25  and  C17_26 
REMARK   15  A    between atoms: C17_26  and  C18_27 
REMARK   16  A    between atoms: C17_26  and  C19_28 
REMARK   17  A    between atoms: C20_29  and  C21_30 
REMARK   18  A    between atoms: C20_29  and  C24_33 
REMARK   19  A    between atoms: C20_29  and  N6_40 
REMARK   20  A    between atoms: C21_30  and  C22_31 
REMARK   21  A    between atoms: C22_31  and  C23_32 
REMARK   22  A    between atoms: C23_32  and  O8_43 
REMARK   23  A    between atoms: C24_33  and  C25_34 
REMARK   24  A    between atoms: C28_38  and  O6_39 
REMARK   25  A    between atoms: C29_42  and  O8_43 
REMARK   26  A    between atoms: C29_42  and  C35_49 
ROOT
ATOM      1  C14 non d ame      -7.948   6.235  64.354  0.00  0.00     0.089 C 
ATOM      2  H20 non d ame      -8.290   6.236  63.319  0.00  0.00     0.087 H 
ENDROOT
BRANCH   1   3
ATOM      3  N4  non d ame      -7.761   7.622  64.755  0.00  0.00    -0.346 N 
ATOM      4  C10 non d ame      -8.150   8.743  63.824  0.00  0.00     0.241 C 
ATOM      5  O4  non d ame      -8.608   8.504  62.756  0.00  0.00    -0.271 OA
ATOM      6  H19 non d ame      -7.367   7.803  65.668  0.00  0.00     0.163 HD
BRANCH   4   7
ATOM      7  C9  non d ame      -7.955  10.172  64.258  0.00  0.00     0.092 C 
ATOM      8  H11 non d ame      -7.602  10.759  63.410  0.00  0.00     0.088 H 
BRANCH   7   9
ATOM      9  N3  non d ame      -9.243  10.738  64.670  0.00  0.00    -0.346 N 
ATOM     10  C7  non d ame      -9.991  11.567  63.759  0.00  0.00     0.240 C 
ATOM     11  O3  non d ame      -9.571  11.791  62.689  0.00  0.00    -0.271 OA
ATOM     12  H10 non d ame      -9.617  10.555  65.590  0.00  0.00     0.163 HD
BRANCH  10  13
ATOM     13  C6  non d ame     -11.360  12.169  64.205  0.00  0.00     0.086 C 
ATOM     14  H6  non d ame     -11.663  11.838  65.198  0.00  0.00     0.086 H 
BRANCH  13  15
ATOM     15  N2  non d ame     -11.239  13.616  64.268  0.00  0.00    -0.343 N 
ATOM     16  C5  non d ame     -10.961  14.261  65.553  0.00  0.00     0.273 C 
ATOM     17  O2  non d ame     -10.839  13.608  66.530  0.00  0.00    -0.266 OA
ATOM     18  H5  non d ame     -11.347  14.167  63.429  0.00  0.00     0.163 HD
BRANCH  16  19
ATOM     19  C4  non d ame     -10.829  15.790  65.635  0.00  0.00     0.154 A 
ATOM     20  C1  non d ame     -10.449  16.566  66.776  0.00  0.00    -0.017 A 
ATOM     21  C2  non d ame     -10.480  17.906  66.332  0.00  0.00     0.077 A 
ATOM     22  H1  non d ame     -10.191  16.210  67.774  0.00  0.00     0.091 H 
ATOM     23  O1  non d ame     -10.836  17.892  65.080  0.00  0.00    -0.218 OA
ATOM     24  N1  non d ame     -11.046  16.668  64.651  0.00  0.00    -0.123 NA
BRANCH  21  25
ATOM     25  C3  non d ame     -10.155  19.139  67.163  0.00  0.00    -0.029 C 
ATOM     26  H2  non d ame     -11.042  19.770  67.241  0.00  0.00     0.036 H 
ATOM     27  H3  non d ame      -9.840  18.832  68.160  0.00  0.00     0.036 H 
ATOM     28  H4  non d ame      -9.351  19.700  66.685  0.00  0.00     0.036 H 
ENDBRANCH  21  25
ENDBRANCH  16  19
ENDBRANCH  13  15
BRANCH  13  29
ATOM     29  C8  non d ame     -12.429  11.783  63.215  0.00  0.00    -0.049 C 
ATOM     30  H7  non d ame     -12.669  10.726  63.332  0.00  0.00     0.030 H 
ATOM     31  H8  non d ame     -13.324  12.381  63.396  0.00  0.00     0.030 H 
ATOM     32  H9  non d ame     -12.070  11.964  62.203  0.00  0.00     0.030 H 
ENDBRANCH  13  29
ENDBRANCH  10  13
ENDBRANCH   7   9
BRANCH   7  33
ATOM     33  C11 non d ame      -6.962  10.220  65.456  0.00  0.00    -0.033 C 
ATOM     34  H12 non d ame      -6.902   9.215  65.873  0.00  0.00     0.042 H 
BRANCH  33  35
ATOM     35  C12 non d ame      -5.528  10.621  64.990  0.00  0.00    -0.071 C 
ATOM     36  H13 non d ame      -4.790  10.036  65.540  0.00  0.00     0.028 H 
ATOM     37  H14 non d ame      -5.424  10.424  63.923  0.00  0.00     0.028 H 
ATOM     38  H15 non d ame      -5.368  11.682  65.181  0.00  0.00     0.028 H 
ENDBRANCH  33  35
BRANCH  33  39
ATOM     39  C13 non d ame      -7.482  11.178  66.575  0.00  0.00    -0.071 C 
ATOM     40  H16 non d ame      -6.871  11.060  67.468  0.00  0.00     0.028 H 
ATOM     41  H17 non d ame      -7.423  12.210  66.227  0.00  0.00     0.028 H 
ATOM     42  H18 non d ame      -8.518  10.933  66.809  0.00  0.00     0.028 H 
ENDBRANCH  33  39
ENDBRANCH   7  33
ENDBRANCH   4   7
ENDBRANCH   1   3
BRANCH   1  43
ATOM     43  C15 non d ame      -8.980   5.577  65.314  0.00  0.00     0.240 C 
ATOM     44  O5  non d ame      -9.557   4.593  64.977  0.00  0.00    -0.271 OA
ATOM     45  N6  non d ame      -9.242   6.166  66.658  0.00  0.00    -0.355 N 
ATOM     46  H46 non d ame      -8.755   6.999  66.957  0.00  0.00     0.162 HD
BRANCH  45  47
ATOM     47  C20 non d ame     -10.225   5.527  67.559  0.00  0.00     0.013 C 
ATOM     48  H30 non d ame     -11.006   5.083  66.942  0.00  0.00     0.072 H 
BRANCH  47  49
ATOM     49  C21 non d ame     -10.822   6.574  68.472  0.00  0.00    -0.038 C 
ATOM     50  H31 non d ame     -11.899   6.524  68.314  0.00  0.00     0.036 H 
ATOM     51  H32 non d ame     -10.404   6.375  69.460  0.00  0.00     0.036 H 
BRANCH  49  52
ATOM     52  C22 non d ame     -10.392   8.010  68.099  0.00  0.00     0.018 C 
ATOM     53  H33 non d ame      -9.336   7.944  67.836  0.00  0.00     0.048 H 
ATOM     54  H34 non d ame     -11.117   8.352  67.360  0.00  0.00     0.048 H 
BRANCH  52  55
ATOM     55  C23 non d ame     -10.476   9.015  69.281  0.00  0.00     0.259 C 
ATOM     56  O7  non d ame      -9.554   9.718  69.540  0.00  0.00    -0.265 OA
BRANCH  55  57
ATOM     57  O8  non d ame     -11.664   9.077  70.061  0.00  0.00    -0.317 OA
BRANCH  57  58
ATOM     58  C29 non d ame     -11.435   9.296  71.456  0.00  0.00     0.052 C 
ATOM     59  H47 non d ame     -10.501   9.854  71.518  0.00  0.00     0.082 H 
ATOM     60  H48 non d ame     -12.357   9.732  71.841  0.00  0.00     0.082 H 
BRANCH  58  61
ATOM     61  C35 non d ame     -11.228   7.913  72.130  0.00  0.00    -0.034 A 
ATOM     62  C30 non d ame     -10.183   7.726  73.028  0.00  0.00    -0.075 A 
ATOM     63  C31 non d ame      -9.997   6.485  73.634  0.00  0.00    -0.082 A 
ATOM     64  H49 non d ame      -9.511   8.552  73.258  0.00  0.00     0.084 H 
ATOM     65  C32 non d ame     -10.859   5.427  73.336  0.00  0.00    -0.083 A 
ATOM     66  H50 non d ame      -9.178   6.342  74.339  0.00  0.00     0.083 H 
ATOM     67  C33 non d ame     -11.899   5.616  72.435  0.00  0.00    -0.082 A 
ATOM     68  H51 non d ame     -10.721   4.452  73.804  0.00  0.00     0.083 H 
ATOM     69  C34 non d ame     -12.090   6.857  71.830  0.00  0.00    -0.075 A 
ATOM     70  H52 non d ame     -12.569   4.788  72.203  0.00  0.00     0.083 H 
ATOM     71  H53 non d ame     -12.910   6.999  71.124  0.00  0.00     0.084 H 
ENDBRANCH  58  61
ENDBRANCH  57  58
ENDBRANCH  55  57
ENDBRANCH  52  55
ENDBRANCH  49  52
ENDBRANCH  47  49
BRANCH  47  72
ATOM     72  C24 non d ame      -9.535   4.453  68.397  0.00  0.00    -0.039 C 
ATOM     73  H35 non d ame     -10.339   3.833  68.793  0.00  0.00     0.036 H 
ATOM     74  H36 non d ame      -8.780   4.015  67.744  0.00  0.00     0.036 H 
BRANCH  72  75
ATOM     75  C25 non d ame      -8.764   5.085  69.651  0.00  0.00    -0.001 C 
ATOM     76  C26 non d ame      -7.175   5.296  69.285  0.00  0.00    -0.035 C 
ATOM     77  C27 non d ame      -6.423   4.731  70.259  0.00  0.00     0.085 C 
ATOM     78  H38 non d ame      -6.917   4.719  68.397  0.00  0.00     0.036 H 
ATOM     79  H39 non d ame      -6.915   6.353  69.343  0.00  0.00     0.036 H 
ATOM     80  N5  non d ame      -7.347   3.872  71.088  0.00  0.00    -0.049 N 
ATOM     81  H40 non d ame      -5.709   4.089  69.742  0.00  0.00     0.075 H 
ATOM     82  H41 non d ame      -6.068   5.560  70.871  0.00  0.00     0.075 H 
ATOM     83  C28 non d ame      -8.847   4.317  70.686  0.00  0.00     0.193 C 
ATOM     84  H42 non d ame      -7.203   2.919  70.783  0.00  0.00     0.280 HD
ATOM     85  H43 non d ame      -7.185   4.123  72.052  0.00  0.00     0.280 HD
ATOM     86  H44 non d ame      -9.435   4.946  71.355  0.00  0.00     0.129 H 
ATOM     87  H37 non d ame      -9.293   5.939  70.074  0.00  0.00     0.046 H 
BRANCH  83  88
ATOM     88  O6  non d ame      -9.653   3.164  70.439  0.00  0.00    -0.369 OA
ATOM     89  H45 non d ame      -9.128   2.372  70.572  0.00  0.00     0.212 HD
ENDBRANCH  83  88
ENDBRANCH  72  75
ENDBRANCH  47  72
ENDBRANCH  45  47
ENDBRANCH   1  43
BRANCH   1  90
ATOM     90  C16 non d ame      -6.617   5.505  64.455  0.00  0.00    -0.035 C 
ATOM     91  H21 non d ame      -6.670   4.938  65.384  0.00  0.00     0.037 H 
ATOM     92  H22 non d ame      -6.501   4.985  63.505  0.00  0.00     0.037 H 
BRANCH  90  93
ATOM     93  C17 non d ame      -5.388   6.459  64.589  0.00  0.00    -0.059 C 
ATOM     94  H23 non d ame      -5.721   7.355  65.113  0.00  0.00     0.038 H 
BRANCH  93  95
ATOM     95  C18 non d ame      -4.234   5.821  65.424  0.00  0.00    -0.073 C 
ATOM     96  H24 non d ame      -3.316   6.389  65.269  0.00  0.00     0.028 H 
ATOM     97  H25 non d ame      -4.497   5.839  66.482  0.00  0.00     0.028 H 
ATOM     98  H26 non d ame      -4.082   4.789  65.106  0.00  0.00     0.028 H 
ENDBRANCH  93  95
BRANCH  93  99
ATOM     99  C19 non d ame      -4.886   6.900  63.212  0.00  0.00    -0.073 C 
ATOM    100  H27 non d ame      -5.345   7.852  62.946  0.00  0.00     0.028 H 
ATOM    101  H28 non d ame      -3.802   7.013  63.239  0.00  0.00     0.028 H 
ATOM    102  H29 non d ame      -5.154   6.148  62.470  0.00  0.00     0.028 H 
ENDBRANCH  93  99
ENDBRANCH  90  93
ENDBRANCH   1  90
TORSDOF 26
ENDMDL
MODEL 15
REMARK VINA RESULT:      -6.0      2.497      5.211
REMARK  26 active torsions:
REMARK  status: ('A' for Active; 'I' for Inactive)
REMARK    1  A    between atoms: C2_2  and  C3_3 
REMARK    2  A    between atoms: C4_6  and  C5_7 
REMARK       I    between atoms: C5_7  and  N2_9 
REMARK    3  A    between atoms: N2_9  and  C6_10 
REMARK    4  A    between atoms: C6_10  and  C7_11 
REMARK    5  A    between atoms: C6_10  and  C8_13 
REMARK       I    between atoms: C7_11  and  N3_14 
REMARK    6  A    between atoms: N3_14  and  C9_15 
REMARK    7  A    between atoms: C9_15  and  C10_16 
REMARK    8  A    between atoms: C9_15  and  C11_18 
REMARK       I    between atoms: C10_16  and  N4_21 
REMARK    9  A    between atoms: C11_18  and  C12_19 
REMARK   10  A    between atoms: C11_18  and  C13_20 
REMARK   11  A    between atoms: N4_21  and  C14_22 
REMARK   12  A    between atoms: C14_22  and  C15_23 
REMARK   13  A    between atoms: C14_22  and  C16_25 
REMARK       I    between atoms: C15_23  and  N6_40 
REMARK   14  A    between atoms: C16_25  and  C17_26 
REMARK   15  A    between atoms: C17_26  and  C18_27 
REMARK   16  A    between atoms: C17_26  and  C19_28 
REMARK   17  A    between atoms: C20_29  and  C21_30 
REMARK   18  A    between atoms: C20_29  and  C24_33 
REMARK   19  A    between atoms: C20_29  and  N6_40 
REMARK   20  A    between atoms: C21_30  and  C22_31 
REMARK   21  A    between atoms: C22_31  and  C23_32 
REMARK   22  A    between atoms: C23_32  and  O8_43 
REMARK   23  A    between atoms: C24_33  and  C25_34 
REMARK   24  A    between atoms: C28_38  and  O6_39 
REMARK   25  A    between atoms: C29_42  and  O8_43 
REMARK   26  A    between atoms: C29_42  and  C35_49 
ROOT
ATOM      1  C14 non d ame      -9.156   6.920  66.525  0.00  0.00     0.089 C 
ATOM      2  H20 non d ame      -9.968   6.727  67.225  0.00  0.00     0.087 H 
ENDROOT
BRANCH   1   3
ATOM      3  N4  non d ame      -9.544   8.058  65.706  0.00  0.00    -0.346 N 
ATOM      4  C10 non d ame     -10.119   9.297  66.346  0.00  0.00     0.241 C 
ATOM      5  O4  non d ame     -10.261   9.353  67.523  0.00  0.00    -0.271 OA
ATOM      6  H19 non d ame      -9.417   7.989  64.705  0.00  0.00     0.163 HD
BRANCH   4   7
ATOM      7  C9  non d ame     -10.510  10.468  65.483  0.00  0.00     0.092 C 
ATOM      8  H11 non d ame     -11.588  10.448  65.320  0.00  0.00     0.088 H 
BRANCH   7   9
ATOM      9  N3  non d ame     -10.202  11.717  66.185  0.00  0.00    -0.346 N 
ATOM     10  C7  non d ame     -11.256  12.655  66.486  0.00  0.00     0.240 C 
ATOM     11  O3  non d ame     -12.358  12.420  66.168  0.00  0.00    -0.271 OA
ATOM     12  H10 non d ame      -9.256  11.934  66.464  0.00  0.00     0.163 HD
BRANCH  10  13
ATOM     13  C6  non d ame     -10.920  13.984  67.230  0.00  0.00     0.086 C 
ATOM     14  H6  non d ame     -11.463  14.841  66.830  0.00  0.00     0.086 H 
BRANCH  13  15
ATOM     15  N2  non d ame     -11.315  13.856  68.623  0.00  0.00    -0.343 N 
ATOM     16  C5  non d ame     -11.806  15.033  69.344  0.00  0.00     0.273 C 
ATOM     17  O2  non d ame     -11.877  16.077  68.796  0.00  0.00    -0.266 OA
ATOM     18  H5  non d ame     -11.249  12.961  69.085  0.00  0.00     0.163 HD
BRANCH  16  19
ATOM     19  C4  non d ame     -12.228  14.912  70.817  0.00  0.00     0.154 A 
ATOM     20  C1  non d ame     -11.794  15.727  71.910  0.00  0.00    -0.017 A 
ATOM     21  C2  non d ame     -12.468  15.210  73.039  0.00  0.00     0.077 A 
ATOM     22  H1  non d ame     -11.096  16.565  71.889  0.00  0.00     0.091 H 
ATOM     23  O1  non d ame     -13.203  14.217  72.631  0.00  0.00    -0.218 OA
ATOM     24  N1  non d ame     -13.078  14.023  71.337  0.00  0.00    -0.123 NA
BRANCH  21  25
ATOM     25  C3  non d ame     -12.358  15.724  74.468  0.00  0.00    -0.029 C 
ATOM     26  H2  non d ame     -11.826  14.992  75.078  0.00  0.00     0.036 H 
ATOM     27  H3  non d ame     -11.811  16.667  74.474  0.00  0.00     0.036 H 
ATOM     28  H4  non d ame     -13.356  15.881  74.877  0.00  0.00     0.036 H 
ENDBRANCH  21  25
ENDBRANCH  16  19
ENDBRANCH  13  15
BRANCH  13  29
ATOM     29  C8  non d ame      -9.441  14.257  67.136  0.00  0.00    -0.049 C 
ATOM     30  H7  non d ame      -8.922  13.730  67.936  0.00  0.00     0.030 H 
ATOM     31  H8  non d ame      -9.069  13.911  66.171  0.00  0.00     0.030 H 
ATOM     32  H9  non d ame      -9.262  15.327  67.232  0.00  0.00     0.030 H 
ENDBRANCH  13  29
ENDBRANCH  10  13
ENDBRANCH   7   9
BRANCH   7  33
ATOM     33  C11 non d ame      -9.715  10.416  64.146  0.00  0.00    -0.033 C 
ATOM     34  H12 non d ame      -9.983   9.489  63.639  0.00  0.00     0.042 H 
BRANCH  33  35
ATOM     35  C12 non d ame     -10.109  11.597  63.205  0.00  0.00    -0.071 C 
ATOM     36  H13 non d ame     -10.463  11.200  62.254  0.00  0.00     0.028 H 
ATOM     37  H14 non d ame     -10.899  12.185  63.670  0.00  0.00     0.028 H 
ATOM     38  H15 non d ame      -9.239  12.230  63.034  0.00  0.00     0.028 H 
ENDBRANCH  33  35
BRANCH  33  39
ATOM     39  C13 non d ame      -8.175  10.394  64.412  0.00  0.00    -0.071 C 
ATOM     40  H16 non d ame      -7.896   9.436  64.850  0.00  0.00     0.028 H 
ATOM     41  H17 non d ame      -7.641  10.534  63.472  0.00  0.00     0.028 H 
ATOM     42  H18 non d ame      -7.915  11.197  65.101  0.00  0.00     0.028 H 
ENDBRANCH  33  39
ENDBRANCH   7  33
ENDBRANCH   4   7
ENDBRANCH   1   3
BRANCH   1  43
ATOM     43  C15 non d ame      -7.824   7.265  67.252  0.00  0.00     0.240 C 
ATOM     44  O5  non d ame      -6.786   7.081  66.702  0.00  0.00    -0.271 OA
ATOM     45  N6  non d ame      -7.842   7.833  68.630  0.00  0.00    -0.355 N 
ATOM     46  H46 non d ame      -8.718   7.997  69.106  0.00  0.00     0.162 HD
BRANCH  45  47
ATOM     47  C20 non d ame      -6.568   8.156  69.306  0.00  0.00     0.013 C 
ATOM     48  H30 non d ame      -5.754   7.791  68.679  0.00  0.00     0.072 H 
BRANCH  47  49
ATOM     49  C21 non d ame      -6.528   7.471  70.653  0.00  0.00    -0.038 C 
ATOM     50  H31 non d ame      -5.471   7.336  70.885  0.00  0.00     0.036 H 
ATOM     51  H32 non d ame      -7.157   8.074  71.309  0.00  0.00     0.036 H 
BRANCH  49  52
ATOM     52  C22 non d ame      -7.154   6.060  70.627  0.00  0.00     0.018 C 
ATOM     53  H33 non d ame      -7.357   5.846  69.577  0.00  0.00     0.048 H 
ATOM     54  H34 non d ame      -6.471   5.423  71.190  0.00  0.00     0.048 H 
BRANCH  52  55
ATOM     55  C23 non d ame      -8.524   5.970  71.354  0.00  0.00     0.259 C 
ATOM     56  O7  non d ame      -8.954   4.918  71.702  0.00  0.00    -0.265 OA
BRANCH  55  57
ATOM     57  O8  non d ame      -9.269   7.158  71.589  0.00  0.00    -0.317 OA
BRANCH  57  58
ATOM     58  C29 non d ame     -10.613   6.929  72.023  0.00  0.00     0.052 C 
ATOM     59  H47 non d ame     -10.991   6.120  71.398  0.00  0.00     0.082 H 
ATOM     60  H48 non d ame     -10.556   6.801  73.104  0.00  0.00     0.082 H 
BRANCH  58  61
ATOM     61  C35 non d ame     -11.438   8.208  71.723  0.00  0.00    -0.034 A 
ATOM     62  C30 non d ame     -10.878   9.239  70.976  0.00  0.00    -0.075 A 
ATOM     63  C31 non d ame     -11.618  10.389  70.707  0.00  0.00    -0.082 A 
ATOM     64  H49 non d ame      -9.859   9.147  70.602  0.00  0.00     0.084 H 
ATOM     65  C32 non d ame     -12.925  10.506  71.190  0.00  0.00    -0.083 A 
ATOM     66  H50 non d ame     -11.177  11.194  70.120  0.00  0.00     0.083 H 
ATOM     67  C33 non d ame     -13.479   9.476  71.938  0.00  0.00    -0.082 A 
ATOM     68  H51 non d ame     -13.511  11.402  70.984  0.00  0.00     0.083 H 
ATOM     69  C34 non d ame     -12.742   8.324  72.207  0.00  0.00    -0.075 A 
ATOM     70  H52 non d ame     -14.497   9.572  72.315  0.00  0.00     0.083 H 
ATOM     71  H53 non d ame     -13.185   7.519  72.794  0.00  0.00     0.084 H 
ENDBRANCH  58  61
ENDBRANCH  57  58
ENDBRANCH  55  57
ENDBRANCH  52  55
ENDBRANCH  49  52
ENDBRANCH  47  49
BRANCH  47  72
ATOM     72  C24 non d ame      -6.454   9.666  69.499  0.00  0.00    -0.039 C 
ATOM     73  H35 non d ame      -7.472  10.014  69.675  0.00  0.00     0.036 H 
ATOM     74  H36 non d ame      -5.691   9.806  70.264  0.00  0.00     0.036 H 
BRANCH  72  75
ATOM     75  C25 non d ame      -5.930  10.395  68.171  0.00  0.00    -0.001 C 
ATOM     76  C26 non d ame      -4.600  11.299  68.516  0.00  0.00    -0.035 C 
ATOM     77  C27 non d ame      -4.790  12.553  68.041  0.00  0.00     0.085 C 
ATOM     78  H38 non d ame      -4.517  11.445  69.593  0.00  0.00     0.036 H 
ATOM     79  H39 non d ame      -3.744  10.937  67.947  0.00  0.00     0.036 H 
ATOM     80  N5  non d ame      -6.254  12.677  67.694  0.00  0.00    -0.049 N 
ATOM     81  H40 non d ame      -4.565  13.219  68.875  0.00  0.00     0.075 H 
ATOM     82  H41 non d ame      -4.202  12.609  67.125  0.00  0.00     0.075 H 
ATOM     83  C28 non d ame      -6.835  11.171  67.676  0.00  0.00     0.193 C 
ATOM     84  H42 non d ame      -6.687  13.180  68.456  0.00  0.00     0.280 HD
ATOM     85  H43 non d ame      -6.295  13.049  66.756  0.00  0.00     0.280 HD
ATOM     86  H44 non d ame      -7.034  10.666  66.730  0.00  0.00     0.129 H 
ATOM     87  H37 non d ame      -5.859   9.711  67.326  0.00  0.00     0.046 H 
BRANCH  83  88
ATOM     88  O6  non d ame      -8.060  11.108  68.408  0.00  0.00    -0.369 OA
ATOM     89  H45 non d ame      -8.190  10.216  68.737  0.00  0.00     0.212 HD
ENDBRANCH  83  88
ENDBRANCH  72  75
ENDBRANCH  47  72
ENDBRANCH  45  47
ENDBRANCH   1  43
BRANCH   1  90
ATOM     90  C16 non d ame      -8.950   5.709  65.628  0.00  0.00    -0.035 C 
ATOM     91  H21 non d ame      -9.147   6.063  64.616  0.00  0.00     0.037 H 
ATOM     92  H22 non d ame      -7.965   5.322  65.888  0.00  0.00     0.037 H 
BRANCH  90  93
ATOM     93  C17 non d ame      -9.964   4.552  65.896  0.00  0.00    -0.059 C 
ATOM     94  H23 non d ame     -10.823   4.979  66.413  0.00  0.00     0.038 H 
BRANCH  93  95
ATOM     95  C18 non d ame     -10.479   3.901  64.573  0.00  0.00    -0.073 C 
ATOM     96  H24 non d ame     -10.639   2.834  64.732  0.00  0.00     0.028 H 
ATOM     97  H25 non d ame     -11.419   4.369  64.280  0.00  0.00     0.028 H 
ATOM     98  H26 non d ame      -9.740   4.045  63.785  0.00  0.00     0.028 H 
ENDBRANCH  93  95
BRANCH  93  99
ATOM     99  C19 non d ame      -9.355   3.496  66.823  0.00  0.00    -0.073 C 
ATOM    100  H27 non d ame     -10.120   3.131  67.508  0.00  0.00     0.028 H 
ATOM    101  H28 non d ame      -8.974   2.666  66.227  0.00  0.00     0.028 H 
ATOM    102  H29 non d ame      -8.540   3.940  67.392  0.00  0.00     0.028 H 
ENDBRANCH  93  99
ENDBRANCH  90  93
ENDBRANCH   1  90
TORSDOF 26
ENDMDL
MODEL 16
REMARK VINA RESULT:      -6.0      2.813      4.473
REMARK  26 active torsions:
REMARK  status: ('A' for Active; 'I' for Inactive)
REMARK    1  A    between atoms: C2_2  and  C3_3 
REMARK    2  A    between atoms: C4_6  and  C5_7 
REMARK       I    between atoms: C5_7  and  N2_9 
REMARK    3  A    between atoms: N2_9  and  C6_10 
REMARK    4  A    between atoms: C6_10  and  C7_11 
REMARK    5  A    between atoms: C6_10  and  C8_13 
REMARK       I    between atoms: C7_11  and  N3_14 
REMARK    6  A    between atoms: N3_14  and  C9_15 
REMARK    7  A    between atoms: C9_15  and  C10_16 
REMARK    8  A    between atoms: C9_15  and  C11_18 
REMARK       I    between atoms: C10_16  and  N4_21 
REMARK    9  A    between atoms: C11_18  and  C12_19 
REMARK   10  A    between atoms: C11_18  and  C13_20 
REMARK   11  A    between atoms: N4_21  and  C14_22 
REMARK   12  A    between atoms: C14_22  and  C15_23 
REMARK   13  A    between atoms: C14_22  and  C16_25 
REMARK       I    between atoms: C15_23  and  N6_40 
REMARK   14  A    between atoms: C16_25  and  C17_26 
REMARK   15  A    between atoms: C17_26  and  C18_27 
REMARK   16  A    between atoms: C17_26  and  C19_28 
REMARK   17  A    between atoms: C20_29  and  C21_30 
REMARK   18  A    between atoms: C20_29  and  C24_33 
REMARK   19  A    between atoms: C20_29  and  N6_40 
REMARK   20  A    between atoms: C21_30  and  C22_31 
REMARK   21  A    between atoms: C22_31  and  C23_32 
REMARK   22  A    between atoms: C23_32  and  O8_43 
REMARK   23  A    between atoms: C24_33  and  C25_34 
REMARK   24  A    between atoms: C28_38  and  O6_39 
REMARK   25  A    between atoms: C29_42  and  O8_43 
REMARK   26  A    between atoms: C29_42  and  C35_49 
ROOT
ATOM      1  C14 non d ame      -8.407   6.367  65.339  0.00  0.00     0.089 C 
ATOM      2  H20 non d ame      -8.648   6.248  64.283  0.00  0.00     0.087 H 
ENDROOT
BRANCH   1   3
ATOM      3  N4  non d ame      -8.245   7.791  65.593  0.00  0.00    -0.346 N 
ATOM      4  C10 non d ame      -8.376   8.786  64.467  0.00  0.00     0.241 C 
ATOM      5  O4  non d ame      -8.609   8.416  63.364  0.00  0.00    -0.271 OA
ATOM      6  H19 non d ame      -8.044   8.085  66.539  0.00  0.00     0.163 HD
BRANCH   4   7
ATOM      7  C9  non d ame      -8.211  10.256  64.749  0.00  0.00     0.092 C 
ATOM      8  H11 non d ame      -7.805  10.747  63.865  0.00  0.00     0.088 H 
BRANCH   7   9
ATOM      9  N3  non d ame      -9.523  10.854  65.012  0.00  0.00    -0.346 N 
ATOM     10  C7  non d ame     -10.226  11.542  63.958  0.00  0.00     0.240 C 
ATOM     11  O3  non d ame      -9.749  11.626  62.892  0.00  0.00    -0.271 OA
ATOM     12  H10 non d ame      -9.946  10.791  65.927  0.00  0.00     0.163 HD
BRANCH  10  13
ATOM     13  C6  non d ame     -11.621  12.179  64.245  0.00  0.00     0.086 C 
ATOM     14  H6  non d ame     -12.006  11.925  65.232  0.00  0.00     0.086 H 
BRANCH  13  15
ATOM     15  N2  non d ame     -11.494  13.627  64.208  0.00  0.00    -0.343 N 
ATOM     16  C5  non d ame     -11.001  14.337  65.391  0.00  0.00     0.273 C 
ATOM     17  O2  non d ame     -10.712  13.735  66.366  0.00  0.00    -0.266 OA
ATOM     18  H5  non d ame     -11.745  14.134  63.372  0.00  0.00     0.163 HD
BRANCH  16  19
ATOM     19  C4  non d ame     -10.860  15.867  65.366  0.00  0.00     0.154 A 
ATOM     20  C1  non d ame     -10.302  16.700  66.387  0.00  0.00    -0.017 A 
ATOM     21  C2  non d ame     -10.405  18.015  65.881  0.00  0.00     0.077 A 
ATOM     22  H1  non d ame      -9.885  16.398  67.349  0.00  0.00     0.091 H 
ATOM     23  O1  non d ame     -10.958  17.935  64.706  0.00  0.00    -0.218 OA
ATOM     24  N1  non d ame     -11.233  16.692  64.384  0.00  0.00    -0.123 NA
BRANCH  21  25
ATOM     25  C3  non d ame      -9.952  19.289  66.581  0.00  0.00    -0.029 C 
ATOM     26  H2  non d ame     -10.002  19.149  67.662  0.00  0.00     0.036 H 
ATOM     27  H3  non d ame      -8.926  19.516  66.292  0.00  0.00     0.036 H 
ATOM     28  H4  non d ame     -10.602  20.115  66.291  0.00  0.00     0.036 H 
ENDBRANCH  21  25
ENDBRANCH  16  19
ENDBRANCH  13  15
BRANCH  13  29
ATOM     29  C8  non d ame     -12.610  11.722  63.203  0.00  0.00    -0.049 C 
ATOM     30  H7  non d ame     -13.620  11.976  63.524  0.00  0.00     0.030 H 
ATOM     31  H8  non d ame     -12.395  12.218  62.255  0.00  0.00     0.030 H 
ATOM     32  H9  non d ame     -12.531  10.644  63.075  0.00  0.00     0.030 H 
ENDBRANCH  13  29
ENDBRANCH  10  13
ENDBRANCH   7   9
BRANCH   7  33
ATOM     33  C11 non d ame      -7.298  10.446  65.996  0.00  0.00    -0.033 C 
ATOM     34  H12 non d ame      -7.351   9.530  66.584  0.00  0.00     0.042 H 
BRANCH  33  35
ATOM     35  C12 non d ame      -5.807  10.653  65.583  0.00  0.00    -0.071 C 
ATOM     36  H13 non d ame      -5.449   9.766  65.060  0.00  0.00     0.028 H 
ATOM     37  H14 non d ame      -5.729  11.518  64.925  0.00  0.00     0.028 H 
ATOM     38  H15 non d ame      -5.204  10.819  66.474  0.00  0.00     0.028 H 
ENDBRANCH  33  35
BRANCH  33  39
ATOM     39  C13 non d ame      -7.807  11.624  66.887  0.00  0.00    -0.071 C 
ATOM     40  H16 non d ame      -8.387  12.316  66.278  0.00  0.00     0.028 H 
ATOM     41  H17 non d ame      -8.435  11.229  67.687  0.00  0.00     0.028 H 
ATOM     42  H18 non d ame      -6.954  12.146  67.319  0.00  0.00     0.028 H 
ENDBRANCH  33  39
ENDBRANCH   7  33
ENDBRANCH   4   7
ENDBRANCH   1   3
BRANCH   1  43
ATOM     43  C15 non d ame      -9.532   5.824  66.265  0.00  0.00     0.240 C 
ATOM     44  O5  non d ame     -10.341   5.067  65.831  0.00  0.00    -0.271 OA
ATOM     45  N6  non d ame      -9.598   6.238  67.695  0.00  0.00    -0.355 N 
ATOM     46  H46 non d ame      -8.915   6.877  68.076  0.00  0.00     0.162 HD
BRANCH  45  47
ATOM     47  C20 non d ame     -10.674   5.712  68.562  0.00  0.00     0.013 C 
ATOM     48  H30 non d ame     -11.440   5.277  67.920  0.00  0.00     0.072 H 
BRANCH  47  49
ATOM     49  C21 non d ame     -11.262   6.844  69.373  0.00  0.00    -0.038 C 
ATOM     50  H31 non d ame     -10.489   7.611  69.413  0.00  0.00     0.036 H 
ATOM     51  H32 non d ame     -12.227   7.064  68.914  0.00  0.00     0.036 H 
BRANCH  49  52
ATOM     52  C22 non d ame     -11.557   6.444  70.835  0.00  0.00     0.018 C 
ATOM     53  H33 non d ame     -12.595   6.726  71.015  0.00  0.00     0.048 H 
ATOM     54  H34 non d ame     -11.253   5.401  70.923  0.00  0.00     0.048 H 
BRANCH  52  55
ATOM     55  C23 non d ame     -10.714   7.227  71.880  0.00  0.00     0.259 C 
ATOM     56  O7  non d ame     -11.227   7.673  72.855  0.00  0.00    -0.265 OA
BRANCH  55  57
ATOM     57  O8  non d ame      -9.324   7.418  71.652  0.00  0.00    -0.317 OA
BRANCH  57  58
ATOM     58  C29 non d ame      -8.958   8.775  71.383  0.00  0.00     0.052 C 
ATOM     59  H47 non d ame      -9.801   9.208  70.846  0.00  0.00     0.082 H 
ATOM     60  H48 non d ame      -8.650   9.193  72.341  0.00  0.00     0.082 H 
BRANCH  58  61
ATOM     61  C35 non d ame      -7.728   8.760  70.436  0.00  0.00    -0.034 A 
ATOM     62  C30 non d ame      -6.917   9.884  70.331  0.00  0.00    -0.075 A 
ATOM     63  C31 non d ame      -5.812   9.872  69.480  0.00  0.00    -0.082 A 
ATOM     64  H49 non d ame      -7.145  10.775  70.915  0.00  0.00     0.084 H 
ATOM     65  C32 non d ame      -5.522   8.728  68.731  0.00  0.00    -0.083 A 
ATOM     66  H50 non d ame      -5.177  10.754  69.402  0.00  0.00     0.083 H 
ATOM     67  C33 non d ame      -6.337   7.609  68.836  0.00  0.00    -0.082 A 
ATOM     68  H51 non d ame      -4.661   8.710  68.063  0.00  0.00     0.083 H 
ATOM     69  C34 non d ame      -7.441   7.618  69.687  0.00  0.00    -0.075 A 
ATOM     70  H52 non d ame      -6.110   6.720  68.248  0.00  0.00     0.083 H 
ATOM     71  H53 non d ame      -8.076   6.734  69.765  0.00  0.00     0.084 H 
ENDBRANCH  58  61
ENDBRANCH  57  58
ENDBRANCH  55  57
ENDBRANCH  52  55
ENDBRANCH  49  52
ENDBRANCH  47  49
BRANCH  47  72
ATOM     72  C24 non d ame     -10.106   4.652  69.503  0.00  0.00    -0.039 C 
ATOM     73  H35 non d ame      -9.967   5.156  70.459  0.00  0.00     0.036 H 
ATOM     74  H36 non d ame     -10.785   3.803  69.429  0.00  0.00     0.036 H 
BRANCH  72  75
ATOM     75  C25 non d ame      -8.663   4.145  69.023  0.00  0.00    -0.001 C 
ATOM     76  C26 non d ame      -8.800   2.685  68.281  0.00  0.00    -0.035 C 
ATOM     77  C27 non d ame      -7.914   1.826  68.839  0.00  0.00     0.085 C 
ATOM     78  H38 non d ame      -9.767   2.238  68.511  0.00  0.00     0.036 H 
ATOM     79  H39 non d ame      -8.466   2.758  67.245  0.00  0.00     0.036 H 
ATOM     80  N5  non d ame      -7.415   2.471  70.110  0.00  0.00    -0.049 N 
ATOM     81  H40 non d ame      -8.491   0.937  69.095  0.00  0.00     0.075 H 
ATOM     82  H41 non d ame      -7.090   1.756  68.130  0.00  0.00     0.075 H 
ATOM     83  C28 non d ame      -7.855   4.022  70.023  0.00  0.00     0.193 C 
ATOM     84  H42 non d ame      -7.920   2.036  70.869  0.00  0.00     0.280 HD
ATOM     85  H43 non d ame      -6.407   2.421  70.080  0.00  0.00     0.280 HD
ATOM     86  H44 non d ame      -7.122   4.793  69.782  0.00  0.00     0.129 H 
ATOM     87  H37 non d ame      -8.109   4.920  68.494  0.00  0.00     0.046 H 
BRANCH  83  88
ATOM     88  O6  non d ame      -8.452   4.434  71.253  0.00  0.00    -0.369 OA
ATOM     89  H45 non d ame      -9.307   4.832  71.077  0.00  0.00     0.212 HD
ENDBRANCH  83  88
ENDBRANCH  72  75
ENDBRANCH  47  72
ENDBRANCH  45  47
ENDBRANCH   1  43
BRANCH   1  90
ATOM     90  C16 non d ame      -7.099   5.655  65.651  0.00  0.00    -0.035 C 
ATOM     91  H21 non d ame      -7.001   5.697  66.736  0.00  0.00     0.037 H 
ATOM     92  H22 non d ame      -7.168   4.692  65.148  0.00  0.00     0.037 H 
BRANCH  90  93
ATOM     93  C17 non d ame      -5.841   6.371  65.067  0.00  0.00    -0.059 C 
ATOM     94  H23 non d ame      -6.015   7.445  65.125  0.00  0.00     0.038 H 
BRANCH  93  95
ATOM     95  C18 non d ame      -4.548   6.053  65.883  0.00  0.00    -0.073 C 
ATOM     96  H24 non d ame      -4.823   5.620  66.845  0.00  0.00     0.028 H 
ATOM     97  H25 non d ame      -3.934   5.343  65.329  0.00  0.00     0.028 H 
ATOM     98  H26 non d ame      -3.984   6.971  66.045  0.00  0.00     0.028 H 
ENDBRANCH  93  95
BRANCH  93  99
ATOM     99  C19 non d ame      -5.652   6.022  63.588  0.00  0.00    -0.073 C 
ATOM    100  H27 non d ame      -4.622   6.228  63.295  0.00  0.00     0.028 H 
ATOM    101  H28 non d ame      -5.870   4.965  63.433  0.00  0.00     0.028 H 
ATOM    102  H29 non d ame      -6.328   6.625  62.983  0.00  0.00     0.028 H 
ENDBRANCH  93  99
ENDBRANCH  90  93
ENDBRANCH   1  90
TORSDOF 26
ENDMDL
MODEL 17
REMARK VINA RESULT:      -5.9      2.457      6.694
REMARK  26 active torsions:
REMARK  status: ('A' for Active; 'I' for Inactive)
REMARK    1  A    between atoms: C2_2  and  C3_3 
REMARK    2  A    between atoms: C4_6  and  C5_7 
REMARK       I    between atoms: C5_7  and  N2_9 
REMARK    3  A    between atoms: N2_9  and  C6_10 
REMARK    4  A    between atoms: C6_10  and  C7_11 
REMARK    5  A    between atoms: C6_10  and  C8_13 
REMARK       I    between atoms: C7_11  and  N3_14 
REMARK    6  A    between atoms: N3_14  and  C9_15 
REMARK    7  A    between atoms: C9_15  and  C10_16 
REMARK    8  A    between atoms: C9_15  and  C11_18 
REMARK       I    between atoms: C10_16  and  N4_21 
REMARK    9  A    between atoms: C11_18  and  C12_19 
REMARK   10  A    between atoms: C11_18  and  C13_20 
REMARK   11  A    between atoms: N4_21  and  C14_22 
REMARK   12  A    between atoms: C14_22  and  C15_23 
REMARK   13  A    between atoms: C14_22  and  C16_25 
REMARK       I    between atoms: C15_23  and  N6_40 
REMARK   14  A    between atoms: C16_25  and  C17_26 
REMARK   15  A    between atoms: C17_26  and  C18_27 
REMARK   16  A    between atoms: C17_26  and  C19_28 
REMARK   17  A    between atoms: C20_29  and  C21_30 
REMARK   18  A    between atoms: C20_29  and  C24_33 
REMARK   19  A    between atoms: C20_29  and  N6_40 
REMARK   20  A    between atoms: C21_30  and  C22_31 
REMARK   21  A    between atoms: C22_31  and  C23_32 
REMARK   22  A    between atoms: C23_32  and  O8_43 
REMARK   23  A    between atoms: C24_33  and  C25_34 
REMARK   24  A    between atoms: C28_38  and  O6_39 
REMARK   25  A    between atoms: C29_42  and  O8_43 
REMARK   26  A    between atoms: C29_42  and  C35_49 
ROOT
ATOM      1  C14 non d ame      -8.742   6.860  68.062  0.00  0.00     0.089 C 
ATOM      2  H20 non d ame      -7.727   7.000  68.433  0.00  0.00     0.087 H 
ENDROOT
BRANCH   1   3
ATOM      3  N4  non d ame      -9.536   6.314  69.152  0.00  0.00    -0.346 N 
ATOM      4  C10 non d ame      -9.291   6.761  70.572  0.00  0.00     0.241 C 
ATOM      5  O4  non d ame      -8.446   7.560  70.812  0.00  0.00    -0.271 OA
ATOM      6  H19 non d ame     -10.249   5.633  68.927  0.00  0.00     0.163 HD
BRANCH   4   7
ATOM      7  C9  non d ame     -10.126   6.190  71.687  0.00  0.00     0.092 C 
ATOM      8  H11 non d ame      -9.746   6.553  72.642  0.00  0.00     0.088 H 
BRANCH   7   9
ATOM      9  N3  non d ame     -11.505   6.669  71.560  0.00  0.00    -0.346 N 
ATOM     10  C7  non d ame     -12.015   7.653  72.482  0.00  0.00     0.240 C 
ATOM     11  O3  non d ame     -11.329   8.069  73.335  0.00  0.00    -0.271 OA
ATOM     12  H10 non d ame     -12.110   6.317  70.831  0.00  0.00     0.163 HD
BRANCH  10  13
ATOM     13  C6  non d ame     -13.485   8.156  72.344  0.00  0.00     0.086 C 
ATOM     14  H6  non d ame     -14.112   7.865  73.187  0.00  0.00     0.086 H 
BRANCH  13  15
ATOM     15  N2  non d ame     -13.484   9.609  72.309  0.00  0.00    -0.343 N 
ATOM     16  C5  non d ame     -12.740  10.304  71.256  0.00  0.00     0.273 C 
ATOM     17  O2  non d ame     -12.145   9.686  70.444  0.00  0.00    -0.266 OA
ATOM     18  H5  non d ame     -13.994  10.130  73.008  0.00  0.00     0.163 HD
BRANCH  16  19
ATOM     19  C4  non d ame     -12.732  11.840  71.205  0.00  0.00     0.154 A 
ATOM     20  C1  non d ame     -13.413  12.738  72.088  0.00  0.00    -0.017 A 
ATOM     21  C2  non d ame     -13.085  14.029  71.617  0.00  0.00     0.077 A 
ATOM     22  H1  non d ame     -14.048  12.491  72.939  0.00  0.00     0.091 H 
ATOM     23  O1  non d ame     -12.305  13.880  70.586  0.00  0.00    -0.218 OA
ATOM     24  N1  non d ame     -12.086  12.611  70.326  0.00  0.00    -0.123 NA
BRANCH  21  25
ATOM     25  C3  non d ame     -13.555  15.351  72.210  0.00  0.00    -0.029 C 
ATOM     26  H2  non d ame     -14.517  15.624  71.774  0.00  0.00     0.036 H 
ATOM     27  H3  non d ame     -13.662  15.247  73.289  0.00  0.00     0.036 H 
ATOM     28  H4  non d ame     -12.823  16.129  71.991  0.00  0.00     0.036 H 
ENDBRANCH  21  25
ENDBRANCH  16  19
ENDBRANCH  13  15
BRANCH  13  29
ATOM     29  C8  non d ame     -14.089   7.610  71.075  0.00  0.00    -0.049 C 
ATOM     30  H7  non d ame     -13.944   8.326  70.266  0.00  0.00     0.030 H 
ATOM     31  H8  non d ame     -13.604   6.667  70.818  0.00  0.00     0.030 H 
ATOM     32  H9  non d ame     -15.155   7.442  71.223  0.00  0.00     0.030 H 
ENDBRANCH  13  29
ENDBRANCH  10  13
ENDBRANCH   7   9
BRANCH   7  33
ATOM     33  C11 non d ame     -10.109   4.635  71.604  0.00  0.00    -0.033 C 
ATOM     34  H12 non d ame     -10.654   4.348  70.705  0.00  0.00     0.042 H 
BRANCH  33  35
ATOM     35  C12 non d ame      -8.654   4.089  71.465  0.00  0.00    -0.071 C 
ATOM     36  H13 non d ame      -8.444   3.404  72.287  0.00  0.00     0.028 H 
ATOM     37  H14 non d ame      -8.553   3.561  70.517  0.00  0.00     0.028 H 
ATOM     38  H15 non d ame      -7.950   4.920  71.494  0.00  0.00     0.028 H 
ENDBRANCH  33  35
BRANCH  33  39
ATOM     39  C13 non d ame     -10.837   4.002  72.833  0.00  0.00    -0.071 C 
ATOM     40  H16 non d ame     -10.120   3.439  73.430  0.00  0.00     0.028 H 
ATOM     41  H17 non d ame     -11.277   4.792  73.442  0.00  0.00     0.028 H 
ATOM     42  H18 non d ame     -11.623   3.333  72.483  0.00  0.00     0.028 H 
ENDBRANCH  33  39
ENDBRANCH   7  33
ENDBRANCH   4   7
ENDBRANCH   1   3
BRANCH   1  43
ATOM     43  C15 non d ame      -9.389   8.198  67.600  0.00  0.00     0.240 C 
ATOM     44  O5  non d ame     -10.533   8.221  67.277  0.00  0.00    -0.271 OA
ATOM     45  N6  non d ame      -8.584   9.452  67.568  0.00  0.00    -0.355 N 
ATOM     46  H46 non d ame      -7.613   9.446  67.844  0.00  0.00     0.162 HD
BRANCH  45  47
ATOM     47  C20 non d ame      -9.214  10.716  67.128  0.00  0.00     0.013 C 
ATOM     48  H30 non d ame     -10.244  10.497  66.847  0.00  0.00     0.072 H 
BRANCH  47  49
ATOM     49  C21 non d ame      -8.460  11.262  65.937  0.00  0.00    -0.038 C 
ATOM     50  H31 non d ame      -9.106  12.026  65.503  0.00  0.00     0.036 H 
ATOM     51  H32 non d ame      -7.472  11.532  66.313  0.00  0.00     0.036 H 
BRANCH  49  52
ATOM     52  C22 non d ame      -8.232  10.205  64.835  0.00  0.00     0.018 C 
ATOM     53  H33 non d ame      -7.278  10.461  64.372  0.00  0.00     0.048 H 
ATOM     54  H34 non d ame      -8.358   9.238  65.323  0.00  0.00     0.048 H 
BRANCH  52  55
ATOM     55  C23 non d ame      -9.287  10.252  63.695  0.00  0.00     0.259 C 
ATOM     56  O7  non d ame      -8.995   9.925  62.591  0.00  0.00    -0.265 OA
BRANCH  55  57
ATOM     57  O8  non d ame     -10.604  10.705  63.982  0.00  0.00    -0.317 OA
BRANCH  57  58
ATOM     58  C29 non d ame     -10.911  11.991  63.437  0.00  0.00     0.052 C 
ATOM     59  H47 non d ame     -10.008  12.316  62.920  0.00  0.00     0.082 H 
ATOM     60  H48 non d ame     -11.840  11.862  62.881  0.00  0.00     0.082 H 
BRANCH  58  61
ATOM     61  C35 non d ame     -11.176  12.961  64.618  0.00  0.00    -0.034 A 
ATOM     62  C30 non d ame     -12.106  12.628  65.597  0.00  0.00    -0.075 A 
ATOM     63  C31 non d ame     -12.345  13.499  66.659  0.00  0.00    -0.082 A 
ATOM     64  H49 non d ame     -12.648  11.685  65.533  0.00  0.00     0.084 H 
ATOM     65  C32 non d ame     -11.651  14.709  66.738  0.00  0.00    -0.083 A 
ATOM     66  H50 non d ame     -13.074  13.234  67.425  0.00  0.00     0.083 H 
ATOM     67  C33 non d ame     -10.726  15.040  65.757  0.00  0.00    -0.082 A 
ATOM     68  H51 non d ame     -11.832  15.397  67.565  0.00  0.00     0.083 H 
ATOM     69  C34 non d ame     -10.483  14.170  64.696  0.00  0.00    -0.075 A 
ATOM     70  H52 non d ame     -10.188  15.986  65.820  0.00  0.00     0.083 H 
ATOM     71  H53 non d ame      -9.753  14.436  63.929  0.00  0.00     0.084 H 
ENDBRANCH  58  61
ENDBRANCH  57  58
ENDBRANCH  55  57
ENDBRANCH  52  55
ENDBRANCH  49  52
ENDBRANCH  47  49
BRANCH  47  72
ATOM     72  C24 non d ame      -9.178  11.734  68.265  0.00  0.00    -0.039 C 
ATOM     73  H35 non d ame     -10.171  12.183  68.284  0.00  0.00     0.036 H 
ATOM     74  H36 non d ame      -8.812  11.186  69.134  0.00  0.00     0.036 H 
BRANCH  72  75
ATOM     75  C25 non d ame      -8.132  12.911  67.973  0.00  0.00    -0.001 C 
ATOM     76  C26 non d ame      -6.647  12.497  68.547  0.00  0.00    -0.035 C 
ATOM     77  C27 non d ame      -6.183  13.504  69.325  0.00  0.00     0.085 C 
ATOM     78  H38 non d ame      -6.735  11.660  69.239  0.00  0.00     0.036 H 
ATOM     79  H39 non d ame      -5.928  12.455  67.728  0.00  0.00     0.036 H 
ATOM     80  N5  non d ame      -7.348  14.423  69.599  0.00  0.00    -0.049 N 
ATOM     81  H40 non d ame      -5.874  13.033  70.258  0.00  0.00     0.075 H 
ATOM     82  H41 non d ame      -5.452  14.031  68.712  0.00  0.00     0.075 H 
ATOM     83  C28 non d ame      -8.497  14.012  68.541  0.00  0.00     0.193 C 
ATOM     84  H42 non d ame      -7.674  14.203  70.529  0.00  0.00     0.280 HD
ATOM     85  H43 non d ame      -7.033  15.358  69.384  0.00  0.00     0.280 HD
ATOM     86  H44 non d ame      -8.691  14.633  67.666  0.00  0.00     0.129 H 
ATOM     87  H37 non d ame      -8.185  13.265  66.944  0.00  0.00     0.046 H 
BRANCH  83  88
ATOM     88  O6  non d ame      -9.755  13.885  69.206  0.00  0.00    -0.369 OA
ATOM     89  H45 non d ame     -10.422  14.379  68.725  0.00  0.00     0.212 HD
ENDBRANCH  83  88
ENDBRANCH  72  75
ENDBRANCH  47  72
ENDBRANCH  45  47
ENDBRANCH   1  43
BRANCH   1  90
ATOM     90  C16 non d ame      -8.736   5.870  66.907  0.00  0.00    -0.035 C 
ATOM     91  H21 non d ame      -8.998   6.454  66.025  0.00  0.00     0.037 H 
ATOM     92  H22 non d ame      -7.770   5.370  66.961  0.00  0.00     0.037 H 
BRANCH  90  93
ATOM     93  C17 non d ame      -9.820   4.753  67.034  0.00  0.00    -0.059 C 
ATOM     94  H23 non d ame     -10.464   5.012  67.875  0.00  0.00     0.038 H 
BRANCH  93  95
ATOM     95  C18 non d ame     -10.717   4.653  65.760  0.00  0.00    -0.073 C 
ATOM     96  H24 non d ame     -10.145   4.203  64.948  0.00  0.00     0.028 H 
ATOM     97  H25 non d ame     -11.588   4.035  65.976  0.00  0.00     0.028 H 
ATOM     98  H26 non d ame     -11.043   5.650  65.465  0.00  0.00     0.028 H 
ENDBRANCH  93  95
BRANCH  93  99
ATOM     99  C19 non d ame      -9.176   3.401  67.355  0.00  0.00    -0.073 C 
ATOM    100  H27 non d ame      -8.846   3.395  68.394  0.00  0.00     0.028 H 
ATOM    101  H28 non d ame      -9.905   2.606  67.200  0.00  0.00     0.028 H 
ATOM    102  H29 non d ame      -8.319   3.243  66.701  0.00  0.00     0.028 H 
ENDBRANCH  93  99
ENDBRANCH  90  93
ENDBRANCH   1  90
TORSDOF 26
ENDMDL
MODEL 18
REMARK VINA RESULT:      -5.9      2.451      6.459
REMARK  26 active torsions:
REMARK  status: ('A' for Active; 'I' for Inactive)
REMARK    1  A    between atoms: C2_2  and  C3_3 
REMARK    2  A    between atoms: C4_6  and  C5_7 
REMARK       I    between atoms: C5_7  and  N2_9 
REMARK    3  A    between atoms: N2_9  and  C6_10 
REMARK    4  A    between atoms: C6_10  and  C7_11 
REMARK    5  A    between atoms: C6_10  and  C8_13 
REMARK       I    between atoms: C7_11  and  N3_14 
REMARK    6  A    between atoms: N3_14  and  C9_15 
REMARK    7  A    between atoms: C9_15  and  C10_16 
REMARK    8  A    between atoms: C9_15  and  C11_18 
REMARK       I    between atoms: C10_16  and  N4_21 
REMARK    9  A    between atoms: C11_18  and  C12_19 
REMARK   10  A    between atoms: C11_18  and  C13_20 
REMARK   11  A    between atoms: N4_21  and  C14_22 
REMARK   12  A    between atoms: C14_22  and  C15_23 
REMARK   13  A    between atoms: C14_22  and  C16_25 
REMARK       I    between atoms: C15_23  and  N6_40 
REMARK   14  A    between atoms: C16_25  and  C17_26 
REMARK   15  A    between atoms: C17_26  and  C18_27 
REMARK   16  A    between atoms: C17_26  and  C19_28 
REMARK   17  A    between atoms: C20_29  and  C21_30 
REMARK   18  A    between atoms: C20_29  and  C24_33 
REMARK   19  A    between atoms: C20_29  and  N6_40 
REMARK   20  A    between atoms: C21_30  and  C22_31 
REMARK   21  A    between atoms: C22_31  and  C23_32 
REMARK   22  A    between atoms: C23_32  and  O8_43 
REMARK   23  A    between atoms: C24_33  and  C25_34 
REMARK   24  A    between atoms: C28_38  and  O6_39 
REMARK   25  A    between atoms: C29_42  and  O8_43 
REMARK   26  A    between atoms: C29_42  and  C35_49 
ROOT
ATOM      1  C14 non d ame      -5.845  11.790  67.698  0.00  0.00     0.089 C 
ATOM      2  H20 non d ame      -4.813  11.442  67.697  0.00  0.00     0.087 H 
ENDROOT
BRANCH   1   3
ATOM      3  N4  non d ame      -6.436  11.413  66.422  0.00  0.00    -0.346 N 
ATOM      4  C10 non d ame      -5.982  10.162  65.713  0.00  0.00     0.241 C 
ATOM      5  O4  non d ame      -5.137   9.476  66.188  0.00  0.00    -0.271 OA
ATOM      6  H19 non d ame      -7.152  12.012  66.034  0.00  0.00     0.163 HD
BRANCH   4   7
ATOM      7  C9  non d ame      -6.608   9.783  64.397  0.00  0.00     0.092 C 
ATOM      8  H11 non d ame      -6.962   8.754  64.451  0.00  0.00     0.088 H 
BRANCH   7   9
ATOM      9  N3  non d ame      -7.779  10.630  64.150  0.00  0.00    -0.346 N 
ATOM     10  C7  non d ame      -8.995  10.416  64.895  0.00  0.00     0.240 C 
ATOM     11  O3  non d ame      -9.049   9.563  65.696  0.00  0.00    -0.271 OA
ATOM     12  H10 non d ame      -7.747  11.368  63.461  0.00  0.00     0.163 HD
BRANCH  10  13
ATOM     13  C6  non d ame     -10.238  11.318  64.625  0.00  0.00     0.086 C 
ATOM     14  H6  non d ame     -11.181  10.809  64.826  0.00  0.00     0.086 H 
BRANCH  13  15
ATOM     15  N2  non d ame     -10.188  12.467  65.515  0.00  0.00    -0.343 N 
ATOM     16  C5  non d ame     -11.371  12.819  66.304  0.00  0.00     0.273 C 
ATOM     17  O2  non d ame     -12.357  12.175  66.214  0.00  0.00    -0.266 OA
ATOM     18  H5  non d ame      -9.342  13.013  65.585  0.00  0.00     0.163 HD
BRANCH  16  19
ATOM     19  C4  non d ame     -11.332  14.030  67.251  0.00  0.00     0.154 A 
ATOM     20  C1  non d ame     -11.388  14.011  68.680  0.00  0.00    -0.017 A 
ATOM     21  C2  non d ame     -11.318  15.368  69.065  0.00  0.00     0.077 A 
ATOM     22  H1  non d ame     -11.467  13.145  69.339  0.00  0.00     0.091 H 
ATOM     23  O1  non d ame     -11.230  16.076  67.976  0.00  0.00    -0.218 OA
ATOM     24  N1  non d ame     -11.237  15.316  66.904  0.00  0.00    -0.123 NA
BRANCH  21  25
ATOM     25  C3  non d ame     -11.339  15.903  70.490  0.00  0.00    -0.029 C 
ATOM     26  H2  non d ame     -10.329  16.195  70.785  0.00  0.00     0.036 H 
ATOM     27  H3  non d ame     -11.997  16.771  70.543  0.00  0.00     0.036 H 
ATOM     28  H4  non d ame     -11.704  15.129  71.165  0.00  0.00     0.036 H 
ENDBRANCH  21  25
ENDBRANCH  16  19
ENDBRANCH  13  15
BRANCH  13  29
ATOM     29  C8  non d ame     -10.228  11.778  63.190  0.00  0.00    -0.049 C 
ATOM     30  H7  non d ame     -11.222  11.653  62.761  0.00  0.00     0.030 H 
ATOM     31  H8  non d ame      -9.943  12.830  63.147  0.00  0.00     0.030 H 
ATOM     32  H9  non d ame      -9.512  11.184  62.623  0.00  0.00     0.030 H 
ENDBRANCH  13  29
ENDBRANCH  10  13
ENDBRANCH   7   9
BRANCH   7  33
ATOM     33  C11 non d ame      -5.573   9.987  63.252  0.00  0.00    -0.033 C 
ATOM     34  H12 non d ame      -6.109  10.389  62.392  0.00  0.00     0.042 H 
BRANCH  33  35
ATOM     35  C12 non d ame      -4.481  11.028  63.652  0.00  0.00    -0.071 C 
ATOM     36  H13 non d ame      -4.961  11.932  64.028  0.00  0.00     0.028 H 
ATOM     37  H14 non d ame      -3.843  10.606  64.428  0.00  0.00     0.028 H 
ATOM     38  H15 non d ame      -3.876  11.273  62.779  0.00  0.00     0.028 H 
ENDBRANCH  33  35
BRANCH  33  39
ATOM     39  C13 non d ame      -4.931   8.627  62.830  0.00  0.00    -0.071 C 
ATOM     40  H16 non d ame      -5.626   8.079  62.194  0.00  0.00     0.028 H 
ATOM     41  H17 non d ame      -4.007   8.814  62.282  0.00  0.00     0.028 H 
ATOM     42  H18 non d ame      -4.712   8.038  63.720  0.00  0.00     0.028 H 
ENDBRANCH  33  39
ENDBRANCH   7  33
ENDBRANCH   4   7
ENDBRANCH   1   3
BRANCH   1  43
ATOM     43  C15 non d ame      -6.682  11.147  68.841  0.00  0.00     0.240 C 
ATOM     44  O5  non d ame      -6.329  11.264  69.970  0.00  0.00    -0.271 OA
ATOM     45  N6  non d ame      -7.929  10.392  68.529  0.00  0.00    -0.355 N 
ATOM     46  H46 non d ame      -8.242  10.290  67.574  0.00  0.00     0.162 HD
BRANCH  45  47
ATOM     47  C20 non d ame      -8.714   9.788  69.627  0.00  0.00     0.013 C 
ATOM     48  H30 non d ame      -8.553  10.387  70.523  0.00  0.00     0.072 H 
BRANCH  47  49
ATOM     49  C21 non d ame      -8.239   8.372  69.861  0.00  0.00    -0.038 C 
ATOM     50  H31 non d ame      -7.167   8.384  69.662  0.00  0.00     0.036 H 
ATOM     51  H32 non d ame      -8.608   8.098  70.850  0.00  0.00     0.036 H 
BRANCH  49  52
ATOM     52  C22 non d ame      -8.856   7.361  68.871  0.00  0.00     0.018 C 
ATOM     53  H33 non d ame      -9.934   7.417  69.024  0.00  0.00     0.048 H 
ATOM     54  H34 non d ame      -8.430   7.604  67.897  0.00  0.00     0.048 H 
BRANCH  52  55
ATOM     55  C23 non d ame      -8.460   5.885  69.155  0.00  0.00     0.259 C 
ATOM     56  O7  non d ame      -9.169   5.186  69.803  0.00  0.00    -0.265 OA
BRANCH  55  57
ATOM     57  O8  non d ame      -7.232   5.381  68.644  0.00  0.00    -0.317 OA
BRANCH  57  58
ATOM     58  C29 non d ame      -7.379   4.242  67.791  0.00  0.00     0.052 C 
ATOM     59  H47 non d ame      -6.429   3.711  67.842  0.00  0.00     0.082 H 
ATOM     60  H48 non d ame      -8.296   3.749  68.114  0.00  0.00     0.082 H 
BRANCH  58  61
ATOM     61  C35 non d ame      -7.580   4.752  66.340  0.00  0.00    -0.034 A 
ATOM     62  C30 non d ame      -8.801   4.570  65.700  0.00  0.00    -0.075 A 
ATOM     63  C31 non d ame      -8.982   5.028  64.396  0.00  0.00    -0.082 A 
ATOM     64  H49 non d ame      -9.616   4.068  66.220  0.00  0.00     0.084 H 
ATOM     65  C32 non d ame      -7.934   5.670  63.731  0.00  0.00    -0.083 A 
ATOM     66  H50 non d ame      -9.941   4.885  63.899  0.00  0.00     0.083 H 
ATOM     67  C33 non d ame      -6.715   5.847  64.372  0.00  0.00    -0.082 A 
ATOM     68  H51 non d ame      -8.066   6.031  62.711  0.00  0.00     0.083 H 
ATOM     69  C34 non d ame      -6.531   5.392  65.676  0.00  0.00    -0.075 A 
ATOM     70  H52 non d ame      -5.898   6.346  63.849  0.00  0.00     0.083 H 
ATOM     71  H53 non d ame      -5.571   5.536  66.173  0.00  0.00     0.084 H 
ENDBRANCH  58  61
ENDBRANCH  57  58
ENDBRANCH  55  57
ENDBRANCH  52  55
ENDBRANCH  49  52
ENDBRANCH  47  49
BRANCH  47  72
ATOM     72  C24 non d ame     -10.195   9.774  69.256  0.00  0.00    -0.039 C 
ATOM     73  H35 non d ame     -10.301  10.505  68.454  0.00  0.00     0.036 H 
ATOM     74  H36 non d ame     -10.439   8.727  69.074  0.00  0.00     0.036 H 
BRANCH  72  75
ATOM     75  C25 non d ame     -11.115  10.269  70.471  0.00  0.00    -0.001 C 
ATOM     76  C26 non d ame     -11.367   9.032  71.524  0.00  0.00    -0.035 C 
ATOM     77  C27 non d ame     -12.697   8.917  71.752  0.00  0.00     0.085 C 
ATOM     78  H38 non d ame     -11.107   8.083  71.054  0.00  0.00     0.036 H 
ATOM     79  H39 non d ame     -10.960   9.285  72.503  0.00  0.00     0.036 H 
ATOM     80  N5  non d ame     -13.398   9.747  70.705  0.00  0.00    -0.049 N 
ATOM     81  H40 non d ame     -12.932   7.865  71.588  0.00  0.00     0.075 H 
ATOM     82  H41 non d ame     -12.863   9.367  72.731  0.00  0.00     0.075 H 
ATOM     83  C28 non d ame     -12.262  10.687  70.048  0.00  0.00     0.193 C 
ATOM     84  H42 non d ame     -13.727   9.101  70.001  0.00  0.00     0.280 HD
ATOM     85  H43 non d ame     -14.056  10.334  71.197  0.00  0.00     0.280 HD
ATOM     86  H44 non d ame     -12.197  11.743  70.311  0.00  0.00     0.129 H 
ATOM     87  H37 non d ame     -10.771  11.215  70.890  0.00  0.00     0.046 H 
BRANCH  83  88
ATOM     88  O6  non d ame     -12.357  10.653  68.624  0.00  0.00    -0.369 OA
ATOM     89  H45 non d ame     -11.606  10.177  68.264  0.00  0.00     0.212 HD
ENDBRANCH  83  88
ENDBRANCH  72  75
ENDBRANCH  47  72
ENDBRANCH  45  47
ENDBRANCH   1  43
BRANCH   1  90
ATOM     90  C16 non d ame      -5.877  13.305  67.831  0.00  0.00    -0.035 C 
ATOM     91  H21 non d ame      -5.275  13.529  68.712  0.00  0.00     0.037 H 
ATOM     92  H22 non d ame      -5.579  13.687  66.856  0.00  0.00     0.037 H 
BRANCH  90  93
ATOM     93  C17 non d ame      -7.302  13.879  68.114  0.00  0.00    -0.059 C 
ATOM     94  H23 non d ame      -7.990  13.036  68.181  0.00  0.00     0.038 H 
BRANCH  93  95
ATOM     95  C18 non d ame      -7.367  14.656  69.467  0.00  0.00    -0.073 C 
ATOM     96  H24 non d ame      -6.747  15.551  69.402  0.00  0.00     0.028 H 
ATOM     97  H25 non d ame      -8.398  14.944  69.671  0.00  0.00     0.028 H 
ATOM     98  H26 non d ame      -7.003  14.018  70.271  0.00  0.00     0.028 H 
ENDBRANCH  93  95
BRANCH  93  99
ATOM     99  C19 non d ame      -7.775  14.760  66.955  0.00  0.00    -0.073 C 
ATOM    100  H27 non d ame      -7.072  15.581  66.813  0.00  0.00     0.028 H 
ATOM    101  H28 non d ame      -7.828  14.165  66.044  0.00  0.00     0.028 H 
ATOM    102  H29 non d ame      -8.761  15.162  67.184  0.00  0.00     0.028 H 
ENDBRANCH  93  99
ENDBRANCH  90  93
ENDBRANCH   1  90
TORSDOF 26
ENDMDL
MODEL 19
REMARK VINA RESULT:      -5.9      2.718      8.491
REMARK  26 active torsions:
REMARK  status: ('A' for Active; 'I' for Inactive)
REMARK    1  A    between atoms: C2_2  and  C3_3 
REMARK    2  A    between atoms: C4_6  and  C5_7 
REMARK       I    between atoms: C5_7  and  N2_9 
REMARK    3  A    between atoms: N2_9  and  C6_10 
REMARK    4  A    between atoms: C6_10  and  C7_11 
REMARK    5  A    between atoms: C6_10  and  C8_13 
REMARK       I    between atoms: C7_11  and  N3_14 
REMARK    6  A    between atoms: N3_14  and  C9_15 
REMARK    7  A    between atoms: C9_15  and  C10_16 
REMARK    8  A    between atoms: C9_15  and  C11_18 
REMARK       I    between atoms: C10_16  and  N4_21 
REMARK    9  A    between atoms: C11_18  and  C12_19 
REMARK   10  A    between atoms: C11_18  and  C13_20 
REMARK   11  A    between atoms: N4_21  and  C14_22 
REMARK   12  A    between atoms: C14_22  and  C15_23 
REMARK   13  A    between atoms: C14_22  and  C16_25 
REMARK       I    between atoms: C15_23  and  N6_40 
REMARK   14  A    between atoms: C16_25  and  C17_26 
REMARK   15  A    between atoms: C17_26  and  C18_27 
REMARK   16  A    between atoms: C17_26  and  C19_28 
REMARK   17  A    between atoms: C20_29  and  C21_30 
REMARK   18  A    between atoms: C20_29  and  C24_33 
REMARK   19  A    between atoms: C20_29  and  N6_40 
REMARK   20  A    between atoms: C21_30  and  C22_31 
REMARK   21  A    between atoms: C22_31  and  C23_32 
REMARK   22  A    between atoms: C23_32  and  O8_43 
REMARK   23  A    between atoms: C24_33  and  C25_34 
REMARK   24  A    between atoms: C28_38  and  O6_39 
REMARK   25  A    between atoms: C29_42  and  O8_43 
REMARK   26  A    between atoms: C29_42  and  C35_49 
ROOT
ATOM      1  C14 non d ame     -10.553   8.754  69.562  0.00  0.00     0.089 C 
ATOM      2  H20 non d ame     -11.587   8.479  69.354  0.00  0.00     0.087 H 
ENDROOT
BRANCH   1   3
ATOM      3  N4  non d ame      -9.832   7.534  69.893  0.00  0.00    -0.346 N 
ATOM      4  C10 non d ame     -10.313   6.201  69.377  0.00  0.00     0.241 C 
ATOM      5  O4  non d ame     -11.286   6.136  68.699  0.00  0.00    -0.271 OA
ATOM      6  H19 non d ame      -9.008   7.612  70.474  0.00  0.00     0.163 HD
BRANCH   4   7
ATOM      7  C9  non d ame      -9.552   4.950  69.725  0.00  0.00     0.092 C 
ATOM      8  H11 non d ame      -9.987   4.105  69.190  0.00  0.00     0.088 H 
BRANCH   7   9
ATOM      9  N3  non d ame      -8.164   5.079  69.271  0.00  0.00    -0.346 N 
ATOM     10  C7  non d ame      -7.624   4.138  68.322  0.00  0.00     0.240 C 
ATOM     11  O3  non d ame      -8.293   3.268  67.913  0.00  0.00    -0.271 OA
ATOM     12  H10 non d ame      -7.575   5.824  69.616  0.00  0.00     0.163 HD
BRANCH  10  13
ATOM     13  C6  non d ame      -6.145   4.280  67.846  0.00  0.00     0.086 C 
ATOM     14  H6  non d ame      -5.734   3.346  67.462  0.00  0.00     0.086 H 
BRANCH  13  15
ATOM     15  N2  non d ame      -6.092   5.237  66.753  0.00  0.00    -0.343 N 
ATOM     16  C5  non d ame      -5.138   5.032  65.661  0.00  0.00     0.273 C 
ATOM     17  O2  non d ame      -4.417   4.096  65.672  0.00  0.00    -0.266 OA
ATOM     18  H5  non d ame      -6.710   6.036  66.753  0.00  0.00     0.163 HD
BRANCH  16  19
ATOM     19  C4  non d ame      -5.072   6.035  64.498  0.00  0.00     0.154 A 
ATOM     20  C1  non d ame      -4.822   7.442  64.583  0.00  0.00    -0.017 A 
ATOM     21  C2  non d ame      -4.866   7.900  63.247  0.00  0.00     0.077 A 
ATOM     22  H1  non d ame      -4.638   8.039  65.477  0.00  0.00     0.091 H 
ATOM     23  O1  non d ame      -5.111   6.869  62.491  0.00  0.00    -0.218 OA
ATOM     24  N1  non d ame      -5.236   5.770  63.199  0.00  0.00    -0.123 NA
BRANCH  21  25
ATOM     25  C3  non d ame      -4.661   9.334  62.779  0.00  0.00    -0.029 C 
ATOM     26  H2  non d ame      -3.726   9.406  62.222  0.00  0.00     0.036 H 
ATOM     27  H3  non d ame      -5.491   9.628  62.136  0.00  0.00     0.036 H 
ATOM     28  H4  non d ame      -4.620   9.997  63.644  0.00  0.00     0.036 H 
ENDBRANCH  21  25
ENDBRANCH  16  19
ENDBRANCH  13  15
BRANCH  13  29
ATOM     29  C8  non d ame      -5.289   4.756  68.991  0.00  0.00    -0.049 C 
ATOM     30  H7  non d ame      -4.896   5.748  68.764  0.00  0.00     0.030 H 
ATOM     31  H8  non d ame      -5.891   4.803  69.899  0.00  0.00     0.030 H 
ATOM     32  H9  non d ame      -4.461   4.063  69.138  0.00  0.00     0.030 H 
ENDBRANCH  13  29
ENDBRANCH  10  13
ENDBRANCH   7   9
BRANCH   7  33
ATOM     33  C11 non d ame      -9.574   4.740  71.267  0.00  0.00    -0.033 C 
ATOM     34  H12 non d ame      -8.849   5.428  71.703  0.00  0.00     0.042 H 
BRANCH  33  35
ATOM     35  C12 non d ame     -10.971   5.088  71.869  0.00  0.00    -0.071 C 
ATOM     36  H13 non d ame     -10.855   5.377  72.913  0.00  0.00     0.028 H 
ATOM     37  H14 non d ame     -11.411   5.914  71.311  0.00  0.00     0.028 H 
ATOM     38  H15 non d ame     -11.622   4.217  71.801  0.00  0.00     0.028 H 
ENDBRANCH  33  35
BRANCH  33  39
ATOM     39  C13 non d ame      -9.143   3.285  71.640  0.00  0.00    -0.071 C 
ATOM     40  H16 non d ame      -8.745   2.787  70.757  0.00  0.00     0.028 H 
ATOM     41  H17 non d ame      -8.377   3.319  72.415  0.00  0.00     0.028 H 
ATOM     42  H18 non d ame     -10.008   2.735  72.008  0.00  0.00     0.028 H 
ENDBRANCH  33  39
ENDBRANCH   7  33
ENDBRANCH   4   7
ENDBRANCH   1   3
BRANCH   1  43
ATOM     43  C15 non d ame      -9.864   9.420  68.336  0.00  0.00     0.240 C 
ATOM     44  O5  non d ame      -8.896   8.921  67.860  0.00  0.00    -0.271 OA
ATOM     45  N6  non d ame     -10.416  10.674  67.750  0.00  0.00    -0.355 N 
ATOM     46  H46 non d ame     -11.241  11.105  68.144  0.00  0.00     0.162 HD
BRANCH  45  47
ATOM     47  C20 non d ame      -9.750  11.293  66.584  0.00  0.00     0.013 C 
ATOM     48  H30 non d ame      -8.985  10.603  66.230  0.00  0.00     0.072 H 
BRANCH  47  49
ATOM     49  C21 non d ame      -9.114  12.598  67.006  0.00  0.00    -0.038 C 
ATOM     50  H31 non d ame      -8.052  12.382  67.128  0.00  0.00     0.036 H 
ATOM     51  H32 non d ame      -9.440  13.335  66.272  0.00  0.00     0.036 H 
BRANCH  49  52
ATOM     52  C22 non d ame      -9.619  13.096  68.377  0.00  0.00     0.018 C 
ATOM     53  H33 non d ame      -9.866  12.199  68.946  0.00  0.00     0.048 H 
ATOM     54  H34 non d ame      -8.853  13.780  68.744  0.00  0.00     0.048 H 
BRANCH  52  55
ATOM     55  C23 non d ame     -10.932  13.925  68.297  0.00  0.00     0.259 C 
ATOM     56  O7  non d ame     -11.983  13.379  68.203  0.00  0.00    -0.265 OA
BRANCH  55  57
ATOM     57  O8  non d ame     -10.863  15.345  68.323  0.00  0.00    -0.317 OA
BRANCH  57  58
ATOM     58  C29 non d ame     -10.661  15.943  67.039  0.00  0.00     0.052 C 
ATOM     59  H47 non d ame      -9.766  15.472  66.631  0.00  0.00     0.082 H 
ATOM     60  H48 non d ame     -11.613  15.847  66.516  0.00  0.00     0.082 H 
BRANCH  58  61
ATOM     61  C35 non d ame     -10.368  17.451  67.254  0.00  0.00    -0.034 A 
ATOM     62  C30 non d ame     -10.471  18.339  66.188  0.00  0.00    -0.075 A 
ATOM     63  C31 non d ame     -10.208  19.694  66.381  0.00  0.00    -0.082 A 
ATOM     64  H49 non d ame     -10.757  17.974  65.203  0.00  0.00     0.084 H 
ATOM     65  C32 non d ame      -9.839  20.161  67.646  0.00  0.00    -0.083 A 
ATOM     66  H50 non d ame     -10.291  20.388  65.544  0.00  0.00     0.083 H 
ATOM     67  C33 non d ame      -9.734  19.270  68.706  0.00  0.00    -0.082 A 
ATOM     68  H51 non d ame      -9.631  21.219  67.805  0.00  0.00     0.083 H 
ATOM     69  C34 non d ame      -9.999  17.915  68.518  0.00  0.00    -0.075 A 
ATOM     70  H52 non d ame      -9.444  19.637  69.691  0.00  0.00     0.083 H 
ATOM     71  H53 non d ame      -9.915  17.222  69.356  0.00  0.00     0.084 H 
ENDBRANCH  58  61
ENDBRANCH  57  58
ENDBRANCH  55  57
ENDBRANCH  52  55
ENDBRANCH  49  52
ENDBRANCH  47  49
BRANCH  47  72
ATOM     72  C24 non d ame     -10.776  11.558  65.485  0.00  0.00    -0.039 C 
ATOM     73  H35 non d ame     -11.720  11.170  65.868  0.00  0.00     0.036 H 
ATOM     74  H36 non d ame     -10.680  12.618  65.247  0.00  0.00     0.036 H 
BRANCH  72  75
ATOM     75  C25 non d ame     -10.437  10.742  64.149  0.00  0.00    -0.001 C 
ATOM     76  C26 non d ame      -9.239   9.655  64.444  0.00  0.00    -0.035 C 
ATOM     77  C27 non d ame      -8.268   9.812  63.514  0.00  0.00     0.085 C 
ATOM     78  H38 non d ame      -8.737   9.899  65.380  0.00  0.00     0.036 H 
ATOM     79  H39 non d ame      -9.601   8.642  64.268  0.00  0.00     0.036 H 
ATOM     80  N5  non d ame      -8.539  11.118  62.808  0.00  0.00    -0.049 N 
ATOM     81  H40 non d ame      -7.337   9.897  64.075  0.00  0.00     0.075 H 
ATOM     82  H41 non d ame      -8.406   8.993  62.808  0.00  0.00     0.075 H 
ATOM     83  C28 non d ame     -10.049  11.532  63.204  0.00  0.00     0.193 C 
ATOM     84  H42 non d ame      -7.905  11.796  63.208  0.00  0.00     0.280 HD
ATOM     85  H43 non d ame      -8.508  10.922  61.819  0.00  0.00     0.280 HD
ATOM     86  H44 non d ame     -10.863  11.404  62.490  0.00  0.00     0.129 H 
ATOM     87  H37 non d ame     -11.334  10.369  63.654  0.00  0.00     0.046 H 
BRANCH  83  88
ATOM     88  O6  non d ame     -10.096  12.905  63.595  0.00  0.00    -0.369 OA
ATOM     89  H45 non d ame      -9.454  13.405  63.088  0.00  0.00     0.212 HD
ENDBRANCH  83  88
ENDBRANCH  72  75
ENDBRANCH  47  72
ENDBRANCH  45  47
ENDBRANCH   1  43
BRANCH   1  90
ATOM     90  C16 non d ame     -10.502   9.700  70.753  0.00  0.00    -0.035 C 
ATOM     91  H21 non d ame      -9.859   9.209  71.483  0.00  0.00     0.037 H 
ATOM     92  H22 non d ame     -10.218  10.667  70.340  0.00  0.00     0.037 H 
BRANCH  90  93
ATOM     93  C17 non d ame     -11.884   9.905  71.449  0.00  0.00    -0.059 C 
ATOM     94  H23 non d ame     -11.694  10.207  72.479  0.00  0.00     0.038 H 
BRANCH  93  95
ATOM     95  C18 non d ame     -12.727  11.031  70.770  0.00  0.00    -0.073 C 
ATOM     96  H24 non d ame     -13.065  11.738  71.527  0.00  0.00     0.028 H 
ATOM     97  H25 non d ame     -12.112  11.552  70.036  0.00  0.00     0.028 H 
ATOM     98  H26 non d ame     -13.590  10.589  70.273  0.00  0.00     0.028 H 
ENDBRANCH  93  95
BRANCH  93  99
ATOM     99  C19 non d ame     -12.670   8.591  71.500  0.00  0.00    -0.073 C 
ATOM    100  H27 non d ame     -12.568   8.146  72.490  0.00  0.00     0.028 H 
ATOM    101  H28 non d ame     -13.723   8.790  71.298  0.00  0.00     0.028 H 
ATOM    102  H29 non d ame     -12.279   7.905  70.750  0.00  0.00     0.028 H 
ENDBRANCH  93  99
ENDBRANCH  90  93
ENDBRANCH   1  90
TORSDOF 26
ENDMDL
MODEL 20
REMARK VINA RESULT:      -5.8      2.104      6.384
REMARK  26 active torsions:
REMARK  status: ('A' for Active; 'I' for Inactive)
REMARK    1  A    between atoms: C2_2  and  C3_3 
REMARK    2  A    between atoms: C4_6  and  C5_7 
REMARK       I    between atoms: C5_7  and  N2_9 
REMARK    3  A    between atoms: N2_9  and  C6_10 
REMARK    4  A    between atoms: C6_10  and  C7_11 
REMARK    5  A    between atoms: C6_10  and  C8_13 
REMARK       I    between atoms: C7_11  and  N3_14 
REMARK    6  A    between atoms: N3_14  and  C9_15 
REMARK    7  A    between atoms: C9_15  and  C10_16 
REMARK    8  A    between atoms: C9_15  and  C11_18 
REMARK       I    between atoms: C10_16  and  N4_21 
REMARK    9  A    between atoms: C11_18  and  C12_19 
REMARK   10  A    between atoms: C11_18  and  C13_20 
REMARK   11  A    between atoms: N4_21  and  C14_22 
REMARK   12  A    between atoms: C14_22  and  C15_23 
REMARK   13  A    between atoms: C14_22  and  C16_25 
REMARK       I    between atoms: C15_23  and  N6_40 
REMARK   14  A    between atoms: C16_25  and  C17_26 
REMARK   15  A    between atoms: C17_26  and  C18_27 
REMARK   16  A    between atoms: C17_26  and  C19_28 
REMARK   17  A    between atoms: C20_29  and  C21_30 
REMARK   18  A    between atoms: C20_29  and  C24_33 
REMARK   19  A    between atoms: C20_29  and  N6_40 
REMARK   20  A    between atoms: C21_30  and  C22_31 
REMARK   21  A    between atoms: C22_31  and  C23_32 
REMARK   22  A    between atoms: C23_32  and  O8_43 
REMARK   23  A    between atoms: C24_33  and  C25_34 
REMARK   24  A    between atoms: C28_38  and  O6_39 
REMARK   25  A    between atoms: C29_42  and  O8_43 
REMARK   26  A    between atoms: C29_42  and  C35_49 
ROOT
ATOM      1  C14 non d ame      -8.057   9.580  66.117  0.00  0.00     0.089 C 
ATOM      2  H20 non d ame      -8.360   8.767  65.457  0.00  0.00     0.087 H 
ENDROOT
BRANCH   1   3
ATOM      3  N4  non d ame      -9.209  10.451  66.298  0.00  0.00    -0.346 N 
ATOM      4  C10 non d ame     -10.088  10.803  65.124  0.00  0.00     0.241 C 
ATOM      5  O4  non d ame      -9.847  10.376  64.044  0.00  0.00    -0.271 OA
ATOM      6  H19 non d ame      -9.395  10.806  67.225  0.00  0.00     0.163 HD
BRANCH   4   7
ATOM      7  C9  non d ame     -11.279  11.702  65.330  0.00  0.00     0.092 C 
ATOM      8  H11 non d ame     -12.131  11.101  65.651  0.00  0.00     0.088 H 
BRANCH   7   9
ATOM      9  N3  non d ame     -10.993  12.655  66.407  0.00  0.00    -0.346 N 
ATOM     10  C7  non d ame     -11.423  12.372  67.754  0.00  0.00     0.240 C 
ATOM     11  O3  non d ame     -12.002  11.383  67.990  0.00  0.00    -0.271 OA
ATOM     12  H10 non d ame     -10.496  13.513  66.218  0.00  0.00     0.163 HD
BRANCH  10  13
ATOM     13  C6  non d ame     -11.118  13.392  68.894  0.00  0.00     0.086 C 
ATOM     14  H6  non d ame     -10.191  13.171  69.422  0.00  0.00     0.086 H 
BRANCH  13  15
ATOM     15  N2  non d ame     -10.959  14.715  68.312  0.00  0.00    -0.343 N 
ATOM     16  C5  non d ame     -10.077  15.687  68.962  0.00  0.00     0.273 C 
ATOM     17  O2  non d ame      -9.502  15.396  69.953  0.00  0.00    -0.266 OA
ATOM     18  H5  non d ame     -11.455  14.956  67.467  0.00  0.00     0.163 HD
BRANCH  16  19
ATOM     19  C4  non d ame      -9.897  17.089  68.358  0.00  0.00     0.154 A 
ATOM     20  C1  non d ame      -8.669  17.711  67.968  0.00  0.00    -0.017 A 
ATOM     21  C2  non d ame      -9.044  18.981  67.477  0.00  0.00     0.077 A 
ATOM     22  H1  non d ame      -7.659  17.304  68.031  0.00  0.00     0.091 H 
ATOM     23  O1  non d ame     -10.340  19.068  67.575  0.00  0.00    -0.218 OA
ATOM     24  N1  non d ame     -10.859  17.975  68.088  0.00  0.00    -0.123 NA
BRANCH  21  25
ATOM     25  C3  non d ame      -8.108  20.049  66.930  0.00  0.00    -0.029 C 
ATOM     26  H2  non d ame      -7.282  19.573  66.400  0.00  0.00     0.036 H 
ATOM     27  H3  non d ame      -8.655  20.696  66.244  0.00  0.00     0.036 H 
ATOM     28  H4  non d ame      -7.714  20.645  67.754  0.00  0.00     0.036 H 
ENDBRANCH  21  25
ENDBRANCH  16  19
ENDBRANCH  13  15
BRANCH  13  29
ATOM     29  C8  non d ame     -12.254  13.398  69.885  0.00  0.00    -0.049 C 
ATOM     30  H7  non d ame     -12.149  14.252  70.554  0.00  0.00     0.030 H 
ATOM     31  H8  non d ame     -13.202  13.471  69.350  0.00  0.00     0.030 H 
ATOM     32  H9  non d ame     -12.234  12.477  70.466  0.00  0.00     0.030 H 
ENDBRANCH  13  29
ENDBRANCH  10  13
ENDBRANCH   7   9
BRANCH   7  33
ATOM     33  C11 non d ame     -11.575  12.481  64.015  0.00  0.00    -0.033 C 
ATOM     34  H12 non d ame     -10.685  12.418  63.389  0.00  0.00     0.042 H 
BRANCH  33  35
ATOM     35  C12 non d ame     -12.753  11.832  63.223  0.00  0.00    -0.071 C 
ATOM     36  H13 non d ame     -12.557  11.910  62.154  0.00  0.00     0.028 H 
ATOM     37  H14 non d ame     -12.843  10.782  63.500  0.00  0.00     0.028 H 
ATOM     38  H15 non d ame     -13.681  12.352  63.462  0.00  0.00     0.028 H 
ENDBRANCH  33  35
BRANCH  33  39
ATOM     39  C13 non d ame     -11.854  13.990  64.310  0.00  0.00    -0.071 C 
ATOM     40  H16 non d ame     -11.037  14.593  63.916  0.00  0.00     0.028 H 
ATOM     41  H17 non d ame     -12.789  14.287  63.835  0.00  0.00     0.028 H 
ATOM     42  H18 non d ame     -11.929  14.140  65.387  0.00  0.00     0.028 H 
ENDBRANCH  33  39
ENDBRANCH   7  33
ENDBRANCH   4   7
ENDBRANCH   1   3
BRANCH   1  43
ATOM     43  C15 non d ame      -7.602   9.065  67.513  0.00  0.00     0.240 C 
ATOM     44  O5  non d ame      -6.827   9.699  68.153  0.00  0.00    -0.271 OA
ATOM     45  N6  non d ame      -8.140   7.785  68.056  0.00  0.00    -0.355 N 
ATOM     46  H46 non d ame      -8.802   7.239  67.523  0.00  0.00     0.162 HD
BRANCH  45  47
ATOM     47  C20 non d ame      -7.698   7.310  69.384  0.00  0.00     0.013 C 
ATOM     48  H30 non d ame      -6.991   8.037  69.783  0.00  0.00     0.072 H 
BRANCH  47  49
ATOM     49  C21 non d ame      -7.025   5.964  69.236  0.00  0.00    -0.038 C 
ATOM     50  H31 non d ame      -6.846   5.840  68.168  0.00  0.00     0.036 H 
ATOM     51  H32 non d ame      -6.185   5.977  69.932  0.00  0.00     0.036 H 
BRANCH  49  52
ATOM     52  C22 non d ame      -7.930   4.790  69.668  0.00  0.00     0.018 C 
ATOM     53  H33 non d ame      -7.256   4.020  70.046  0.00  0.00     0.048 H 
ATOM     54  H34 non d ame      -8.685   5.224  70.324  0.00  0.00     0.048 H 
BRANCH  52  55
ATOM     55  C23 non d ame      -8.709   4.136  68.492  0.00  0.00     0.259 C 
ATOM     56  O7  non d ame      -8.953   2.973  68.505  0.00  0.00    -0.265 OA
BRANCH  55  57
ATOM     57  O8  non d ame      -9.115   4.939  67.392  0.00  0.00    -0.317 OA
BRANCH  57  58
ATOM     58  C29 non d ame     -10.154   4.359  66.598  0.00  0.00     0.052 C 
ATOM     59  H47 non d ame     -10.184   3.306  66.874  0.00  0.00     0.082 H 
ATOM     60  H48 non d ame     -11.030   4.988  66.754  0.00  0.00     0.082 H 
BRANCH  58  61
ATOM     61  C35 non d ame      -9.733   4.465  65.108  0.00  0.00    -0.034 A 
ATOM     62  C30 non d ame      -8.620   5.217  64.750  0.00  0.00    -0.075 A 
ATOM     63  C31 non d ame      -8.242   5.312  63.412  0.00  0.00    -0.082 A 
ATOM     64  H49 non d ame      -8.043   5.732  65.518  0.00  0.00     0.084 H 
ATOM     65  C32 non d ame      -8.984   4.652  62.429  0.00  0.00    -0.083 A 
ATOM     66  H50 non d ame      -7.367   5.901  63.135  0.00  0.00     0.083 H 
ATOM     67  C33 non d ame     -10.097   3.905  62.789  0.00  0.00    -0.082 A 
ATOM     68  H51 non d ame      -8.696   4.721  61.380  0.00  0.00     0.083 H 
ATOM     69  C34 non d ame     -10.477   3.806  64.127  0.00  0.00    -0.075 A 
ATOM     70  H52 non d ame     -10.676   3.394  62.020  0.00  0.00     0.083 H 
ATOM     71  H53 non d ame     -11.352   3.216  64.403  0.00  0.00     0.084 H 
ENDBRANCH  58  61
ENDBRANCH  57  58
ENDBRANCH  55  57
ENDBRANCH  52  55
ENDBRANCH  49  52
ENDBRANCH  47  49
BRANCH  47  72
ATOM     72  C24 non d ame      -8.904   7.178  70.312  0.00  0.00    -0.039 C 
ATOM     73  H35 non d ame      -9.171   6.121  70.293  0.00  0.00     0.036 H 
ATOM     74  H36 non d ame      -8.603   7.647  71.249  0.00  0.00     0.036 H 
BRANCH  72  75
ATOM     75  C25 non d ame     -10.168   7.994  69.761  0.00  0.00    -0.001 C 
ATOM     76  C26 non d ame     -10.300   9.427  70.556  0.00  0.00    -0.035 C 
ATOM     77  C27 non d ame     -11.565   9.552  71.022  0.00  0.00     0.085 C 
ATOM     78  H38 non d ame      -9.696   9.408  71.462  0.00  0.00     0.036 H 
ATOM     79  H39 non d ame     -10.204  10.255  69.853  0.00  0.00     0.036 H 
ATOM     80  N5  non d ame     -12.217   8.196  70.901  0.00  0.00    -0.049 N 
ATOM     81  H40 non d ame     -11.464   9.805  72.078  0.00  0.00     0.075 H 
ATOM     82  H41 non d ame     -12.059  10.245  70.340  0.00  0.00     0.075 H 
ATOM     83  C28 non d ame     -11.263   7.329  69.929  0.00  0.00     0.193 C 
ATOM     84  H42 non d ame     -12.195   7.785  71.824  0.00  0.00     0.280 HD
ATOM     85  H43 non d ame     -13.101   8.343  70.436  0.00  0.00     0.280 HD
ATOM     86  H44 non d ame     -11.547   7.148  68.893  0.00  0.00     0.129 H 
ATOM     87  H37 non d ame     -10.195   8.026  68.672  0.00  0.00     0.046 H 
BRANCH  83  88
ATOM     88  O6  non d ame     -11.029   6.038  70.493  0.00  0.00    -0.369 OA
ATOM     89  H45 non d ame     -10.968   6.112  71.448  0.00  0.00     0.212 HD
ENDBRANCH  83  88
ENDBRANCH  72  75
ENDBRANCH  47  72
ENDBRANCH  45  47
ENDBRANCH   1  43
BRANCH   1  90
ATOM     90  C16 non d ame      -6.930  10.374  65.473  0.00  0.00    -0.035 C 
ATOM     91  H21 non d ame      -7.423  11.127  64.858  0.00  0.00     0.037 H 
ATOM     92  H22 non d ame      -6.286  10.680  66.297  0.00  0.00     0.037 H 
BRANCH  90  93
ATOM     93  C17 non d ame      -6.041   9.528  64.507  0.00  0.00    -0.059 C 
ATOM     94  H23 non d ame      -5.737  10.176  63.686  0.00  0.00     0.038 H 
BRANCH  93  95
ATOM     95  C18 non d ame      -4.747   9.001  65.205  0.00  0.00    -0.073 C 
ATOM     96  H24 non d ame      -4.673   9.430  66.205  0.00  0.00     0.028 H 
ATOM     97  H25 non d ame      -4.791   7.915  65.279  0.00  0.00     0.028 H 
ATOM     98  H26 non d ame      -3.875   9.290  64.619  0.00  0.00     0.028 H 
ENDBRANCH  93  95
BRANCH  93  99
ATOM     99  C19 non d ame      -6.842   8.373  63.899  0.00  0.00    -0.073 C 
ATOM    100  H27 non d ame      -7.906   8.549  64.052  0.00  0.00     0.028 H 
ATOM    101  H28 non d ame      -6.633   8.309  62.831  0.00  0.00     0.028 H 
ATOM    102  H29 non d ame      -6.555   7.439  64.383  0.00  0.00     0.028 H 
ENDBRANCH  93  99
ENDBRANCH  90  93
ENDBRANCH   1  90
TORSDOF 26
ENDMDL
