MODEL 1
REMARK VINA RESULT:      -6.8      0.000      0.000
REMARK  26 active torsions:
REMARK  status: ('A' for Active; 'I' for Inactive)
REMARK    1  A    between atoms: C2_2  and  C3_3 
REMARK    2  A    between atoms: C4_6  and  C5_7 
REMARK       I    between atoms: C5_7  and  N2_9 
REMARK    3  A    between atoms: N2_9  and  C6_10 
REMARK    4  A    between atoms: C6_10  and  C7_11 
REMARK    5  A    between atoms: C6_10  and  C8_13 
REMARK       I    between atoms: C7_11  and  N3_14 
REMARK    6  A    between atoms: N3_14  and  C9_15 
REMARK    7  A    between atoms: C9_15  and  C10_16 
REMARK    8  A    between atoms: C9_15  and  C11_18 
REMARK       I    between atoms: C10_16  and  N4_21 
REMARK    9  A    between atoms: C11_18  and  C12_19 
REMARK   10  A    between atoms: C11_18  and  C13_20 
REMARK   11  A    between atoms: N4_21  and  C14_22 
REMARK   12  A    between atoms: C14_22  and  C15_23 
REMARK   13  A    between atoms: C14_22  and  C16_25 
REMARK       I    between atoms: C15_23  and  N6_40 
REMARK   14  A    between atoms: C16_25  and  C17_26 
REMARK   15  A    between atoms: C17_26  and  C18_27 
REMARK   16  A    between atoms: C17_26  and  C19_28 
REMARK   17  A    between atoms: C20_29  and  C21_30 
REMARK   18  A    between atoms: C20_29  and  C24_33 
REMARK   19  A    between atoms: C20_29  and  N6_40 
REMARK   20  A    between atoms: C21_30  and  C22_31 
REMARK   21  A    between atoms: C22_31  and  C23_32 
REMARK   22  A    between atoms: C23_32  and  O8_43 
REMARK   23  A    between atoms: C24_33  and  C25_34 
REMARK   24  A    between atoms: C28_38  and  O6_39 
REMARK   25  A    between atoms: C29_42  and  O8_43 
REMARK   26  A    between atoms: C29_42  and  C35_49 
ROOT
ATOM      1  C14 non d ame      -8.357   9.390  69.064  0.00  0.00     0.089 C 
ATOM      2  H20 non d ame      -7.794   8.551  69.474  0.00  0.00     0.087 H 
ENDROOT
BRANCH   1   3
ATOM      3  N4  non d ame      -8.889   8.973  67.775  0.00  0.00    -0.346 N 
ATOM      4  C10 non d ame      -8.188   7.906  66.971  0.00  0.00     0.241 C 
ATOM      5  O4  non d ame      -7.196   7.400  67.381  0.00  0.00    -0.271 OA
ATOM      6  H19 non d ame      -9.733   9.417  67.442  0.00  0.00     0.163 HD
BRANCH   4   7
ATOM      7  C9  non d ame      -8.755   7.483  65.641  0.00  0.00     0.092 C 
ATOM      8  H11 non d ame      -9.810   7.238  65.763  0.00  0.00     0.088 H 
BRANCH   7   9
ATOM      9  N3  non d ame      -8.675   8.602  64.697  0.00  0.00    -0.346 N 
ATOM     10  C7  non d ame      -9.660   9.654  64.743  0.00  0.00     0.240 C 
ATOM     11  O3  non d ame     -10.524   9.617  65.532  0.00  0.00    -0.271 OA
ATOM     12  H10 non d ame      -7.937   8.647  64.010  0.00  0.00     0.163 HD
BRANCH  10  13
ATOM     13  C6  non d ame      -9.572  10.841  63.734  0.00  0.00     0.086 C 
ATOM     14  H6  non d ame     -10.453  10.918  63.096  0.00  0.00     0.086 H 
BRANCH  13  15
ATOM     15  N2  non d ame      -9.486  12.087  64.477  0.00  0.00    -0.343 N 
ATOM     16  C5  non d ame     -10.697  12.881  64.696  0.00  0.00     0.273 C 
ATOM     17  O2  non d ame     -11.735  12.510  64.268  0.00  0.00    -0.266 OA
ATOM     18  H5  non d ame      -8.595  12.398  64.837  0.00  0.00     0.163 HD
BRANCH  16  19
ATOM     19  C4  non d ame     -10.622  14.199  65.482  0.00  0.00     0.154 A 
ATOM     20  C1  non d ame      -9.669  15.253  65.312  0.00  0.00    -0.017 A 
ATOM     21  C2  non d ame     -10.032  16.229  66.267  0.00  0.00     0.077 A 
ATOM     22  H1  non d ame      -8.841  15.303  64.605  0.00  0.00     0.091 H 
ATOM     23  O1  non d ame     -11.073  15.779  66.904  0.00  0.00    -0.218 OA
ATOM     24  N1  non d ame     -11.436  14.596  66.464  0.00  0.00    -0.123 NA
BRANCH  21  25
ATOM     25  C3  non d ame      -9.334  17.561  66.506  0.00  0.00    -0.029 C 
ATOM     26  H2  non d ame      -8.682  17.787  65.661  0.00  0.00     0.036 H 
ATOM     27  H3  non d ame     -10.080  18.349  66.609  0.00  0.00     0.036 H 
ATOM     28  H4  non d ame      -8.740  17.503  67.418  0.00  0.00     0.036 H 
ENDBRANCH  21  25
ENDBRANCH  16  19
ENDBRANCH  13  15
BRANCH  13  29
ATOM     29  C8  non d ame      -8.353  10.674  62.863  0.00  0.00    -0.049 C 
ATOM     30  H7  non d ame      -7.494  10.422  63.485  0.00  0.00     0.030 H 
ATOM     31  H8  non d ame      -8.527   9.875  62.143  0.00  0.00     0.030 H 
ATOM     32  H9  non d ame      -8.156  11.605  62.332  0.00  0.00     0.030 H 
ENDBRANCH  13  29
ENDBRANCH  10  13
ENDBRANCH   7   9
BRANCH   7  33
ATOM     33  C11 non d ame      -7.935   6.281  65.087  0.00  0.00    -0.033 C 
ATOM     34  H12 non d ame      -7.139   6.069  65.801  0.00  0.00     0.042 H 
BRANCH  33  35
ATOM     35  C12 non d ame      -8.816   4.998  64.972  0.00  0.00    -0.071 C 
ATOM     36  H13 non d ame      -8.305   4.162  65.451  0.00  0.00     0.028 H 
ATOM     37  H14 non d ame      -9.773   5.168  65.465  0.00  0.00     0.028 H 
ATOM     38  H15 non d ame      -8.984   4.766  63.920  0.00  0.00     0.028 H 
ENDBRANCH  33  35
BRANCH  33  39
ATOM     39  C13 non d ame      -7.274   6.639  63.718  0.00  0.00    -0.071 C 
ATOM     40  H16 non d ame      -6.844   7.639  63.772  0.00  0.00     0.028 H 
ATOM     41  H17 non d ame      -6.487   5.918  63.495  0.00  0.00     0.028 H 
ATOM     42  H18 non d ame      -8.028   6.609  62.932  0.00  0.00     0.028 H 
ENDBRANCH  33  39
ENDBRANCH   7  33
ENDBRANCH   4   7
ENDBRANCH   1   3
BRANCH   1  43
ATOM     43  C15 non d ame      -9.546   9.803  69.979  0.00  0.00     0.240 C 
ATOM     44  O5  non d ame      -9.654   9.322  71.060  0.00  0.00    -0.271 OA
ATOM     45  N6  non d ame     -10.544  10.806  69.510  0.00  0.00    -0.355 N 
ATOM     46  H46 non d ame     -10.460  11.225  68.596  0.00  0.00     0.162 HD
BRANCH  45  47
ATOM     47  C20 non d ame     -11.667  11.189  70.393  0.00  0.00     0.013 C 
ATOM     48  H30 non d ame     -11.268  11.343  71.396  0.00  0.00     0.072 H 
BRANCH  47  49
ATOM     49  C21 non d ame     -12.692  10.078  70.409  0.00  0.00    -0.038 C 
ATOM     50  H31 non d ame     -13.577  10.486  69.921  0.00  0.00     0.036 H 
ATOM     51  H32 non d ame     -12.188   9.207  69.987  0.00  0.00     0.036 H 
BRANCH  49  52
ATOM     52  C22 non d ame     -13.125   9.682  71.837  0.00  0.00     0.018 C 
ATOM     53  H33 non d ame     -12.200   9.496  72.385  0.00  0.00     0.048 H 
ATOM     54  H34 non d ame     -13.805  10.467  72.168  0.00  0.00     0.048 H 
BRANCH  52  55
ATOM     55  C23 non d ame     -13.935   8.358  71.902  0.00  0.00     0.259 C 
ATOM     56  O7  non d ame     -15.012   8.334  72.405  0.00  0.00    -0.265 OA
BRANCH  55  57
ATOM     57  O8  non d ame     -13.371   7.168  71.365  0.00  0.00    -0.317 OA
BRANCH  57  58
ATOM     58  C29 non d ame     -12.081   6.845  71.893  0.00  0.00     0.052 C 
ATOM     59  H47 non d ame     -11.606   7.801  72.115  0.00  0.00     0.082 H 
ATOM     60  H48 non d ame     -12.261   6.127  72.693  0.00  0.00     0.082 H 
BRANCH  58  61
ATOM     61  C35 non d ame     -11.269   6.140  70.775  0.00  0.00    -0.034 A 
ATOM     62  C30 non d ame     -10.354   5.143  71.101  0.00  0.00    -0.075 A 
ATOM     63  C31 non d ame      -9.624   4.510  70.096  0.00  0.00    -0.082 A 
ATOM     64  H49 non d ame     -10.211   4.858  72.143  0.00  0.00     0.084 H 
ATOM     65  C32 non d ame      -9.808   4.879  68.761  0.00  0.00    -0.083 A 
ATOM     66  H50 non d ame      -8.910   3.728  70.355  0.00  0.00     0.083 H 
ATOM     67  C33 non d ame     -10.719   5.876  68.441  0.00  0.00    -0.082 A 
ATOM     68  H51 non d ame      -9.242   4.388  67.969  0.00  0.00     0.083 H 
ATOM     69  C34 non d ame     -11.453   6.510  69.441  0.00  0.00    -0.075 A 
ATOM     70  H52 non d ame     -10.859   6.163  67.398  0.00  0.00     0.083 H 
ATOM     71  H53 non d ame     -12.167   7.292  69.181  0.00  0.00     0.084 H 
ENDBRANCH  58  61
ENDBRANCH  57  58
ENDBRANCH  55  57
ENDBRANCH  52  55
ENDBRANCH  49  52
ENDBRANCH  47  49
BRANCH  47  72
ATOM     72  C24 non d ame     -12.315  12.473  69.877  0.00  0.00    -0.039 C 
ATOM     73  H35 non d ame     -11.669  12.819  69.069  0.00  0.00     0.036 H 
ATOM     74  H36 non d ame     -13.353  12.211  69.670  0.00  0.00     0.036 H 
BRANCH  72  75
ATOM     75  C25 non d ame     -12.330  13.620  70.995  0.00  0.00    -0.001 C 
ATOM     76  C26 non d ame     -13.563  13.357  72.050  0.00  0.00    -0.035 C 
ATOM     77  C27 non d ame     -14.288  14.496  72.165  0.00  0.00     0.085 C 
ATOM     78  H38 non d ame     -14.271  12.645  71.628  0.00  0.00     0.036 H 
ATOM     79  H39 non d ame     -13.169  13.204  73.055  0.00  0.00     0.036 H 
ATOM     80  N5  non d ame     -13.860  15.408  71.041  0.00  0.00    -0.049 N 
ATOM     81  H40 non d ame     -15.325  14.198  72.006  0.00  0.00     0.075 H 
ATOM     82  H41 non d ame     -13.988  14.937  73.115  0.00  0.00     0.075 H 
ATOM     83  C28 non d ame     -12.486  14.787  70.465  0.00  0.00     0.193 C 
ATOM     84  H42 non d ame     -14.571  15.335  70.327  0.00  0.00     0.280 HD
ATOM     85  H43 non d ame     -13.657  16.303  71.461  0.00  0.00     0.280 HD
ATOM     86  H44 non d ame     -11.527  15.245  70.707  0.00  0.00     0.129 H 
ATOM     87  H37 non d ame     -11.341  13.794  71.420  0.00  0.00     0.046 H 
BRANCH  83  88
ATOM     88  O6  non d ame     -12.531  14.729  69.038  0.00  0.00    -0.369 OA
ATOM     89  H45 non d ame     -13.385  15.045  68.732  0.00  0.00     0.212 HD
ENDBRANCH  83  88
ENDBRANCH  72  75
ENDBRANCH  47  72
ENDBRANCH  45  47
ENDBRANCH   1  43
BRANCH   1  90
ATOM     90  C16 non d ame      -7.433  10.579  68.858  0.00  0.00    -0.035 C 
ATOM     91  H21 non d ame      -7.680  11.278  69.658  0.00  0.00     0.037 H 
ATOM     92  H22 non d ame      -6.430  10.157  68.794  0.00  0.00     0.037 H 
BRANCH  90  93
ATOM     93  C17 non d ame      -7.679  11.339  67.516  0.00  0.00    -0.059 C 
ATOM     94  H23 non d ame      -8.519  10.860  67.014  0.00  0.00     0.038 H 
BRANCH  93  95
ATOM     95  C18 non d ame      -8.053  12.838  67.748  0.00  0.00    -0.073 C 
ATOM     96  H24 non d ame      -8.938  13.086  67.162  0.00  0.00     0.028 H 
ATOM     97  H25 non d ame      -8.259  13.002  68.806  0.00  0.00     0.028 H 
ATOM     98  H26 non d ame      -7.222  13.472  67.437  0.00  0.00     0.028 H 
ENDBRANCH  93  95
BRANCH  93  99
ATOM     99  C19 non d ame      -6.467  11.217  66.589  0.00  0.00    -0.073 C 
ATOM    100  H27 non d ame      -5.551  11.313  67.173  0.00  0.00     0.028 H 
ATOM    101  H28 non d ame      -6.483  10.245  66.096  0.00  0.00     0.028 H 
ATOM    102  H29 non d ame      -6.503  12.005  65.837  0.00  0.00     0.028 H 
ENDBRANCH  93  99
ENDBRANCH  90  93
ENDBRANCH   1  90
TORSDOF 26
ENDMDL
MODEL 2
REMARK VINA RESULT:      -6.6      2.282      5.816
REMARK  26 active torsions:
REMARK  status: ('A' for Active; 'I' for Inactive)
REMARK    1  A    between atoms: C2_2  and  C3_3 
REMARK    2  A    between atoms: C4_6  and  C5_7 
REMARK       I    between atoms: C5_7  and  N2_9 
REMARK    3  A    between atoms: N2_9  and  C6_10 
REMARK    4  A    between atoms: C6_10  and  C7_11 
REMARK    5  A    between atoms: C6_10  and  C8_13 
REMARK       I    between atoms: C7_11  and  N3_14 
REMARK    6  A    between atoms: N3_14  and  C9_15 
REMARK    7  A    between atoms: C9_15  and  C10_16 
REMARK    8  A    between atoms: C9_15  and  C11_18 
REMARK       I    between atoms: C10_16  and  N4_21 
REMARK    9  A    between atoms: C11_18  and  C12_19 
REMARK   10  A    between atoms: C11_18  and  C13_20 
REMARK   11  A    between atoms: N4_21  and  C14_22 
REMARK   12  A    between atoms: C14_22  and  C15_23 
REMARK   13  A    between atoms: C14_22  and  C16_25 
REMARK       I    between atoms: C15_23  and  N6_40 
REMARK   14  A    between atoms: C16_25  and  C17_26 
REMARK   15  A    between atoms: C17_26  and  C18_27 
REMARK   16  A    between atoms: C17_26  and  C19_28 
REMARK   17  A    between atoms: C20_29  and  C21_30 
REMARK   18  A    between atoms: C20_29  and  C24_33 
REMARK   19  A    between atoms: C20_29  and  N6_40 
REMARK   20  A    between atoms: C21_30  and  C22_31 
REMARK   21  A    between atoms: C22_31  and  C23_32 
REMARK   22  A    between atoms: C23_32  and  O8_43 
REMARK   23  A    between atoms: C24_33  and  C25_34 
REMARK   24  A    between atoms: C28_38  and  O6_39 
REMARK   25  A    between atoms: C29_42  and  O8_43 
REMARK   26  A    between atoms: C29_42  and  C35_49 
ROOT
ATOM      1  C14 non d ame      -9.094   7.079  66.382  0.00  0.00     0.089 C 
ATOM      2  H20 non d ame      -9.491   6.595  65.489  0.00  0.00     0.087 H 
ENDROOT
BRANCH   1   3
ATOM      3  N4  non d ame      -8.622   8.399  65.993  0.00  0.00    -0.346 N 
ATOM      4  C10 non d ame      -8.174   8.661  64.577  0.00  0.00     0.241 C 
ATOM      5  O4  non d ame      -8.200   7.791  63.769  0.00  0.00    -0.271 OA
ATOM      6  H19 non d ame      -8.605   9.124  66.696  0.00  0.00     0.163 HD
BRANCH   4   7
ATOM      7  C9  non d ame      -7.693  10.035  64.190  0.00  0.00     0.092 C 
ATOM      8  H11 non d ame      -7.647  10.105  63.103  0.00  0.00     0.088 H 
BRANCH   7   9
ATOM      9  N3  non d ame      -8.659  11.038  64.649  0.00  0.00    -0.346 N 
ATOM     10  C7  non d ame      -9.812  11.349  63.841  0.00  0.00     0.240 C 
ATOM     11  O3  non d ame      -9.978  10.804  62.819  0.00  0.00    -0.271 OA
ATOM     12  H10 non d ame      -8.529  11.518  65.528  0.00  0.00     0.163 HD
BRANCH  10  13
ATOM     13  C6  non d ame     -10.835  12.420  64.333  0.00  0.00     0.086 C 
ATOM     14  H6  non d ame     -11.294  12.158  65.286  0.00  0.00     0.086 H 
BRANCH  13  15
ATOM     15  N2  non d ame     -10.138  13.679  64.539  0.00  0.00    -0.343 N 
ATOM     16  C5  non d ame     -10.651  14.636  65.521  0.00  0.00     0.273 C 
ATOM     17  O2  non d ame     -11.627  14.385  66.139  0.00  0.00    -0.266 OA
ATOM     18  H5  non d ame      -9.306  13.886  64.004  0.00  0.00     0.163 HD
BRANCH  16  19
ATOM     19  C4  non d ame      -9.923  15.969  65.750  0.00  0.00     0.154 A 
ATOM     20  C1  non d ame      -8.591  16.155  66.240  0.00  0.00    -0.017 A 
ATOM     21  C2  non d ame      -8.405  17.555  66.265  0.00  0.00     0.077 A 
ATOM     22  H1  non d ame      -7.871  15.390  66.532  0.00  0.00     0.091 H 
ATOM     23  O1  non d ame      -9.505  18.100  65.836  0.00  0.00    -0.218 OA
ATOM     24  N1  non d ame     -10.406  17.195  65.530  0.00  0.00    -0.123 NA
BRANCH  21  25
ATOM     25  C3  non d ame      -7.147  18.289  66.710  0.00  0.00    -0.029 C 
ATOM     26  H2  non d ame      -6.543  17.630  67.336  0.00  0.00     0.036 H 
ATOM     27  H3  non d ame      -6.570  18.586  65.834  0.00  0.00     0.036 H 
ATOM     28  H4  non d ame      -7.425  19.176  67.279  0.00  0.00     0.036 H 
ENDBRANCH  21  25
ENDBRANCH  16  19
ENDBRANCH  13  15
BRANCH  13  29
ATOM     29  C8  non d ame     -11.921  12.594  63.301  0.00  0.00    -0.049 C 
ATOM     30  H7  non d ame     -12.616  13.366  63.632  0.00  0.00     0.030 H 
ATOM     31  H8  non d ame     -11.475  12.888  62.351  0.00  0.00     0.030 H 
ATOM     32  H9  non d ame     -12.457  11.653  63.177  0.00  0.00     0.030 H 
ENDBRANCH  13  29
ENDBRANCH  10  13
ENDBRANCH   7   9
BRANCH   7  33
ATOM     33  C11 non d ame      -6.312  10.307  64.854  0.00  0.00    -0.033 C 
ATOM     34  H12 non d ame      -5.796  11.051  64.247  0.00  0.00     0.042 H 
BRANCH  33  35
ATOM     35  C12 non d ame      -6.477  10.903  66.286  0.00  0.00    -0.071 C 
ATOM     36  H13 non d ame      -7.329  11.584  66.301  0.00  0.00     0.028 H 
ATOM     37  H14 non d ame      -6.647  10.095  66.998  0.00  0.00     0.028 H 
ATOM     38  H15 non d ame      -5.573  11.446  66.560  0.00  0.00     0.028 H 
ENDBRANCH  33  35
BRANCH  33  39
ATOM     39  C13 non d ame      -5.437   9.012  64.876  0.00  0.00    -0.071 C 
ATOM     40  H16 non d ame      -5.618   8.468  65.802  0.00  0.00     0.028 H 
ATOM     41  H17 non d ame      -5.699   8.382  64.026  0.00  0.00     0.028 H 
ATOM     42  H18 non d ame      -4.384   9.285  64.815  0.00  0.00     0.028 H 
ENDBRANCH  33  39
ENDBRANCH   7  33
ENDBRANCH   4   7
ENDBRANCH   1   3
BRANCH   1  43
ATOM     43  C15 non d ame     -10.174   7.245  67.489  0.00  0.00     0.240 C 
ATOM     44  O5  non d ame     -11.272   6.824  67.312  0.00  0.00    -0.271 OA
ATOM     45  N6  non d ame      -9.839   7.923  68.773  0.00  0.00    -0.355 N 
ATOM     46  H46 non d ame      -8.909   8.281  68.937  0.00  0.00     0.162 HD
BRANCH  45  47
ATOM     47  C20 non d ame     -10.877   8.073  69.816  0.00  0.00     0.013 C 
ATOM     48  H30 non d ame     -11.832   7.776  69.384  0.00  0.00     0.072 H 
BRANCH  47  49
ATOM     49  C21 non d ame     -10.937   9.518  70.258  0.00  0.00    -0.038 C 
ATOM     50  H31 non d ame     -11.995   9.740  70.397  0.00  0.00     0.036 H 
ATOM     51  H32 non d ame     -10.248   9.596  71.100  0.00  0.00     0.036 H 
BRANCH  49  52
ATOM     52  C22 non d ame     -10.422  10.496  69.180  0.00  0.00     0.018 C 
ATOM     53  H33 non d ame      -9.798  11.217  69.709  0.00  0.00     0.048 H 
ATOM     54  H34 non d ame      -9.990   9.872  68.397  0.00  0.00     0.048 H 
BRANCH  52  55
ATOM     55  C23 non d ame     -11.547  11.322  68.496  0.00  0.00     0.259 C 
ATOM     56  O7  non d ame     -11.794  11.167  67.345  0.00  0.00    -0.265 OA
BRANCH  55  57
ATOM     57  O8  non d ame     -12.271  12.279  69.261  0.00  0.00    -0.317 OA
BRANCH  57  58
ATOM     58  C29 non d ame     -11.601  13.534  69.410  0.00  0.00     0.052 C 
ATOM     59  H47 non d ame     -10.540  13.294  69.488  0.00  0.00     0.082 H 
ATOM     60  H48 non d ame     -11.960  14.159  68.592  0.00  0.00     0.082 H 
BRANCH  58  61
ATOM     61  C35 non d ame     -12.061  14.166  70.750  0.00  0.00    -0.034 A 
ATOM     62  C30 non d ame     -13.008  13.518  71.537  0.00  0.00    -0.075 A 
ATOM     63  C31 non d ame     -13.422  14.087  72.741  0.00  0.00    -0.082 A 
ATOM     64  H49 non d ame     -13.425  12.565  71.211  0.00  0.00     0.084 H 
ATOM     65  C32 non d ame     -12.887  15.309  73.156  0.00  0.00    -0.083 A 
ATOM     66  H50 non d ame     -14.162  13.575  73.357  0.00  0.00     0.083 H 
ATOM     67  C33 non d ame     -11.945  15.954  72.365  0.00  0.00    -0.082 A 
ATOM     68  H51 non d ame     -13.205  15.760  74.096  0.00  0.00     0.083 H 
ATOM     69  C34 non d ame     -11.527  15.388  71.162  0.00  0.00    -0.075 A 
ATOM     70  H52 non d ame     -11.532  16.909  72.690  0.00  0.00     0.083 H 
ATOM     71  H53 non d ame     -10.786  15.900  70.547  0.00  0.00     0.084 H 
ENDBRANCH  58  61
ENDBRANCH  57  58
ENDBRANCH  55  57
ENDBRANCH  52  55
ENDBRANCH  49  52
ENDBRANCH  47  49
BRANCH  47  72
ATOM     72  C24 non d ame     -10.538   7.187  71.013  0.00  0.00    -0.039 C 
ATOM     73  H35 non d ame     -11.436   6.598  71.201  0.00  0.00     0.036 H 
ATOM     74  H36 non d ame      -9.605   6.688  70.750  0.00  0.00     0.036 H 
BRANCH  72  75
ATOM     75  C25 non d ame     -10.256   8.053  72.331  0.00  0.00    -0.001 C 
ATOM     76  C26 non d ame      -8.636   8.202  72.567  0.00  0.00    -0.035 C 
ATOM     77  C27 non d ame      -8.345   7.840  73.840  0.00  0.00     0.085 C 
ATOM     78  H38 non d ame      -8.101   7.468  71.965  0.00  0.00     0.036 H 
ATOM     79  H39 non d ame      -8.347   9.253  72.529  0.00  0.00     0.036 H 
ATOM     80  N5  non d ame      -9.568   7.148  74.392  0.00  0.00    -0.049 N 
ATOM     81  H40 non d ame      -7.533   7.117  73.759  0.00  0.00     0.075 H 
ATOM     82  H41 non d ame      -8.192   8.774  74.380  0.00  0.00     0.075 H 
ATOM     83  C28 non d ame     -10.773   7.497  73.375  0.00  0.00     0.193 C 
ATOM     84  H42 non d ame      -9.382   6.157  74.343  0.00  0.00     0.280 HD
ATOM     85  H43 non d ame      -9.764   7.581  75.283  0.00  0.00     0.280 HD
ATOM     86  H44 non d ame     -11.526   8.238  73.643  0.00  0.00     0.129 H 
ATOM     87  H37 non d ame     -10.848   8.969  72.357  0.00  0.00     0.046 H 
BRANCH  83  88
ATOM     88  O6  non d ame     -11.501   6.312  73.050  0.00  0.00    -0.369 OA
ATOM     89  H45 non d ame     -11.302   6.051  72.148  0.00  0.00     0.212 HD
ENDBRANCH  83  88
ENDBRANCH  72  75
ENDBRANCH  47  72
ENDBRANCH  45  47
ENDBRANCH   1  43
BRANCH   1  90
ATOM     90  C16 non d ame      -7.925   6.274  66.927  0.00  0.00    -0.035 C 
ATOM     91  H21 non d ame      -7.060   6.934  66.851  0.00  0.00     0.037 H 
ATOM     92  H22 non d ame      -8.251   5.914  67.903  0.00  0.00     0.037 H 
BRANCH  90  93
ATOM     93  C17 non d ame      -7.587   5.006  66.079  0.00  0.00    -0.059 C 
ATOM     94  H23 non d ame      -7.469   4.170  66.768  0.00  0.00     0.038 H 
BRANCH  93  95
ATOM     95  C18 non d ame      -8.733   4.643  65.081  0.00  0.00    -0.073 C 
ATOM     96  H24 non d ame      -8.653   5.272  64.194  0.00  0.00     0.028 H 
ATOM     97  H25 non d ame      -8.645   3.595  64.793  0.00  0.00     0.028 H 
ATOM     98  H26 non d ame      -9.698   4.809  65.559  0.00  0.00     0.028 H 
ENDBRANCH  93  95
BRANCH  93  99
ATOM     99  C19 non d ame      -6.257   5.179  65.342  0.00  0.00    -0.073 C 
ATOM    100  H27 non d ame      -6.301   4.659  64.385  0.00  0.00     0.028 H 
ATOM    101  H28 non d ame      -6.072   6.240  65.172  0.00  0.00     0.028 H 
ATOM    102  H29 non d ame      -5.450   4.763  65.946  0.00  0.00     0.028 H 
ENDBRANCH  93  99
ENDBRANCH  90  93
ENDBRANCH   1  90
TORSDOF 26
ENDMDL
MODEL 3
REMARK VINA RESULT:      -6.5      2.251      6.852
REMARK  26 active torsions:
REMARK  status: ('A' for Active; 'I' for Inactive)
REMARK    1  A    between atoms: C2_2  and  C3_3 
REMARK    2  A    between atoms: C4_6  and  C5_7 
REMARK       I    between atoms: C5_7  and  N2_9 
REMARK    3  A    between atoms: N2_9  and  C6_10 
REMARK    4  A    between atoms: C6_10  and  C7_11 
REMARK    5  A    between atoms: C6_10  and  C8_13 
REMARK       I    between atoms: C7_11  and  N3_14 
REMARK    6  A    between atoms: N3_14  and  C9_15 
REMARK    7  A    between atoms: C9_15  and  C10_16 
REMARK    8  A    between atoms: C9_15  and  C11_18 
REMARK       I    between atoms: C10_16  and  N4_21 
REMARK    9  A    between atoms: C11_18  and  C12_19 
REMARK   10  A    between atoms: C11_18  and  C13_20 
REMARK   11  A    between atoms: N4_21  and  C14_22 
REMARK   12  A    between atoms: C14_22  and  C15_23 
REMARK   13  A    between atoms: C14_22  and  C16_25 
REMARK       I    between atoms: C15_23  and  N6_40 
REMARK   14  A    between atoms: C16_25  and  C17_26 
REMARK   15  A    between atoms: C17_26  and  C18_27 
REMARK   16  A    between atoms: C17_26  and  C19_28 
REMARK   17  A    between atoms: C20_29  and  C21_30 
REMARK   18  A    between atoms: C20_29  and  C24_33 
REMARK   19  A    between atoms: C20_29  and  N6_40 
REMARK   20  A    between atoms: C21_30  and  C22_31 
REMARK   21  A    between atoms: C22_31  and  C23_32 
REMARK   22  A    between atoms: C23_32  and  O8_43 
REMARK   23  A    between atoms: C24_33  and  C25_34 
REMARK   24  A    between atoms: C28_38  and  O6_39 
REMARK   25  A    between atoms: C29_42  and  O8_43 
REMARK   26  A    between atoms: C29_42  and  C35_49 
ROOT
ATOM      1  C14 non d ame      -7.934   7.984  63.497  0.00  0.00     0.089 C 
ATOM      2  H20 non d ame      -8.108   8.222  62.447  0.00  0.00     0.087 H 
ENDROOT
BRANCH   1   3
ATOM      3  N4  non d ame      -8.837   8.807  64.288  0.00  0.00    -0.346 N 
ATOM      4  C10 non d ame      -9.473  10.034  63.687  0.00  0.00     0.241 C 
ATOM      5  O4  non d ame      -9.241  10.342  62.565  0.00  0.00    -0.271 OA
ATOM      6  H19 non d ame      -9.019   8.529  65.243  0.00  0.00     0.163 HD
BRANCH   4   7
ATOM      7  C9  non d ame     -10.409  10.871  64.519  0.00  0.00     0.092 C 
ATOM      8  H11 non d ame     -11.222  10.244  64.884  0.00  0.00     0.088 H 
BRANCH   7   9
ATOM      9  N3  non d ame      -9.695  11.383  65.693  0.00  0.00    -0.346 N 
ATOM     10  C7  non d ame     -10.054  10.921  67.012  0.00  0.00     0.240 C 
ATOM     11  O3  non d ame     -10.915  10.140  67.146  0.00  0.00    -0.271 OA
ATOM     12  H10 non d ame      -8.952  12.058  65.593  0.00  0.00     0.163 HD
BRANCH  10  13
ATOM     13  C6  non d ame      -9.293  11.471  68.258  0.00  0.00     0.086 C 
ATOM     14  H6  non d ame      -8.482  12.149  67.991  0.00  0.00     0.086 H 
BRANCH  13  15
ATOM     15  N2  non d ame     -10.220  12.235  69.077  0.00  0.00    -0.343 N 
ATOM     16  C5  non d ame     -10.525  13.621  68.719  0.00  0.00     0.273 C 
ATOM     17  O2  non d ame     -10.018  14.115  67.772  0.00  0.00    -0.266 OA
ATOM     18  H5  non d ame     -10.646  11.806  69.886  0.00  0.00     0.163 HD
BRANCH  16  19
ATOM     19  C4  non d ame     -11.505  14.440  69.575  0.00  0.00     0.154 A 
ATOM     20  C1  non d ame     -12.445  13.939  70.530  0.00  0.00    -0.017 A 
ATOM     21  C2  non d ame     -13.095  15.086  71.037  0.00  0.00     0.077 A 
ATOM     22  H1  non d ame     -12.628  12.901  70.813  0.00  0.00     0.091 H 
ATOM     23  O1  non d ame     -12.580  16.119  70.438  0.00  0.00    -0.218 OA
ATOM     24  N1  non d ame     -11.650  15.768  69.580  0.00  0.00    -0.123 NA
BRANCH  21  25
ATOM     25  C3  non d ame     -14.194  15.108  72.091  0.00  0.00    -0.029 C 
ATOM     26  H2  non d ame     -14.923  14.327  71.873  0.00  0.00     0.036 H 
ATOM     27  H3  non d ame     -13.758  14.934  73.074  0.00  0.00     0.036 H 
ATOM     28  H4  non d ame     -14.689  16.080  72.080  0.00  0.00     0.036 H 
ENDBRANCH  21  25
ENDBRANCH  16  19
ENDBRANCH  13  15
BRANCH  13  29
ATOM     29  C8  non d ame      -8.727  10.322  69.052  0.00  0.00    -0.049 C 
ATOM     30  H7  non d ame      -9.384   9.457  68.960  0.00  0.00     0.030 H 
ATOM     31  H8  non d ame      -7.737  10.069  68.671  0.00  0.00     0.030 H 
ATOM     32  H9  non d ame      -8.650  10.609  70.101  0.00  0.00     0.030 H 
ENDBRANCH  13  29
ENDBRANCH  10  13
ENDBRANCH   7   9
BRANCH   7  33
ATOM     33  C11 non d ame     -10.929  12.068  63.670  0.00  0.00    -0.033 C 
ATOM     34  H12 non d ame     -10.383  12.063  62.727  0.00  0.00     0.042 H 
BRANCH  33  35
ATOM     35  C12 non d ame     -12.445  11.910  63.334  0.00  0.00    -0.071 C 
ATOM     36  H13 non d ame     -12.674  10.856  63.175  0.00  0.00     0.028 H 
ATOM     37  H14 non d ame     -13.042  12.290  64.163  0.00  0.00     0.028 H 
ATOM     38  H15 non d ame     -12.677  12.473  62.431  0.00  0.00     0.028 H 
ENDBRANCH  33  35
BRANCH  33  39
ATOM     39  C13 non d ame     -10.646  13.427  64.386  0.00  0.00    -0.071 C 
ATOM     40  H16 non d ame     -10.893  13.339  65.443  0.00  0.00     0.028 H 
ATOM     41  H17 non d ame      -9.590  13.681  64.280  0.00  0.00     0.028 H 
ATOM     42  H18 non d ame     -11.255  14.210  63.933  0.00  0.00     0.028 H 
ENDBRANCH  33  39
ENDBRANCH   7  33
ENDBRANCH   4   7
ENDBRANCH   1   3
BRANCH   1  43
ATOM     43  C15 non d ame      -8.219   6.488  63.815  0.00  0.00     0.240 C 
ATOM     44  O5  non d ame      -7.995   5.657  62.997  0.00  0.00    -0.271 OA
ATOM     45  N6  non d ame      -8.765   6.092  65.145  0.00  0.00    -0.355 N 
ATOM     46  H46 non d ame      -8.956   6.789  65.850  0.00  0.00     0.162 HD
BRANCH  45  47
ATOM     47  C20 non d ame      -9.030   4.666  65.432  0.00  0.00     0.013 C 
ATOM     48  H30 non d ame      -9.053   4.131  64.483  0.00  0.00     0.072 H 
BRANCH  47  49
ATOM     49  C21 non d ame     -10.364   4.536  66.132  0.00  0.00    -0.038 C 
ATOM     50  H31 non d ame     -11.086   4.303  65.349  0.00  0.00     0.036 H 
ATOM     51  H32 non d ame     -10.200   3.834  66.949  0.00  0.00     0.036 H 
BRANCH  49  52
ATOM     52  C22 non d ame     -10.832   5.858  66.778  0.00  0.00     0.018 C 
ATOM     53  H33 non d ame     -10.249   6.644  66.299  0.00  0.00     0.048 H 
ATOM     54  H34 non d ame     -11.920   5.858  66.695  0.00  0.00     0.048 H 
BRANCH  52  55
ATOM     55  C23 non d ame     -10.520   5.957  68.297  0.00  0.00     0.259 C 
ATOM     56  O7  non d ame     -10.322   4.977  68.938  0.00  0.00    -0.265 OA
BRANCH  55  57
ATOM     57  O8  non d ame     -10.484   7.236  68.919  0.00  0.00    -0.317 OA
BRANCH  57  58
ATOM     58  C29 non d ame     -10.377   7.188  70.344  0.00  0.00     0.052 C 
ATOM     59  H47 non d ame     -10.417   6.131  70.607  0.00  0.00     0.082 H 
ATOM     60  H48 non d ame      -9.495   7.778  70.594  0.00  0.00     0.082 H 
BRANCH  58  61
ATOM     61  C35 non d ame     -11.624   7.892  70.943  0.00  0.00    -0.034 A 
ATOM     62  C30 non d ame     -12.764   7.153  71.242  0.00  0.00    -0.075 A 
ATOM     63  C31 non d ame     -13.885   7.784  71.779  0.00  0.00    -0.082 A 
ATOM     64  H49 non d ame     -12.779   6.079  71.056  0.00  0.00     0.084 H 
ATOM     65  C32 non d ame     -13.863   9.162  72.015  0.00  0.00    -0.083 A 
ATOM     66  H50 non d ame     -14.776   7.202  72.015  0.00  0.00     0.083 H 
ATOM     67  C33 non d ame     -12.724   9.896  71.712  0.00  0.00    -0.082 A 
ATOM     68  H51 non d ame     -14.735   9.663  72.435  0.00  0.00     0.083 H 
ATOM     69  C34 non d ame     -11.602   9.268  71.176  0.00  0.00    -0.075 A 
ATOM     70  H52 non d ame     -12.712  10.970  71.895  0.00  0.00     0.083 H 
ATOM     71  H53 non d ame     -10.711   9.851  70.942  0.00  0.00     0.084 H 
ENDBRANCH  58  61
ENDBRANCH  57  58
ENDBRANCH  55  57
ENDBRANCH  52  55
ENDBRANCH  49  52
ENDBRANCH  47  49
BRANCH  47  72
ATOM     72  C24 non d ame      -7.927   4.106  66.329  0.00  0.00    -0.039 C 
ATOM     73  H35 non d ame      -8.437   3.738  67.220  0.00  0.00     0.036 H 
ATOM     74  H36 non d ame      -7.363   3.417  65.700  0.00  0.00     0.036 H 
BRANCH  72  75
ATOM     75  C25 non d ame      -6.912   5.251  66.805  0.00  0.00    -0.001 C 
ATOM     76  C26 non d ame      -5.465   5.067  66.046  0.00  0.00    -0.035 C 
ATOM     77  C27 non d ame      -4.481   5.070  66.977  0.00  0.00     0.085 C 
ATOM     78  H38 non d ame      -5.397   4.072  65.607  0.00  0.00     0.036 H 
ATOM     79  H39 non d ame      -5.246   5.946  65.440  0.00  0.00     0.036 H 
ATOM     80  N5  non d ame      -5.146   4.911  68.323  0.00  0.00    -0.049 N 
ATOM     81  H40 non d ame      -3.881   4.183  66.769  0.00  0.00     0.075 H 
ATOM     82  H41 non d ame      -4.029   6.060  66.918  0.00  0.00     0.075 H 
ATOM     83  C28 non d ame      -6.715   5.201  68.080  0.00  0.00     0.193 C 
ATOM     84  H42 non d ame      -5.034   3.942  68.584  0.00  0.00     0.280 HD
ATOM     85  H43 non d ame      -4.772   5.640  68.914  0.00  0.00     0.280 HD
ATOM     86  H44 non d ame      -7.157   6.149  68.386  0.00  0.00     0.129 H 
ATOM     87  H37 non d ame      -7.365   6.242  66.775  0.00  0.00     0.046 H 
BRANCH  83  88
ATOM     88  O6  non d ame      -7.506   4.190  68.708  0.00  0.00    -0.369 OA
ATOM     89  H45 non d ame      -8.363   4.142  68.279  0.00  0.00     0.212 HD
ENDBRANCH  83  88
ENDBRANCH  72  75
ENDBRANCH  47  72
ENDBRANCH  45  47
ENDBRANCH   1  43
BRANCH   1  90
ATOM     90  C16 non d ame      -6.499   8.321  63.870  0.00  0.00    -0.035 C 
ATOM     91  H21 non d ame      -6.077   7.395  64.259  0.00  0.00     0.037 H 
ATOM     92  H22 non d ame      -6.071   8.784  62.981  0.00  0.00     0.037 H 
BRANCH  90  93
ATOM     93  C17 non d ame      -6.381   9.376  65.016  0.00  0.00    -0.059 C 
ATOM     94  H23 non d ame      -7.373   9.797  65.182  0.00  0.00     0.038 H 
BRANCH  93  95
ATOM     95  C18 non d ame      -5.905   8.735  66.360  0.00  0.00    -0.073 C 
ATOM     96  H24 non d ame      -5.089   9.326  66.774  0.00  0.00     0.028 H 
ATOM     97  H25 non d ame      -6.735   8.715  67.067  0.00  0.00     0.028 H 
ATOM     98  H26 non d ame      -5.561   7.718  66.174  0.00  0.00     0.028 H 
ENDBRANCH  93  95
BRANCH  93  99
ATOM     99  C19 non d ame      -5.461  10.528  64.606  0.00  0.00    -0.073 C 
ATOM    100  H27 non d ame      -4.436  10.297  64.898  0.00  0.00     0.028 H 
ATOM    101  H28 non d ame      -5.510  10.665  63.526  0.00  0.00     0.028 H 
ATOM    102  H29 non d ame      -5.782  11.444  65.103  0.00  0.00     0.028 H 
ENDBRANCH  93  99
ENDBRANCH  90  93
ENDBRANCH   1  90
TORSDOF 26
ENDMDL
MODEL 4
REMARK VINA RESULT:      -6.4      3.110      7.226
REMARK  26 active torsions:
REMARK  status: ('A' for Active; 'I' for Inactive)
REMARK    1  A    between atoms: C2_2  and  C3_3 
REMARK    2  A    between atoms: C4_6  and  C5_7 
REMARK       I    between atoms: C5_7  and  N2_9 
REMARK    3  A    between atoms: N2_9  and  C6_10 
REMARK    4  A    between atoms: C6_10  and  C7_11 
REMARK    5  A    between atoms: C6_10  and  C8_13 
REMARK       I    between atoms: C7_11  and  N3_14 
REMARK    6  A    between atoms: N3_14  and  C9_15 
REMARK    7  A    between atoms: C9_15  and  C10_16 
REMARK    8  A    between atoms: C9_15  and  C11_18 
REMARK       I    between atoms: C10_16  and  N4_21 
REMARK    9  A    between atoms: C11_18  and  C12_19 
REMARK   10  A    between atoms: C11_18  and  C13_20 
REMARK   11  A    between atoms: N4_21  and  C14_22 
REMARK   12  A    between atoms: C14_22  and  C15_23 
REMARK   13  A    between atoms: C14_22  and  C16_25 
REMARK       I    between atoms: C15_23  and  N6_40 
REMARK   14  A    between atoms: C16_25  and  C17_26 
REMARK   15  A    between atoms: C17_26  and  C18_27 
REMARK   16  A    between atoms: C17_26  and  C19_28 
REMARK   17  A    between atoms: C20_29  and  C21_30 
REMARK   18  A    between atoms: C20_29  and  C24_33 
REMARK   19  A    between atoms: C20_29  and  N6_40 
REMARK   20  A    between atoms: C21_30  and  C22_31 
REMARK   21  A    between atoms: C22_31  and  C23_32 
REMARK   22  A    between atoms: C23_32  and  O8_43 
REMARK   23  A    between atoms: C24_33  and  C25_34 
REMARK   24  A    between atoms: C28_38  and  O6_39 
REMARK   25  A    between atoms: C29_42  and  O8_43 
REMARK   26  A    between atoms: C29_42  and  C35_49 
ROOT
ATOM      1  C14 non d ame      -6.715  13.487  68.153  0.00  0.00     0.089 C 
ATOM      2  H20 non d ame      -6.002  13.447  67.329  0.00  0.00     0.087 H 
ENDROOT
BRANCH   1   3
ATOM      3  N4  non d ame      -6.993  14.889  68.425  0.00  0.00    -0.346 N 
ATOM      4  C10 non d ame      -6.193  15.970  67.744  0.00  0.00     0.241 C 
ATOM      5  O4  non d ame      -5.329  15.687  66.982  0.00  0.00    -0.271 OA
ATOM      6  H19 non d ame      -7.732  15.109  69.079  0.00  0.00     0.163 HD
BRANCH   4   7
ATOM      7  C9  non d ame      -6.499  17.417  68.033  0.00  0.00     0.092 C 
ATOM      8  H11 non d ame      -6.174  18.027  67.191  0.00  0.00     0.088 H 
BRANCH   7   9
ATOM      9  N3  non d ame      -7.948  17.594  68.163  0.00  0.00    -0.346 N 
ATOM     10  C7  non d ame      -8.758  17.796  66.987  0.00  0.00     0.240 C 
ATOM     11  O3  non d ame      -8.259  17.821  65.928  0.00  0.00    -0.271 OA
ATOM     12  H10 non d ame      -8.392  17.577  69.070  0.00  0.00     0.163 HD
BRANCH  10  13
ATOM     13  C6  non d ame     -10.300  17.988  67.132  0.00  0.00     0.086 C 
ATOM     14  H6  non d ame     -10.864  17.466  66.359  0.00  0.00     0.086 H 
BRANCH  13  15
ATOM     15  N2  non d ame     -10.726  17.430  68.405  0.00  0.00    -0.343 N 
ATOM     16  C5  non d ame     -11.218  16.052  68.461  0.00  0.00     0.273 C 
ATOM     17  O2  non d ame     -11.270  15.401  67.475  0.00  0.00    -0.266 OA
ATOM     18  H5  non d ame     -10.680  17.995  69.242  0.00  0.00     0.163 HD
BRANCH  16  19
ATOM     19  C4  non d ame     -11.671  15.450  69.800  0.00  0.00     0.154 A 
ATOM     20  C1  non d ame     -11.633  16.075  71.086  0.00  0.00    -0.017 A 
ATOM     21  C2  non d ame     -12.155  15.110  71.976  0.00  0.00     0.077 A 
ATOM     22  H1  non d ame     -11.280  17.076  71.336  0.00  0.00     0.091 H 
ATOM     23  O1  non d ame     -12.456  14.058  71.272  0.00  0.00    -0.218 OA
ATOM     24  N1  non d ame     -12.182  14.232  70.000  0.00  0.00    -0.123 NA
BRANCH  21  25
ATOM     25  C3  non d ame     -12.334  15.272  73.479  0.00  0.00    -0.029 C 
ATOM     26  H2  non d ame     -11.578  15.957  73.864  0.00  0.00     0.036 H 
ATOM     27  H3  non d ame     -13.326  15.673  73.686  0.00  0.00     0.036 H 
ATOM     28  H4  non d ame     -12.226  14.302  73.966  0.00  0.00     0.036 H 
ENDBRANCH  21  25
ENDBRANCH  16  19
ENDBRANCH  13  15
BRANCH  13  29
ATOM     29  C8  non d ame     -10.634  19.456  67.073  0.00  0.00    -0.049 C 
ATOM     30  H7  non d ame     -10.701  19.855  68.086  0.00  0.00     0.030 H 
ATOM     31  H8  non d ame      -9.855  19.985  66.525  0.00  0.00     0.030 H 
ATOM     32  H9  non d ame     -11.590  19.591  66.567  0.00  0.00     0.030 H 
ENDBRANCH  13  29
ENDBRANCH  10  13
ENDBRANCH   7   9
BRANCH   7  33
ATOM     33  C11 non d ame      -5.806  17.837  69.362  0.00  0.00    -0.033 C 
ATOM     34  H12 non d ame      -6.365  17.385  70.182  0.00  0.00     0.042 H 
BRANCH  33  35
ATOM     35  C12 non d ame      -4.344  17.296  69.437  0.00  0.00    -0.071 C 
ATOM     36  H13 non d ame      -3.871  17.655  70.352  0.00  0.00     0.028 H 
ATOM     37  H14 non d ame      -4.360  16.207  69.440  0.00  0.00     0.028 H 
ATOM     38  H15 non d ame      -3.782  17.650  68.574  0.00  0.00     0.028 H 
ENDBRANCH  33  35
BRANCH  33  39
ATOM     39  C13 non d ame      -5.847  19.388  69.548  0.00  0.00    -0.071 C 
ATOM     40  H16 non d ame      -6.276  19.849  68.659  0.00  0.00     0.028 H 
ATOM     41  H17 non d ame      -6.458  19.634  70.417  0.00  0.00     0.028 H 
ATOM     42  H18 non d ame      -4.834  19.762  69.699  0.00  0.00     0.028 H 
ENDBRANCH  33  39
ENDBRANCH   7  33
ENDBRANCH   4   7
ENDBRANCH   1   3
BRANCH   1  43
ATOM     43  C15 non d ame      -8.054  12.774  67.806  0.00  0.00     0.240 C 
ATOM     44  O5  non d ame      -9.078  13.205  68.227  0.00  0.00    -0.271 OA
ATOM     45  N6  non d ame      -8.059  11.560  66.942  0.00  0.00    -0.355 N 
ATOM     46  H46 non d ame      -7.195  11.188  66.575  0.00  0.00     0.162 HD
BRANCH  45  47
ATOM     47  C20 non d ame      -9.340  10.895  66.620  0.00  0.00     0.013 C 
ATOM     48  H30 non d ame     -10.145  11.494  67.044  0.00  0.00     0.072 H 
BRANCH  47  49
ATOM     49  C21 non d ame      -9.351   9.510  67.228  0.00  0.00    -0.038 C 
ATOM     50  H31 non d ame      -8.408   9.051  66.931  0.00  0.00     0.036 H 
ATOM     51  H32 non d ame      -9.579   9.655  68.284  0.00  0.00     0.036 H 
BRANCH  49  52
ATOM     52  C22 non d ame     -10.472   8.615  66.658  0.00  0.00     0.018 C 
ATOM     53  H33 non d ame     -11.374   8.885  67.206  0.00  0.00     0.048 H 
ATOM     54  H34 non d ame     -10.432   8.744  65.576  0.00  0.00     0.048 H 
BRANCH  52  55
ATOM     55  C23 non d ame     -10.253   7.098  66.915  0.00  0.00     0.259 C 
ATOM     56  O7  non d ame     -11.141   6.421  67.322  0.00  0.00    -0.265 OA
BRANCH  55  57
ATOM     57  O8  non d ame      -8.973   6.527  66.671  0.00  0.00    -0.317 OA
BRANCH  57  58
ATOM     58  C29 non d ame      -8.985   5.102  66.547  0.00  0.00     0.052 C 
ATOM     59  H47 non d ame      -7.980   4.775  66.811  0.00  0.00     0.082 H 
ATOM     60  H48 non d ame      -9.840   4.762  67.131  0.00  0.00     0.082 H 
BRANCH  58  61
ATOM     61  C35 non d ame      -9.240   4.753  65.056  0.00  0.00    -0.034 A 
ATOM     62  C30 non d ame      -8.406   5.268  64.068  0.00  0.00    -0.075 A 
ATOM     63  C31 non d ame      -8.635   4.955  62.729  0.00  0.00    -0.082 A 
ATOM     64  H49 non d ame      -7.574   5.916  64.343  0.00  0.00     0.084 H 
ATOM     65  C32 non d ame      -9.703   4.125  62.379  0.00  0.00    -0.083 A 
ATOM     66  H50 non d ame      -7.979   5.358  61.957  0.00  0.00     0.083 H 
ATOM     67  C33 non d ame     -10.534   3.616  63.368  0.00  0.00    -0.082 A 
ATOM     68  H51 non d ame      -9.889   3.875  61.334  0.00  0.00     0.083 H 
ATOM     69  C34 non d ame     -10.308   3.925  64.708  0.00  0.00    -0.075 A 
ATOM     70  H52 non d ame     -11.368   2.971  63.091  0.00  0.00     0.083 H 
ATOM     71  H53 non d ame     -10.964   3.521  65.479  0.00  0.00     0.084 H 
ENDBRANCH  58  61
ENDBRANCH  57  58
ENDBRANCH  55  57
ENDBRANCH  52  55
ENDBRANCH  49  52
ENDBRANCH  47  49
BRANCH  47  72
ATOM     72  C24 non d ame      -9.500  10.788  65.105  0.00  0.00    -0.039 C 
ATOM     73  H35 non d ame      -8.485  10.771  64.706  0.00  0.00     0.036 H 
ATOM     74  H36 non d ame     -10.163   9.938  64.942  0.00  0.00     0.036 H 
BRANCH  72  75
ATOM     75  C25 non d ame     -10.226  12.078  64.493  0.00  0.00    -0.001 C 
ATOM     76  C26 non d ame     -11.528  12.478  65.415  0.00  0.00    -0.035 C 
ATOM     77  C27 non d ame     -12.609  12.608  64.610  0.00  0.00     0.085 C 
ATOM     78  H38 non d ame     -11.793  11.646  66.067  0.00  0.00     0.036 H 
ATOM     79  H39 non d ame     -11.399  13.477  65.831  0.00  0.00     0.036 H 
ATOM     80  N5  non d ame     -12.238  12.015  63.273  0.00  0.00    -0.049 N 
ATOM     81  H40 non d ame     -13.388  11.995  65.067  0.00  0.00     0.075 H 
ATOM     82  H41 non d ame     -12.759  13.681  64.494  0.00  0.00     0.075 H 
ATOM     83  C28 non d ame     -10.631  11.859  63.287  0.00  0.00     0.193 C 
ATOM     84  H42 non d ame     -12.650  11.093  63.243  0.00  0.00     0.280 HD
ATOM     85  H43 non d ame     -12.488  12.702  62.576  0.00  0.00     0.280 HD
ATOM     86  H44 non d ame     -10.002  12.558  62.736  0.00  0.00     0.129 H 
ATOM     87  H37 non d ame      -9.522  12.876  64.258  0.00  0.00     0.046 H 
BRANCH  83  88
ATOM     88  O6  non d ame     -10.258  10.561  62.820  0.00  0.00    -0.369 OA
ATOM     89  H45 non d ame      -9.810  10.641  61.976  0.00  0.00     0.212 HD
ENDBRANCH  83  88
ENDBRANCH  72  75
ENDBRANCH  47  72
ENDBRANCH  45  47
ENDBRANCH   1  43
BRANCH   1  90
ATOM     90  C16 non d ame      -6.105  12.852  69.393  0.00  0.00    -0.035 C 
ATOM     91  H21 non d ame      -6.937  12.706  70.082  0.00  0.00     0.037 H 
ATOM     92  H22 non d ame      -5.541  11.992  69.029  0.00  0.00     0.037 H 
BRANCH  90  93
ATOM     93  C17 non d ame      -5.079  13.773  70.127  0.00  0.00    -0.059 C 
ATOM     94  H23 non d ame      -5.096  14.745  69.636  0.00  0.00     0.038 H 
BRANCH  93  95
ATOM     95  C18 non d ame      -5.453  13.991  71.629  0.00  0.00    -0.073 C 
ATOM     96  H24 non d ame      -6.484  13.679  71.795  0.00  0.00     0.028 H 
ATOM     97  H25 non d ame      -4.788  13.400  72.258  0.00  0.00     0.028 H 
ATOM     98  H26 non d ame      -5.348  15.047  71.879  0.00  0.00     0.028 H 
ENDBRANCH  93  95
BRANCH  93  99
ATOM     99  C19 non d ame      -3.657  13.222  69.995  0.00  0.00    -0.073 C 
ATOM    100  H27 non d ame      -3.700  12.168  69.717  0.00  0.00     0.028 H 
ATOM    101  H28 non d ame      -3.121  13.779  69.226  0.00  0.00     0.028 H 
ATOM    102  H29 non d ame      -3.137  13.326  70.947  0.00  0.00     0.028 H 
ENDBRANCH  93  99
ENDBRANCH  90  93
ENDBRANCH   1  90
TORSDOF 26
ENDMDL
MODEL 5
REMARK VINA RESULT:      -6.4      2.551      5.974
REMARK  26 active torsions:
REMARK  status: ('A' for Active; 'I' for Inactive)
REMARK    1  A    between atoms: C2_2  and  C3_3 
REMARK    2  A    between atoms: C4_6  and  C5_7 
REMARK       I    between atoms: C5_7  and  N2_9 
REMARK    3  A    between atoms: N2_9  and  C6_10 
REMARK    4  A    between atoms: C6_10  and  C7_11 
REMARK    5  A    between atoms: C6_10  and  C8_13 
REMARK       I    between atoms: C7_11  and  N3_14 
REMARK    6  A    between atoms: N3_14  and  C9_15 
REMARK    7  A    between atoms: C9_15  and  C10_16 
REMARK    8  A    between atoms: C9_15  and  C11_18 
REMARK       I    between atoms: C10_16  and  N4_21 
REMARK    9  A    between atoms: C11_18  and  C12_19 
REMARK   10  A    between atoms: C11_18  and  C13_20 
REMARK   11  A    between atoms: N4_21  and  C14_22 
REMARK   12  A    between atoms: C14_22  and  C15_23 
REMARK   13  A    between atoms: C14_22  and  C16_25 
REMARK       I    between atoms: C15_23  and  N6_40 
REMARK   14  A    between atoms: C16_25  and  C17_26 
REMARK   15  A    between atoms: C17_26  and  C18_27 
REMARK   16  A    between atoms: C17_26  and  C19_28 
REMARK   17  A    between atoms: C20_29  and  C21_30 
REMARK   18  A    between atoms: C20_29  and  C24_33 
REMARK   19  A    between atoms: C20_29  and  N6_40 
REMARK   20  A    between atoms: C21_30  and  C22_31 
REMARK   21  A    between atoms: C22_31  and  C23_32 
REMARK   22  A    between atoms: C23_32  and  O8_43 
REMARK   23  A    between atoms: C24_33  and  C25_34 
REMARK   24  A    between atoms: C28_38  and  O6_39 
REMARK   25  A    between atoms: C29_42  and  O8_43 
REMARK   26  A    between atoms: C29_42  and  C35_49 
ROOT
ATOM      1  C14 non d ame     -10.620   9.463  69.189  0.00  0.00     0.089 C 
ATOM      2  H20 non d ame     -11.247   8.575  69.102  0.00  0.00     0.087 H 
ENDROOT
BRANCH   1   3
ATOM      3  N4  non d ame      -9.645   9.417  68.110  0.00  0.00    -0.346 N 
ATOM      4  C10 non d ame      -9.827   8.461  66.958  0.00  0.00     0.241 C 
ATOM      5  O4  non d ame     -10.766   7.735  66.924  0.00  0.00    -0.271 OA
ATOM      6  H19 non d ame      -8.852  10.042  68.159  0.00  0.00     0.163 HD
BRANCH   4   7
ATOM      7  C9  non d ame      -8.812   8.431  65.847  0.00  0.00     0.092 C 
ATOM      8  H11 non d ame      -9.235   8.907  64.962  0.00  0.00     0.088 H 
BRANCH   7   9
ATOM      9  N3  non d ame      -7.635   9.214  66.238  0.00  0.00    -0.346 N 
ATOM     10  C7  non d ame      -6.973  10.053  65.270  0.00  0.00     0.240 C 
ATOM     11  O3  non d ame      -7.373  10.110  64.171  0.00  0.00    -0.271 OA
ATOM     12  H10 non d ame      -7.278   9.174  67.182  0.00  0.00     0.163 HD
BRANCH  10  13
ATOM     13  C6  non d ame      -5.720  10.881  65.692  0.00  0.00     0.086 C 
ATOM     14  H6  non d ame      -5.739  11.900  65.307  0.00  0.00     0.086 H 
BRANCH  13  15
ATOM     15  N2  non d ame      -5.688  10.983  67.141  0.00  0.00    -0.343 N 
ATOM     16  C5  non d ame      -5.666  12.305  67.771  0.00  0.00     0.273 C 
ATOM     17  O2  non d ame      -5.670  13.280  67.102  0.00  0.00    -0.266 OA
ATOM     18  H5  non d ame      -5.682  10.145  67.705  0.00  0.00     0.163 HD
BRANCH  16  19
ATOM     19  C4  non d ame      -5.634  12.428  69.302  0.00  0.00     0.154 A 
ATOM     20  C1  non d ame      -5.303  13.590  70.070  0.00  0.00    -0.017 A 
ATOM     21  C2  non d ame      -5.424  13.182  71.417  0.00  0.00     0.077 A 
ATOM     22  H1  non d ame      -5.019  14.577  69.705  0.00  0.00     0.091 H 
ATOM     23  O1  non d ame      -5.784  11.932  71.412  0.00  0.00    -0.218 OA
ATOM     24  N1  non d ame      -5.912  11.470  70.190  0.00  0.00    -0.123 NA
BRANCH  21  25
ATOM     25  C3  non d ame      -5.179  14.047  72.646  0.00  0.00    -0.029 C 
ATOM     26  H2  non d ame      -5.685  13.608  73.506  0.00  0.00     0.036 H 
ATOM     27  H3  non d ame      -4.108  14.102  72.843  0.00  0.00     0.036 H 
ATOM     28  H4  non d ame      -5.568  15.050  72.468  0.00  0.00     0.036 H 
ENDBRANCH  21  25
ENDBRANCH  16  19
ENDBRANCH  13  15
BRANCH  13  29
ATOM     29  C8  non d ame      -4.472  10.196  65.195  0.00  0.00    -0.049 C 
ATOM     30  H7  non d ame      -4.033  10.781  64.387  0.00  0.00     0.030 H 
ATOM     31  H8  non d ame      -3.755  10.110  66.012  0.00  0.00     0.030 H 
ATOM     32  H9  non d ame      -4.725   9.202  64.827  0.00  0.00     0.030 H 
ENDBRANCH  13  29
ENDBRANCH  10  13
ENDBRANCH   7   9
BRANCH   7  33
ATOM     33  C11 non d ame      -8.385   6.959  65.573  0.00  0.00    -0.033 C 
ATOM     34  H12 non d ame      -9.232   6.320  65.822  0.00  0.00     0.042 H 
BRANCH  33  35
ATOM     35  C12 non d ame      -8.055   6.734  64.064  0.00  0.00    -0.071 C 
ATOM     36  H13 non d ame      -8.956   6.418  63.538  0.00  0.00     0.028 H 
ATOM     37  H14 non d ame      -7.689   7.665  63.630  0.00  0.00     0.028 H 
ATOM     38  H15 non d ame      -7.290   5.964  63.971  0.00  0.00     0.028 H 
ENDBRANCH  33  35
BRANCH  33  39
ATOM     39  C13 non d ame      -7.184   6.547  66.483  0.00  0.00    -0.071 C 
ATOM     40  H16 non d ame      -7.093   7.254  67.307  0.00  0.00     0.028 H 
ATOM     41  H17 non d ame      -7.356   5.546  66.880  0.00  0.00     0.028 H 
ATOM     42  H18 non d ame      -6.265   6.552  65.896  0.00  0.00     0.028 H 
ENDBRANCH  33  39
ENDBRANCH   7  33
ENDBRANCH   4   7
ENDBRANCH   1   3
BRANCH   1  43
ATOM     43  C15 non d ame     -11.441  10.778  69.061  0.00  0.00     0.240 C 
ATOM     44  O5  non d ame     -12.063  10.991  68.071  0.00  0.00    -0.271 OA
ATOM     45  N6  non d ame     -11.458  11.767  70.175  0.00  0.00    -0.355 N 
ATOM     46  H46 non d ame     -10.937  11.595  71.023  0.00  0.00     0.162 HD
BRANCH  45  47
ATOM     47  C20 non d ame     -12.245  13.012  70.038  0.00  0.00     0.013 C 
ATOM     48  H30 non d ame     -13.046  12.825  69.324  0.00  0.00     0.072 H 
BRANCH  47  49
ATOM     49  C21 non d ame     -11.347  14.117  69.529  0.00  0.00    -0.038 C 
ATOM     50  H31 non d ame     -11.349  14.880  70.308  0.00  0.00     0.036 H 
ATOM     51  H32 non d ame     -10.413  13.630  69.245  0.00  0.00     0.036 H 
BRANCH  49  52
ATOM     52  C22 non d ame     -11.893  14.793  68.253  0.00  0.00     0.018 C 
ATOM     53  H33 non d ame     -11.879  14.023  67.482  0.00  0.00     0.048 H 
ATOM     54  H34 non d ame     -12.836  15.256  68.545  0.00  0.00     0.048 H 
BRANCH  52  55
ATOM     55  C23 non d ame     -10.996  15.946  67.723  0.00  0.00     0.259 C 
ATOM     56  O7  non d ame     -11.073  17.035  68.193  0.00  0.00    -0.265 OA
BRANCH  55  57
ATOM     57  O8  non d ame     -10.089  15.690  66.657  0.00  0.00    -0.317 OA
BRANCH  57  58
ATOM     58  C29 non d ame     -10.704  15.650  65.366  0.00  0.00     0.052 C 
ATOM     59  H47 non d ame     -11.692  16.091  65.496  0.00  0.00     0.082 H 
ATOM     60  H48 non d ame      -9.988  16.108  64.684  0.00  0.00     0.082 H 
BRANCH  58  61
ATOM     61  C35 non d ame     -10.879  14.161  64.965  0.00  0.00    -0.034 A 
ATOM     62  C30 non d ame     -11.850  13.799  64.037  0.00  0.00    -0.075 A 
ATOM     63  C31 non d ame     -12.008  12.462  63.677  0.00  0.00    -0.082 A 
ATOM     64  H49 non d ame     -12.487  14.564  63.591  0.00  0.00     0.084 H 
ATOM     65  C32 non d ame     -11.192  11.484  64.251  0.00  0.00    -0.083 A 
ATOM     66  H50 non d ame     -12.768  12.182  62.947  0.00  0.00     0.083 H 
ATOM     67  C33 non d ame     -10.227  11.849  65.180  0.00  0.00    -0.082 A 
ATOM     68  H51 non d ame     -11.309  10.436  63.975  0.00  0.00     0.083 H 
ATOM     69  C34 non d ame     -10.064  13.185  65.541  0.00  0.00    -0.075 A 
ATOM     70  H52 non d ame      -9.594  11.083  65.628  0.00  0.00     0.083 H 
ATOM     71  H53 non d ame      -9.303  13.464  66.270  0.00  0.00     0.084 H 
ENDBRANCH  58  61
ENDBRANCH  57  58
ENDBRANCH  55  57
ENDBRANCH  52  55
ENDBRANCH  49  52
ENDBRANCH  47  49
BRANCH  47  72
ATOM     72  C24 non d ame     -12.824  13.409  71.394  0.00  0.00    -0.039 C 
ATOM     73  H35 non d ame     -13.874  13.118  71.358  0.00  0.00     0.036 H 
ATOM     74  H36 non d ame     -12.160  12.963  72.135  0.00  0.00     0.036 H 
BRANCH  72  75
ATOM     75  C25 non d ame     -12.780  14.995  71.616  0.00  0.00    -0.001 C 
ATOM     76  C26 non d ame     -11.880  15.350  72.945  0.00  0.00    -0.035 C 
ATOM     77  C27 non d ame     -12.597  16.169  73.752  0.00  0.00     0.085 C 
ATOM     78  H38 non d ame     -11.738  14.456  73.551  0.00  0.00     0.036 H 
ATOM     79  H39 non d ame     -11.021  15.959  72.663  0.00  0.00     0.036 H 
ATOM     80  N5  non d ame     -14.022  16.141  73.255  0.00  0.00    -0.049 N 
ATOM     81  H40 non d ame     -12.557  15.711  74.742  0.00  0.00     0.075 H 
ATOM     82  H41 non d ame     -12.186  17.165  73.595  0.00  0.00     0.075 H 
ATOM     83  C28 non d ame     -13.967  15.476  71.785  0.00  0.00     0.193 C 
ATOM     84  H42 non d ame     -14.528  15.519  73.870  0.00  0.00     0.280 HD
ATOM     85  H43 non d ame     -14.312  17.104  73.162  0.00  0.00     0.280 HD
ATOM     86  H44 non d ame     -14.058  16.097  70.893  0.00  0.00     0.129 H 
ATOM     87  H37 non d ame     -12.544  15.534  70.698  0.00  0.00     0.046 H 
BRANCH  83  88
ATOM     88  O6  non d ame     -14.978  14.475  71.658  0.00  0.00    -0.369 OA
ATOM     89  H45 non d ame     -15.633  14.593  72.349  0.00  0.00     0.212 HD
ENDBRANCH  83  88
ENDBRANCH  72  75
ENDBRANCH  47  72
ENDBRANCH  45  47
ENDBRANCH   1  43
BRANCH   1  90
ATOM     90  C16 non d ame      -9.886   9.446  70.521  0.00  0.00    -0.035 C 
ATOM     91  H21 non d ame      -8.849   9.213  70.277  0.00  0.00     0.037 H 
ATOM     92  H22 non d ame     -10.133  10.395  70.998  0.00  0.00     0.037 H 
BRANCH  90  93
ATOM     93  C17 non d ame     -10.374   8.324  71.491  0.00  0.00    -0.059 C 
ATOM     94  H23 non d ame     -10.409   7.392  70.927  0.00  0.00     0.038 H 
BRANCH  93  95
ATOM     95  C18 non d ame      -9.397   8.117  72.692  0.00  0.00    -0.073 C 
ATOM     96  H24 non d ame      -9.669   7.210  73.230  0.00  0.00     0.028 H 
ATOM     97  H25 non d ame      -8.376   8.026  72.319  0.00  0.00     0.028 H 
ATOM     98  H26 non d ame      -9.462   8.973  73.365  0.00  0.00     0.028 H 
ENDBRANCH  93  95
BRANCH  93  99
ATOM     99  C19 non d ame     -11.794   8.609  71.987  0.00  0.00    -0.073 C 
ATOM    100  H27 non d ame     -11.879   9.661  72.261  0.00  0.00     0.028 H 
ATOM    101  H28 non d ame     -12.508   8.380  71.195  0.00  0.00     0.028 H 
ATOM    102  H29 non d ame     -12.006   7.989  72.857  0.00  0.00     0.028 H 
ENDBRANCH  93  99
ENDBRANCH  90  93
ENDBRANCH   1  90
TORSDOF 26
ENDMDL
MODEL 6
REMARK VINA RESULT:      -6.3      2.143      5.480
REMARK  26 active torsions:
REMARK  status: ('A' for Active; 'I' for Inactive)
REMARK    1  A    between atoms: C2_2  and  C3_3 
REMARK    2  A    between atoms: C4_6  and  C5_7 
REMARK       I    between atoms: C5_7  and  N2_9 
REMARK    3  A    between atoms: N2_9  and  C6_10 
REMARK    4  A    between atoms: C6_10  and  C7_11 
REMARK    5  A    between atoms: C6_10  and  C8_13 
REMARK       I    between atoms: C7_11  and  N3_14 
REMARK    6  A    between atoms: N3_14  and  C9_15 
REMARK    7  A    between atoms: C9_15  and  C10_16 
REMARK    8  A    between atoms: C9_15  and  C11_18 
REMARK       I    between atoms: C10_16  and  N4_21 
REMARK    9  A    between atoms: C11_18  and  C12_19 
REMARK   10  A    between atoms: C11_18  and  C13_20 
REMARK   11  A    between atoms: N4_21  and  C14_22 
REMARK   12  A    between atoms: C14_22  and  C15_23 
REMARK   13  A    between atoms: C14_22  and  C16_25 
REMARK       I    between atoms: C15_23  and  N6_40 
REMARK   14  A    between atoms: C16_25  and  C17_26 
REMARK   15  A    between atoms: C17_26  and  C18_27 
REMARK   16  A    between atoms: C17_26  and  C19_28 
REMARK   17  A    between atoms: C20_29  and  C21_30 
REMARK   18  A    between atoms: C20_29  and  C24_33 
REMARK   19  A    between atoms: C20_29  and  N6_40 
REMARK   20  A    between atoms: C21_30  and  C22_31 
REMARK   21  A    between atoms: C22_31  and  C23_32 
REMARK   22  A    between atoms: C23_32  and  O8_43 
REMARK   23  A    between atoms: C24_33  and  C25_34 
REMARK   24  A    between atoms: C28_38  and  O6_39 
REMARK   25  A    between atoms: C29_42  and  O8_43 
REMARK   26  A    between atoms: C29_42  and  C35_49 
ROOT
ATOM      1  C14 non d ame      -8.067   9.234  67.012  0.00  0.00     0.089 C 
ATOM      2  H20 non d ame      -8.069   8.734  66.043  0.00  0.00     0.087 H 
ENDROOT
BRANCH   1   3
ATOM      3  N4  non d ame      -9.117  10.241  66.988  0.00  0.00    -0.346 N 
ATOM      4  C10 non d ame      -9.838  10.559  65.703  0.00  0.00     0.241 C 
ATOM      5  O4  non d ame      -9.554   9.994  64.699  0.00  0.00    -0.271 OA
ATOM      6  H19 non d ame      -9.343  10.713  67.853  0.00  0.00     0.163 HD
BRANCH   4   7
ATOM      7  C9  non d ame     -10.927  11.601  65.698  0.00  0.00     0.092 C 
ATOM      8  H11 non d ame     -11.881  11.122  65.917  0.00  0.00     0.088 H 
BRANCH   7   9
ATOM      9  N3  non d ame     -10.675  12.576  66.763  0.00  0.00    -0.346 N 
ATOM     10  C7  non d ame     -11.425  12.508  67.993  0.00  0.00     0.240 C 
ATOM     11  O3  non d ame     -12.235  11.676  68.143  0.00  0.00    -0.271 OA
ATOM     12  H10 non d ame      -9.981  13.301  66.648  0.00  0.00     0.163 HD
BRANCH  10  13
ATOM     13  C6  non d ame     -11.155  13.551  69.122  0.00  0.00     0.086 C 
ATOM     14  H6  non d ame     -10.219  13.369  69.650  0.00  0.00     0.086 H 
BRANCH  13  15
ATOM     15  N2  non d ame     -11.045  14.873  68.527  0.00  0.00    -0.343 N 
ATOM     16  C5  non d ame      -9.906  15.726  68.870  0.00  0.00     0.273 C 
ATOM     17  O2  non d ame      -9.085  15.342  69.629  0.00  0.00    -0.266 OA
ATOM     18  H5  non d ame     -11.753  15.194  67.881  0.00  0.00     0.163 HD
BRANCH  16  19
ATOM     19  C4  non d ame      -9.777  17.125  68.247  0.00  0.00     0.154 A 
ATOM     20  C1  non d ame      -8.576  17.770  67.811  0.00  0.00    -0.017 A 
ATOM     21  C2  non d ame      -8.996  19.026  67.320  0.00  0.00     0.077 A 
ATOM     22  H1  non d ame      -7.557  17.385  67.845  0.00  0.00     0.091 H 
ATOM     23  O1  non d ame     -10.288  19.086  67.462  0.00  0.00    -0.218 OA
ATOM     24  N1  non d ame     -10.766  17.988  68.001  0.00  0.00    -0.123 NA
BRANCH  21  25
ATOM     25  C3  non d ame      -8.100  20.110  66.734  0.00  0.00    -0.029 C 
ATOM     26  H2  non d ame      -8.471  20.394  65.749  0.00  0.00     0.036 H 
ATOM     27  H3  non d ame      -8.106  20.980  67.390  0.00  0.00     0.036 H 
ATOM     28  H4  non d ame      -7.082  19.731  66.643  0.00  0.00     0.036 H 
ENDBRANCH  21  25
ENDBRANCH  16  19
ENDBRANCH  13  15
BRANCH  13  29
ATOM     29  C8  non d ame     -12.288  13.525  70.116  0.00  0.00    -0.049 C 
ATOM     30  H7  non d ame     -13.065  12.845  69.764  0.00  0.00     0.030 H 
ATOM     31  H8  non d ame     -11.917  13.183  71.082  0.00  0.00     0.030 H 
ATOM     32  H9  non d ame     -12.704  14.527  70.219  0.00  0.00     0.030 H 
ENDBRANCH  13  29
ENDBRANCH  10  13
ENDBRANCH   7   9
BRANCH   7  33
ATOM     33  C11 non d ame     -10.940  12.330  64.323  0.00  0.00    -0.033 C 
ATOM     34  H12 non d ame     -10.089  11.964  63.748  0.00  0.00     0.042 H 
BRANCH  33  35
ATOM     35  C12 non d ame     -12.232  11.996  63.514  0.00  0.00    -0.071 C 
ATOM     36  H13 non d ame     -12.987  12.759  63.703  0.00  0.00     0.028 H 
ATOM     37  H14 non d ame     -11.998  11.972  62.450  0.00  0.00     0.028 H 
ATOM     38  H15 non d ame     -12.613  11.023  63.825  0.00  0.00     0.028 H 
ENDBRANCH  33  35
BRANCH  33  39
ATOM     39  C13 non d ame     -10.770  13.873  64.506  0.00  0.00    -0.071 C 
ATOM     40  H16 non d ame     -11.750  14.335  64.618  0.00  0.00     0.028 H 
ATOM     41  H17 non d ame     -10.172  14.069  65.396  0.00  0.00     0.028 H 
ATOM     42  H18 non d ame     -10.269  14.289  63.632  0.00  0.00     0.028 H 
ENDBRANCH  33  39
ENDBRANCH   7  33
ENDBRANCH   4   7
ENDBRANCH   1   3
BRANCH   1  43
ATOM     43  C15 non d ame      -8.352   8.249  68.182  0.00  0.00     0.240 C 
ATOM     44  O5  non d ame      -7.522   7.463  68.508  0.00  0.00    -0.271 OA
ATOM     45  N6  non d ame      -9.656   8.292  68.902  0.00  0.00    -0.355 N 
ATOM     46  H46 non d ame     -10.367   8.959  68.638  0.00  0.00     0.162 HD
BRANCH  45  47
ATOM     47  C20 non d ame      -9.911   7.350  70.013  0.00  0.00     0.013 C 
ATOM     48  H30 non d ame      -8.965   6.876  70.275  0.00  0.00     0.072 H 
BRANCH  47  49
ATOM     49  C21 non d ame     -10.905   6.304  69.563  0.00  0.00    -0.038 C 
ATOM     50  H31 non d ame     -11.194   5.763  70.465  0.00  0.00     0.036 H 
ATOM     51  H32 non d ame     -11.657   6.842  68.986  0.00  0.00     0.036 H 
BRANCH  49  52
ATOM     52  C22 non d ame     -10.286   5.260  68.608  0.00  0.00     0.018 C 
ATOM     53  H33 non d ame      -9.215   5.275  68.809  0.00  0.00     0.048 H 
ATOM     54  H34 non d ame     -10.857   4.343  68.763  0.00  0.00     0.048 H 
BRANCH  52  55
ATOM     55  C23 non d ame     -10.446   5.615  67.104  0.00  0.00     0.259 C 
ATOM     56  O7  non d ame     -11.231   6.438  66.758  0.00  0.00    -0.265 OA
BRANCH  55  57
ATOM     57  O8  non d ame      -9.651   4.936  66.139  0.00  0.00    -0.317 OA
BRANCH  57  58
ATOM     58  C29 non d ame      -8.287   4.756  66.531  0.00  0.00     0.052 C 
ATOM     59  H47 non d ame      -8.122   5.452  67.353  0.00  0.00     0.082 H 
ATOM     60  H48 non d ame      -8.165   3.685  66.692  0.00  0.00     0.082 H 
BRANCH  58  61
ATOM     61  C35 non d ame      -7.387   5.179  65.340  0.00  0.00    -0.034 A 
ATOM     62  C30 non d ame      -7.964   5.594  64.144  0.00  0.00    -0.075 A 
ATOM     63  C31 non d ame      -7.155   5.975  63.074  0.00  0.00    -0.082 A 
ATOM     64  H49 non d ame      -9.049   5.622  64.045  0.00  0.00     0.084 H 
ATOM     65  C32 non d ame      -5.764   5.936  63.202  0.00  0.00    -0.083 A 
ATOM     66  H50 non d ame      -7.610   6.301  62.139  0.00  0.00     0.083 H 
ATOM     67  C33 non d ame      -5.193   5.519  64.397  0.00  0.00    -0.082 A 
ATOM     68  H51 non d ame      -5.125   6.233  62.371  0.00  0.00     0.083 H 
ATOM     69  C34 non d ame      -5.997   5.140  65.470  0.00  0.00    -0.075 A 
ATOM     70  H52 non d ame      -4.108   5.488  64.493  0.00  0.00     0.083 H 
ATOM     71  H53 non d ame      -5.542   4.814  66.405  0.00  0.00     0.084 H 
ENDBRANCH  58  61
ENDBRANCH  57  58
ENDBRANCH  55  57
ENDBRANCH  52  55
ENDBRANCH  49  52
ENDBRANCH  47  49
BRANCH  47  72
ATOM     72  C24 non d ame     -10.475   8.107  71.214  0.00  0.00    -0.039 C 
ATOM     73  H35 non d ame     -10.350   7.436  72.064  0.00  0.00     0.036 H 
ATOM     74  H36 non d ame      -9.976   9.076  71.206  0.00  0.00     0.036 H 
BRANCH  72  75
ATOM     75  C25 non d ame     -12.045   8.382  71.056  0.00  0.00    -0.001 C 
ATOM     76  C26 non d ame     -12.327  10.001  70.999  0.00  0.00    -0.035 C 
ATOM     77  C27 non d ame     -13.285  10.309  71.906  0.00  0.00     0.085 C 
ATOM     78  H38 non d ame     -11.453  10.545  71.356  0.00  0.00     0.036 H 
ATOM     79  H39 non d ame     -12.784  10.268  70.046  0.00  0.00     0.036 H 
ATOM     80  N5  non d ame     -13.448   9.106  72.802  0.00  0.00    -0.049 N 
ATOM     81  H40 non d ame     -12.877  11.135  72.491  0.00  0.00     0.075 H 
ATOM     82  H41 non d ame     -14.198  10.449  71.329  0.00  0.00     0.075 H 
ATOM     83  C28 non d ame     -12.709   7.886  72.046  0.00  0.00     0.193 C 
ATOM     84  H42 non d ame     -12.942   9.311  73.652  0.00  0.00     0.280 HD
ATOM     85  H43 non d ame     -14.438   8.908  72.839  0.00  0.00     0.280 HD
ATOM     86  H44 non d ame     -13.290   7.120  71.532  0.00  0.00     0.129 H 
ATOM     87  H37 non d ame     -12.495   7.773  70.271  0.00  0.00     0.046 H 
BRANCH  83  88
ATOM     88  O6  non d ame     -11.867   7.178  72.958  0.00  0.00    -0.369 OA
ATOM     89  H45 non d ame     -12.250   7.211  73.838  0.00  0.00     0.212 HD
ENDBRANCH  83  88
ENDBRANCH  72  75
ENDBRANCH  47  72
ENDBRANCH  45  47
ENDBRANCH   1  43
BRANCH   1  90
ATOM     90  C16 non d ame      -6.728   9.919  67.235  0.00  0.00    -0.035 C 
ATOM     91  H21 non d ame      -6.922  10.983  67.099  0.00  0.00     0.037 H 
ATOM     92  H22 non d ame      -6.371   9.549  68.196  0.00  0.00     0.037 H 
BRANCH  90  93
ATOM     93  C17 non d ame      -5.642   9.530  66.181  0.00  0.00    -0.059 C 
ATOM     94  H23 non d ame      -5.031  10.413  65.996  0.00  0.00     0.038 H 
BRANCH  93  95
ATOM     95  C18 non d ame      -4.699   8.397  66.697  0.00  0.00    -0.073 C 
ATOM     96  H24 non d ame      -4.819   8.288  67.775  0.00  0.00     0.028 H 
ATOM     97  H25 non d ame      -4.957   7.458  66.206  0.00  0.00     0.028 H 
ATOM     98  H26 non d ame      -3.664   8.654  66.470  0.00  0.00     0.028 H 
ENDBRANCH  93  95
BRANCH  93  99
ATOM     99  C19 non d ame      -6.289   9.137  64.850  0.00  0.00    -0.073 C 
ATOM    100  H27 non d ame      -6.821   9.995  64.437  0.00  0.00     0.028 H 
ATOM    101  H28 non d ame      -5.515   8.818  64.151  0.00  0.00     0.028 H 
ATOM    102  H29 non d ame      -6.990   8.319  65.014  0.00  0.00     0.028 H 
ENDBRANCH  93  99
ENDBRANCH  90  93
ENDBRANCH   1  90
TORSDOF 26
ENDMDL
MODEL 7
REMARK VINA RESULT:      -6.2      2.670      6.774
REMARK  26 active torsions:
REMARK  status: ('A' for Active; 'I' for Inactive)
REMARK    1  A    between atoms: C2_2  and  C3_3 
REMARK    2  A    between atoms: C4_6  and  C5_7 
REMARK       I    between atoms: C5_7  and  N2_9 
REMARK    3  A    between atoms: N2_9  and  C6_10 
REMARK    4  A    between atoms: C6_10  and  C7_11 
REMARK    5  A    between atoms: C6_10  and  C8_13 
REMARK       I    between atoms: C7_11  and  N3_14 
REMARK    6  A    between atoms: N3_14  and  C9_15 
REMARK    7  A    between atoms: C9_15  and  C10_16 
REMARK    8  A    between atoms: C9_15  and  C11_18 
REMARK       I    between atoms: C10_16  and  N4_21 
REMARK    9  A    between atoms: C11_18  and  C12_19 
REMARK   10  A    between atoms: C11_18  and  C13_20 
REMARK   11  A    between atoms: N4_21  and  C14_22 
REMARK   12  A    between atoms: C14_22  and  C15_23 
REMARK   13  A    between atoms: C14_22  and  C16_25 
REMARK       I    between atoms: C15_23  and  N6_40 
REMARK   14  A    between atoms: C16_25  and  C17_26 
REMARK   15  A    between atoms: C17_26  and  C18_27 
REMARK   16  A    between atoms: C17_26  and  C19_28 
REMARK   17  A    between atoms: C20_29  and  C21_30 
REMARK   18  A    between atoms: C20_29  and  C24_33 
REMARK   19  A    between atoms: C20_29  and  N6_40 
REMARK   20  A    between atoms: C21_30  and  C22_31 
REMARK   21  A    between atoms: C22_31  and  C23_32 
REMARK   22  A    between atoms: C23_32  and  O8_43 
REMARK   23  A    between atoms: C24_33  and  C25_34 
REMARK   24  A    between atoms: C28_38  and  O6_39 
REMARK   25  A    between atoms: C29_42  and  O8_43 
REMARK   26  A    between atoms: C29_42  and  C35_49 
ROOT
ATOM      1  C14 non d ame      -6.672  12.985  67.750  0.00  0.00     0.089 C 
ATOM      2  H20 non d ame      -5.997  12.940  66.895  0.00  0.00     0.087 H 
ENDROOT
BRANCH   1   3
ATOM      3  N4  non d ame      -7.015  14.383  67.964  0.00  0.00    -0.346 N 
ATOM      4  C10 non d ame      -6.016  15.469  67.654  0.00  0.00     0.241 C 
ATOM      5  O4  non d ame      -4.940  15.192  67.236  0.00  0.00    -0.271 OA
ATOM      6  H19 non d ame      -7.935  14.597  68.322  0.00  0.00     0.163 HD
BRANCH   4   7
ATOM      7  C9  non d ame      -6.390  16.911  67.876  0.00  0.00     0.092 C 
ATOM      8  H11 non d ame      -6.005  17.512  67.052  0.00  0.00     0.088 H 
BRANCH   7   9
ATOM      9  N3  non d ame      -7.849  17.045  67.865  0.00  0.00    -0.346 N 
ATOM     10  C7  non d ame      -8.530  17.413  66.648  0.00  0.00     0.240 C 
ATOM     11  O3  non d ame      -7.919  17.607  65.669  0.00  0.00    -0.271 OA
ATOM     12  H10 non d ame      -8.390  16.882  68.702  0.00  0.00     0.163 HD
BRANCH  10  13
ATOM     13  C6  non d ame     -10.084  17.557  66.643  0.00  0.00     0.086 C 
ATOM     14  H6  non d ame     -10.569  16.864  65.956  0.00  0.00     0.086 H 
BRANCH  13  15
ATOM     15  N2  non d ame     -10.590  17.250  67.971  0.00  0.00    -0.343 N 
ATOM     16  C5  non d ame     -11.240  15.960  68.214  0.00  0.00     0.273 C 
ATOM     17  O2  non d ame     -11.354  15.179  67.335  0.00  0.00    -0.266 OA
ATOM     18  H5  non d ame     -10.490  17.925  68.716  0.00  0.00     0.163 HD
BRANCH  16  19
ATOM     19  C4  non d ame     -11.778  15.621  69.613  0.00  0.00     0.154 A 
ATOM     20  C1  non d ame     -12.423  14.411  70.021  0.00  0.00    -0.017 A 
ATOM     21  C2  non d ame     -12.720  14.601  71.390  0.00  0.00     0.077 A 
ATOM     22  H1  non d ame     -12.642  13.530  69.418  0.00  0.00     0.091 H 
ATOM     23  O1  non d ame     -12.290  15.784  71.719  0.00  0.00    -0.218 OA
ATOM     24  N1  non d ame     -11.737  16.399  70.699  0.00  0.00    -0.123 NA
BRANCH  21  25
ATOM     25  C3  non d ame     -13.413  13.604  72.309  0.00  0.00    -0.029 C 
ATOM     26  H2  non d ame     -12.680  12.896  72.696  0.00  0.00     0.036 H 
ATOM     27  H3  non d ame     -13.877  14.137  73.138  0.00  0.00     0.036 H 
ATOM     28  H4  non d ame     -14.179  13.065  71.750  0.00  0.00     0.036 H 
ENDBRANCH  21  25
ENDBRANCH  16  19
ENDBRANCH  13  15
BRANCH  13  29
ATOM     29  C8  non d ame     -10.460  18.966  66.261  0.00  0.00    -0.049 C 
ATOM     30  H7  non d ame     -11.532  19.105  66.395  0.00  0.00     0.030 H 
ATOM     31  H8  non d ame      -9.920  19.671  66.893  0.00  0.00     0.030 H 
ATOM     32  H9  non d ame     -10.199  19.141  65.217  0.00  0.00     0.030 H 
ENDBRANCH  13  29
ENDBRANCH  10  13
ENDBRANCH   7   9
BRANCH   7  33
ATOM     33  C11 non d ame      -5.838  17.384  69.253  0.00  0.00    -0.033 C 
ATOM     34  H12 non d ame      -6.599  18.015  69.712  0.00  0.00     0.042 H 
BRANCH  33  35
ATOM     35  C12 non d ame      -5.589  16.177  70.210  0.00  0.00    -0.071 C 
ATOM     36  H13 non d ame      -4.527  16.115  70.448  0.00  0.00     0.028 H 
ATOM     37  H14 non d ame      -6.159  16.318  71.128  0.00  0.00     0.028 H 
ATOM     38  H15 non d ame      -5.907  15.255  69.723  0.00  0.00     0.028 H 
ENDBRANCH  33  35
BRANCH  33  39
ATOM     39  C13 non d ame      -4.544  18.240  69.073  0.00  0.00    -0.071 C 
ATOM     40  H16 non d ame      -3.668  17.604  69.189  0.00  0.00     0.028 H 
ATOM     41  H17 non d ame      -4.539  18.687  68.078  0.00  0.00     0.028 H 
ATOM     42  H18 non d ame      -4.523  19.029  69.825  0.00  0.00     0.028 H 
ENDBRANCH  33  39
ENDBRANCH   7  33
ENDBRANCH   4   7
ENDBRANCH   1   3
BRANCH   1  43
ATOM     43  C15 non d ame      -7.984  12.185  67.507  0.00  0.00     0.240 C 
ATOM     44  O5  non d ame      -8.999  12.549  68.005  0.00  0.00    -0.271 OA
ATOM     45  N6  non d ame      -7.975  10.969  66.644  0.00  0.00    -0.355 N 
ATOM     46  H46 non d ame      -7.120  10.653  66.211  0.00  0.00     0.162 HD
BRANCH  45  47
ATOM     47  C20 non d ame      -9.231  10.220  66.421  0.00  0.00     0.013 C 
ATOM     48  H30 non d ame      -9.983  10.616  67.103  0.00  0.00     0.072 H 
BRANCH  47  49
ATOM     49  C21 non d ame      -8.996   8.754  66.707  0.00  0.00    -0.038 C 
ATOM     50  H31 non d ame      -9.982   8.327  66.889  0.00  0.00     0.036 H 
ATOM     51  H32 non d ame      -8.387   8.387  65.880  0.00  0.00     0.036 H 
BRANCH  49  52
ATOM     52  C22 non d ame      -8.173   8.518  67.992  0.00  0.00     0.018 C 
ATOM     53  H33 non d ame      -7.220   8.104  67.662  0.00  0.00     0.048 H 
ATOM     54  H34 non d ame      -8.197   9.463  68.536  0.00  0.00     0.048 H 
BRANCH  52  55
ATOM     55  C23 non d ame      -8.793   7.460  68.947  0.00  0.00     0.259 C 
ATOM     56  O7  non d ame      -9.295   6.475  68.511  0.00  0.00    -0.265 OA
BRANCH  55  57
ATOM     57  O8  non d ame      -8.765   7.687  70.351  0.00  0.00    -0.317 OA
BRANCH  57  58
ATOM     58  C29 non d ame      -8.857   9.066  70.720  0.00  0.00     0.052 C 
ATOM     59  H47 non d ame      -8.400   9.138  71.707  0.00  0.00     0.082 H 
ATOM     60  H48 non d ame      -8.437   9.624  69.883  0.00  0.00     0.082 H 
BRANCH  58  61
ATOM     61  C35 non d ame     -10.360   9.428  70.847  0.00  0.00    -0.034 A 
ATOM     62  C30 non d ame     -11.147   8.810  71.814  0.00  0.00    -0.075 A 
ATOM     63  C31 non d ame     -12.497   9.136  71.928  0.00  0.00    -0.082 A 
ATOM     64  H49 non d ame     -10.704   8.072  72.483  0.00  0.00     0.084 H 
ATOM     65  C32 non d ame     -13.062  10.082  71.068  0.00  0.00    -0.083 A 
ATOM     66  H50 non d ame     -13.110   8.652  72.689  0.00  0.00     0.083 H 
ATOM     67  C33 non d ame     -12.275  10.693  70.102  0.00  0.00    -0.082 A 
ATOM     68  H51 non d ame     -14.117  10.342  71.151  0.00  0.00     0.083 H 
ATOM     69  C34 non d ame     -10.924  10.372  69.986  0.00  0.00    -0.075 A 
ATOM     70  H52 non d ame     -12.719  11.429  69.432  0.00  0.00     0.083 H 
ATOM     71  H53 non d ame     -10.311  10.858  69.226  0.00  0.00     0.084 H 
ENDBRANCH  58  61
ENDBRANCH  57  58
ENDBRANCH  55  57
ENDBRANCH  52  55
ENDBRANCH  49  52
ENDBRANCH  47  49
BRANCH  47  72
ATOM     72  C24 non d ame      -9.684  10.391  64.973  0.00  0.00    -0.039 C 
ATOM     73  H35 non d ame      -8.789  10.242  64.369  0.00  0.00     0.036 H 
ATOM     74  H36 non d ame     -10.538   9.723  64.855  0.00  0.00     0.036 H 
BRANCH  72  75
ATOM     75  C25 non d ame     -10.205  11.879  64.686  0.00  0.00    -0.001 C 
ATOM     76  C26 non d ame     -11.617  12.141  65.487  0.00  0.00    -0.035 C 
ATOM     77  C27 non d ame     -12.532  12.624  64.612  0.00  0.00     0.085 C 
ATOM     78  H38 non d ame     -12.047  11.192  65.807  0.00  0.00     0.036 H 
ATOM     79  H39 non d ame     -11.496  12.954  66.203  0.00  0.00     0.036 H 
ATOM     80  N5  non d ame     -11.974  12.407  63.226  0.00  0.00    -0.049 N 
ATOM     81  H40 non d ame     -13.417  12.000  64.740  0.00  0.00     0.075 H 
ATOM     82  H41 non d ame     -12.586  13.694  64.809  0.00  0.00     0.075 H 
ATOM     83  C28 non d ame     -10.408  12.068  63.425  0.00  0.00     0.193 C 
ATOM     84  H42 non d ame     -12.436  11.589  62.856  0.00  0.00     0.280 HD
ATOM     85  H43 non d ame     -12.052  13.292  62.744  0.00  0.00     0.280 HD
ATOM     86  H44 non d ame      -9.647  12.820  63.213  0.00  0.00     0.129 H 
ATOM     87  H37 non d ame      -9.418  12.623  64.812  0.00  0.00     0.046 H 
BRANCH  83  88
ATOM     88  O6  non d ame     -10.047  10.928  62.644  0.00  0.00    -0.369 OA
ATOM     89  H45 non d ame      -9.120  10.987  62.402  0.00  0.00     0.212 HD
ENDBRANCH  83  88
ENDBRANCH  72  75
ENDBRANCH  47  72
ENDBRANCH  45  47
ENDBRANCH   1  43
BRANCH   1  90
ATOM     90  C16 non d ame      -5.970  12.452  68.989  0.00  0.00    -0.035 C 
ATOM     91  H21 non d ame      -5.854  13.312  69.648  0.00  0.00     0.037 H 
ATOM     92  H22 non d ame      -6.564  11.596  69.311  0.00  0.00     0.037 H 
BRANCH  90  93
ATOM     93  C17 non d ame      -4.532  11.911  68.710  0.00  0.00    -0.059 C 
ATOM     94  H23 non d ame      -4.452  10.929  69.176  0.00  0.00     0.038 H 
BRANCH  93  95
ATOM     95  C18 non d ame      -4.253  11.737  67.183  0.00  0.00    -0.073 C 
ATOM     96  H24 non d ame      -4.696  12.570  66.636  0.00  0.00     0.028 H 
ATOM     97  H25 non d ame      -3.177  11.719  67.009  0.00  0.00     0.028 H 
ATOM     98  H26 non d ame      -4.693  10.801  66.837  0.00  0.00     0.028 H 
ENDBRANCH  93  95
BRANCH  93  99
ATOM     99  C19 non d ame      -3.475  12.810  69.358  0.00  0.00    -0.073 C 
ATOM    100  H27 non d ame      -3.954  13.703  69.759  0.00  0.00     0.028 H 
ATOM    101  H28 non d ame      -2.983  12.267  70.165  0.00  0.00     0.028 H 
ATOM    102  H29 non d ame      -2.736  13.098  68.611  0.00  0.00     0.028 H 
ENDBRANCH  93  99
ENDBRANCH  90  93
ENDBRANCH   1  90
TORSDOF 26
ENDMDL
MODEL 8
REMARK VINA RESULT:      -6.2      2.172      7.942
REMARK  26 active torsions:
REMARK  status: ('A' for Active; 'I' for Inactive)
REMARK    1  A    between atoms: C2_2  and  C3_3 
REMARK    2  A    between atoms: C4_6  and  C5_7 
REMARK       I    between atoms: C5_7  and  N2_9 
REMARK    3  A    between atoms: N2_9  and  C6_10 
REMARK    4  A    between atoms: C6_10  and  C7_11 
REMARK    5  A    between atoms: C6_10  and  C8_13 
REMARK       I    between atoms: C7_11  and  N3_14 
REMARK    6  A    between atoms: N3_14  and  C9_15 
REMARK    7  A    between atoms: C9_15  and  C10_16 
REMARK    8  A    between atoms: C9_15  and  C11_18 
REMARK       I    between atoms: C10_16  and  N4_21 
REMARK    9  A    between atoms: C11_18  and  C12_19 
REMARK   10  A    between atoms: C11_18  and  C13_20 
REMARK   11  A    between atoms: N4_21  and  C14_22 
REMARK   12  A    between atoms: C14_22  and  C15_23 
REMARK   13  A    between atoms: C14_22  and  C16_25 
REMARK       I    between atoms: C15_23  and  N6_40 
REMARK   14  A    between atoms: C16_25  and  C17_26 
REMARK   15  A    between atoms: C17_26  and  C18_27 
REMARK   16  A    between atoms: C17_26  and  C19_28 
REMARK   17  A    between atoms: C20_29  and  C21_30 
REMARK   18  A    between atoms: C20_29  and  C24_33 
REMARK   19  A    between atoms: C20_29  and  N6_40 
REMARK   20  A    between atoms: C21_30  and  C22_31 
REMARK   21  A    between atoms: C22_31  and  C23_32 
REMARK   22  A    between atoms: C23_32  and  O8_43 
REMARK   23  A    between atoms: C24_33  and  C25_34 
REMARK   24  A    between atoms: C28_38  and  O6_39 
REMARK   25  A    between atoms: C29_42  and  O8_43 
REMARK   26  A    between atoms: C29_42  and  C35_49 
ROOT
ATOM      1  C14 non d ame      -8.753   9.186  65.024  0.00  0.00     0.089 C 
ATOM      2  H20 non d ame      -7.769   9.535  65.341  0.00  0.00     0.087 H 
ENDROOT
BRANCH   1   3
ATOM      3  N4  non d ame      -8.813   7.755  65.282  0.00  0.00    -0.346 N 
ATOM      4  C10 non d ame      -7.560   6.989  65.622  0.00  0.00     0.241 C 
ATOM      5  O4  non d ame      -6.513   7.545  65.681  0.00  0.00    -0.271 OA
ATOM      6  H19 non d ame      -9.713   7.300  65.224  0.00  0.00     0.163 HD
BRANCH   4   7
ATOM      7  C9  non d ame      -7.642   5.509  65.891  0.00  0.00     0.092 C 
ATOM      8  H11 non d ame      -6.639   5.120  66.066  0.00  0.00     0.088 H 
BRANCH   7   9
ATOM      9  N3  non d ame      -8.417   5.276  67.113  0.00  0.00    -0.346 N 
ATOM     10  C7  non d ame      -7.782   4.690  68.268  0.00  0.00     0.240 C 
ATOM     11  O3  non d ame      -6.649   4.399  68.231  0.00  0.00    -0.271 OA
ATOM     12  H10 non d ame      -9.396   5.521  67.160  0.00  0.00     0.163 HD
BRANCH  10  13
ATOM     13  C6  non d ame      -8.613   4.442  69.566  0.00  0.00     0.086 C 
ATOM     14  H6  non d ame      -8.004   4.476  70.469  0.00  0.00     0.086 H 
BRANCH  13  15
ATOM     15  N2  non d ame      -9.609   5.492  69.695  0.00  0.00    -0.343 N 
ATOM     16  C5  non d ame      -9.678   6.272  70.933  0.00  0.00     0.273 C 
ATOM     17  O2  non d ame      -8.930   6.045  71.819  0.00  0.00    -0.266 OA
ATOM     18  H5  non d ame     -10.247   5.678  68.934  0.00  0.00     0.163 HD
BRANCH  16  19
ATOM     19  C4  non d ame     -10.725   7.386  71.084  0.00  0.00     0.154 A 
ATOM     20  C1  non d ame     -11.925   7.346  71.863  0.00  0.00    -0.017 A 
ATOM     21  C2  non d ame     -12.529   8.608  71.665  0.00  0.00     0.077 A 
ATOM     22  H1  non d ame     -12.300   6.527  72.477  0.00  0.00     0.091 H 
ATOM     23  O1  non d ame     -11.758   9.286  70.866  0.00  0.00    -0.218 OA
ATOM     24  N1  non d ame     -10.700   8.594  70.513  0.00  0.00    -0.123 NA
BRANCH  21  25
ATOM     25  C3  non d ame     -13.840   9.085  72.276  0.00  0.00    -0.029 C 
ATOM     26  H2  non d ame     -14.378   9.697  71.552  0.00  0.00     0.036 H 
ATOM     27  H3  non d ame     -14.449   8.223  72.548  0.00  0.00     0.036 H 
ATOM     28  H4  non d ame     -13.631   9.677  73.168  0.00  0.00     0.036 H 
ENDBRANCH  21  25
ENDBRANCH  16  19
ENDBRANCH  13  15
BRANCH  13  29
ATOM     29  C8  non d ame      -9.288   3.097  69.483  0.00  0.00    -0.049 C 
ATOM     30  H7  non d ame     -10.215   3.189  68.917  0.00  0.00     0.030 H 
ATOM     31  H8  non d ame      -8.627   2.388  68.986  0.00  0.00     0.030 H 
ATOM     32  H9  non d ame      -9.512   2.741  70.489  0.00  0.00     0.030 H 
ENDBRANCH  13  29
ENDBRANCH  10  13
ENDBRANCH   7   9
BRANCH   7  33
ATOM     33  C11 non d ame      -8.343   4.803  64.694  0.00  0.00    -0.033 C 
ATOM     34  H12 non d ame      -7.863   3.833  64.557  0.00  0.00     0.042 H 
BRANCH  33  35
ATOM     35  C12 non d ame      -9.852   4.541  64.992  0.00  0.00    -0.071 C 
ATOM     36  H13 non d ame     -10.465   5.116  64.297  0.00  0.00     0.028 H 
ATOM     37  H14 non d ame     -10.067   3.480  64.872  0.00  0.00     0.028 H 
ATOM     38  H15 non d ame     -10.078   4.845  66.014  0.00  0.00     0.028 H 
ENDBRANCH  33  35
BRANCH  33  39
ATOM     39  C13 non d ame      -8.160   5.622  63.376  0.00  0.00    -0.071 C 
ATOM     40  H16 non d ame      -8.554   5.051  62.535  0.00  0.00     0.028 H 
ATOM     41  H17 non d ame      -8.698   6.567  63.457  0.00  0.00     0.028 H 
ATOM     42  H18 non d ame      -7.100   5.820  63.216  0.00  0.00     0.028 H 
ENDBRANCH  33  39
ENDBRANCH   7  33
ENDBRANCH   4   7
ENDBRANCH   1   3
BRANCH   1  43
ATOM     43  C15 non d ame      -9.903   9.880  65.809  0.00  0.00     0.240 C 
ATOM     44  O5  non d ame     -10.510   9.270  66.629  0.00  0.00    -0.271 OA
ATOM     45  N6  non d ame     -10.241  11.308  65.545  0.00  0.00    -0.355 N 
ATOM     46  H46 non d ame      -9.729  11.837  64.855  0.00  0.00     0.162 HD
BRANCH  45  47
ATOM     47  C20 non d ame     -11.336  11.953  66.301  0.00  0.00     0.013 C 
ATOM     48  H30 non d ame     -12.014  11.171  66.643  0.00  0.00     0.072 H 
BRANCH  47  49
ATOM     49  C21 non d ame     -12.071  12.914  65.394  0.00  0.00    -0.038 C 
ATOM     50  H31 non d ame     -12.617  12.290  64.685  0.00  0.00     0.036 H 
ATOM     51  H32 non d ame     -12.613  13.588  66.057  0.00  0.00     0.036 H 
BRANCH  49  52
ATOM     52  C22 non d ame     -11.119  13.795  64.557  0.00  0.00     0.018 C 
ATOM     53  H33 non d ame     -10.202  13.877  65.142  0.00  0.00     0.048 H 
ATOM     54  H34 non d ame     -11.094  13.344  63.565  0.00  0.00     0.048 H 
BRANCH  52  55
ATOM     55  C23 non d ame     -11.628  15.249  64.354  0.00  0.00     0.259 C 
ATOM     56  O7  non d ame     -12.717  15.453  63.925  0.00  0.00    -0.265 OA
BRANCH  55  57
ATOM     57  O8  non d ame     -10.771  16.339  64.675  0.00  0.00    -0.317 OA
BRANCH  57  58
ATOM     58  C29 non d ame      -9.994  16.139  65.859  0.00  0.00     0.052 C 
ATOM     59  H47 non d ame     -10.602  15.510  66.509  0.00  0.00     0.082 H 
ATOM     60  H48 non d ame      -9.021  15.788  65.517  0.00  0.00     0.082 H 
BRANCH  58  61
ATOM     61  C35 non d ame      -9.804  17.517  66.546  0.00  0.00    -0.034 A 
ATOM     62  C30 non d ame      -8.949  17.641  67.637  0.00  0.00    -0.075 A 
ATOM     63  C31 non d ame      -8.779  18.879  68.254  0.00  0.00    -0.082 A 
ATOM     64  H49 non d ame      -8.412  16.767  68.007  0.00  0.00     0.084 H 
ATOM     65  C32 non d ame      -9.470  19.997  67.779  0.00  0.00    -0.083 A 
ATOM     66  H50 non d ame      -8.107  18.973  69.107  0.00  0.00     0.083 H 
ATOM     67  C33 non d ame     -10.325  19.868  66.692  0.00  0.00    -0.082 A 
ATOM     68  H51 non d ame      -9.342  20.968  68.255  0.00  0.00     0.083 H 
ATOM     69  C34 non d ame     -10.496  18.633  66.071  0.00  0.00    -0.075 A 
ATOM     70  H52 non d ame     -10.864  20.742  66.325  0.00  0.00     0.083 H 
ATOM     71  H53 non d ame     -11.168  18.540  65.217  0.00  0.00     0.084 H 
ENDBRANCH  58  61
ENDBRANCH  57  58
ENDBRANCH  55  57
ENDBRANCH  52  55
ENDBRANCH  49  52
ENDBRANCH  47  49
BRANCH  47  72
ATOM     72  C24 non d ame     -10.762  12.716  67.493  0.00  0.00    -0.039 C 
ATOM     73  H35 non d ame     -10.192  11.980  68.061  0.00  0.00     0.036 H 
ATOM     74  H36 non d ame     -10.258  13.583  67.067  0.00  0.00     0.036 H 
BRANCH  72  75
ATOM     75  C25 non d ame     -11.917  13.265  68.458  0.00  0.00    -0.001 C 
ATOM     76  C26 non d ame     -11.756  14.890  68.655  0.00  0.00    -0.035 C 
ATOM     77  C27 non d ame     -11.767  15.172  69.980  0.00  0.00     0.085 C 
ATOM     78  H38 non d ame     -10.764  15.209  68.335  0.00  0.00     0.036 H 
ATOM     79  H39 non d ame     -12.641  15.402  68.278  0.00  0.00     0.036 H 
ATOM     80  N5  non d ame     -11.591  13.863  70.711  0.00  0.00    -0.049 N 
ATOM     81  H40 non d ame     -10.889  15.796  70.152  0.00  0.00     0.075 H 
ATOM     82  H41 non d ame     -12.762  15.563  70.186  0.00  0.00     0.075 H 
ATOM     83  C28 non d ame     -11.862  12.705  69.619  0.00  0.00     0.193 C 
ATOM     84  H42 non d ame     -10.622  13.820  70.992  0.00  0.00     0.280 HD
ATOM     85  H43 non d ame     -12.322  13.824  71.408  0.00  0.00     0.280 HD
ATOM     86  H44 non d ame     -12.802  12.154  69.618  0.00  0.00     0.129 H 
ATOM     87  H37 non d ame     -12.902  12.895  68.174  0.00  0.00     0.046 H 
BRANCH  83  88
ATOM     88  O6  non d ame     -10.837  11.711  69.691  0.00  0.00    -0.369 OA
ATOM     89  H45 non d ame     -10.889  11.259  70.536  0.00  0.00     0.212 HD
ENDBRANCH  83  88
ENDBRANCH  72  75
ENDBRANCH  47  72
ENDBRANCH  45  47
ENDBRANCH   1  43
BRANCH   1  90
ATOM     90  C16 non d ame      -8.931   9.431  63.534  0.00  0.00    -0.035 C 
ATOM     91  H21 non d ame      -9.508   8.581  63.169  0.00  0.00     0.037 H 
ATOM     92  H22 non d ame      -9.337  10.439  63.454  0.00  0.00     0.037 H 
BRANCH  90  93
ATOM     93  C17 non d ame      -7.589   9.430  62.734  0.00  0.00    -0.059 C 
ATOM     94  H23 non d ame      -7.280   8.392  62.610  0.00  0.00     0.038 H 
BRANCH  93  95
ATOM     95  C18 non d ame      -7.752  10.053  61.311  0.00  0.00    -0.073 C 
ATOM     96  H24 non d ame      -7.525   9.300  60.557  0.00  0.00     0.028 H 
ATOM     97  H25 non d ame      -8.777  10.401  61.182  0.00  0.00     0.028 H 
ATOM     98  H26 non d ame      -7.066  10.894  61.203  0.00  0.00     0.028 H 
ENDBRANCH  93  95
BRANCH  93  99
ATOM     99  C19 non d ame      -6.485  10.143  63.519  0.00  0.00    -0.073 C 
ATOM    100  H27 non d ame      -6.401   9.701  64.512  0.00  0.00     0.028 H 
ATOM    101  H28 non d ame      -5.537  10.034  62.991  0.00  0.00     0.028 H 
ATOM    102  H29 non d ame      -6.729  11.201  63.611  0.00  0.00     0.028 H 
ENDBRANCH  93  99
ENDBRANCH  90  93
ENDBRANCH   1  90
TORSDOF 26
ENDMDL
MODEL 9
REMARK VINA RESULT:      -6.0      2.428      6.179
REMARK  26 active torsions:
REMARK  status: ('A' for Active; 'I' for Inactive)
REMARK    1  A    between atoms: C2_2  and  C3_3 
REMARK    2  A    between atoms: C4_6  and  C5_7 
REMARK       I    between atoms: C5_7  and  N2_9 
REMARK    3  A    between atoms: N2_9  and  C6_10 
REMARK    4  A    between atoms: C6_10  and  C7_11 
REMARK    5  A    between atoms: C6_10  and  C8_13 
REMARK       I    between atoms: C7_11  and  N3_14 
REMARK    6  A    between atoms: N3_14  and  C9_15 
REMARK    7  A    between atoms: C9_15  and  C10_16 
REMARK    8  A    between atoms: C9_15  and  C11_18 
REMARK       I    between atoms: C10_16  and  N4_21 
REMARK    9  A    between atoms: C11_18  and  C12_19 
REMARK   10  A    between atoms: C11_18  and  C13_20 
REMARK   11  A    between atoms: N4_21  and  C14_22 
REMARK   12  A    between atoms: C14_22  and  C15_23 
REMARK   13  A    between atoms: C14_22  and  C16_25 
REMARK       I    between atoms: C15_23  and  N6_40 
REMARK   14  A    between atoms: C16_25  and  C17_26 
REMARK   15  A    between atoms: C17_26  and  C18_27 
REMARK   16  A    between atoms: C17_26  and  C19_28 
REMARK   17  A    between atoms: C20_29  and  C21_30 
REMARK   18  A    between atoms: C20_29  and  C24_33 
REMARK   19  A    between atoms: C20_29  and  N6_40 
REMARK   20  A    between atoms: C21_30  and  C22_31 
REMARK   21  A    between atoms: C22_31  and  C23_32 
REMARK   22  A    between atoms: C23_32  and  O8_43 
REMARK   23  A    between atoms: C24_33  and  C25_34 
REMARK   24  A    between atoms: C28_38  and  O6_39 
REMARK   25  A    between atoms: C29_42  and  O8_43 
REMARK   26  A    between atoms: C29_42  and  C35_49 
ROOT
ATOM      1  C14 non d ame      -8.670   6.366  68.146  0.00  0.00     0.089 C 
ATOM      2  H20 non d ame      -9.270   5.503  67.856  0.00  0.00     0.087 H 
ENDROOT
BRANCH   1   3
ATOM      3  N4  non d ame      -7.557   6.460  67.213  0.00  0.00    -0.346 N 
ATOM      4  C10 non d ame      -7.134   5.257  66.408  0.00  0.00     0.241 C 
ATOM      5  O4  non d ame      -7.704   4.223  66.530  0.00  0.00    -0.271 OA
ATOM      6  H19 non d ame      -7.085   7.349  67.125  0.00  0.00     0.163 HD
BRANCH   4   7
ATOM      7  C9  non d ame      -5.984   5.374  65.443  0.00  0.00     0.092 C 
ATOM      8  H11 non d ame      -6.133   4.673  64.621  0.00  0.00     0.088 H 
BRANCH   7   9
ATOM      9  N3  non d ame      -5.965   6.721  64.865  0.00  0.00    -0.346 N 
ATOM     10  C7  non d ame      -5.589   6.908  63.485  0.00  0.00     0.240 C 
ATOM     11  O3  non d ame      -5.298   5.986  62.826  0.00  0.00    -0.271 OA
ATOM     12  H10 non d ame      -6.212   7.527  65.422  0.00  0.00     0.163 HD
BRANCH  10  13
ATOM     13  C6  non d ame      -5.568   8.345  62.877  0.00  0.00     0.086 C 
ATOM     14  H6  non d ame      -5.737   8.349  61.800  0.00  0.00     0.086 H 
BRANCH  13  15
ATOM     15  N2  non d ame      -6.643   9.124  63.470  0.00  0.00    -0.343 N 
ATOM     16  C5  non d ame      -7.901   9.291  62.739  0.00  0.00     0.273 C 
ATOM     17  O2  non d ame      -8.038   8.797  61.674  0.00  0.00    -0.266 OA
ATOM     18  H5  non d ame      -6.516   9.545  64.379  0.00  0.00     0.163 HD
BRANCH  16  19
ATOM     19  C4  non d ame      -9.046  10.110  63.354  0.00  0.00     0.154 A 
ATOM     20  C1  non d ame      -9.628  11.309  62.834  0.00  0.00    -0.017 A 
ATOM     21  C2  non d ame     -10.631  11.660  63.764  0.00  0.00     0.077 A 
ATOM     22  H1  non d ame      -9.362  11.843  61.921  0.00  0.00     0.091 H 
ATOM     23  O1  non d ame     -10.620  10.760  64.704  0.00  0.00    -0.218 OA
ATOM     24  N1  non d ame      -9.703   9.846  64.487  0.00  0.00    -0.123 NA
BRANCH  21  25
ATOM     25  C3  non d ame     -11.556  12.867  63.681  0.00  0.00    -0.029 C 
ATOM     26  H2  non d ame     -12.121  12.829  62.749  0.00  0.00     0.036 H 
ATOM     27  H3  non d ame     -12.246  12.855  64.525  0.00  0.00     0.036 H 
ATOM     28  H4  non d ame     -10.963  13.782  63.709  0.00  0.00     0.036 H 
ENDBRANCH  21  25
ENDBRANCH  16  19
ENDBRANCH  13  15
BRANCH  13  29
ATOM     29  C8  non d ame      -4.239   8.996  63.164  0.00  0.00    -0.049 C 
ATOM     30  H7  non d ame      -3.513   8.686  62.412  0.00  0.00     0.030 H 
ATOM     31  H8  non d ame      -4.352  10.080  63.136  0.00  0.00     0.030 H 
ATOM     32  H9  non d ame      -3.892   8.691  64.151  0.00  0.00     0.030 H 
ENDBRANCH  13  29
ENDBRANCH  10  13
ENDBRANCH   7   9
BRANCH   7  33
ATOM     33  C11 non d ame      -4.646   5.117  66.197  0.00  0.00    -0.033 C 
ATOM     34  H12 non d ame      -4.884   4.576  67.112  0.00  0.00     0.042 H 
BRANCH  33  35
ATOM     35  C12 non d ame      -3.684   4.221  65.358  0.00  0.00    -0.071 C 
ATOM     36  H13 non d ame      -4.256   3.677  64.606  0.00  0.00     0.028 H 
ATOM     37  H14 non d ame      -2.941   4.848  64.864  0.00  0.00     0.028 H 
ATOM     38  H15 non d ame      -3.182   3.512  66.016  0.00  0.00     0.028 H 
ENDBRANCH  33  35
BRANCH  33  39
ATOM     39  C13 non d ame      -3.962   6.464  66.597  0.00  0.00    -0.071 C 
ATOM     40  H16 non d ame      -2.892   6.304  66.725  0.00  0.00     0.028 H 
ATOM     41  H17 non d ame      -4.127   7.203  65.811  0.00  0.00     0.028 H 
ATOM     42  H18 non d ame      -4.391   6.826  67.531  0.00  0.00     0.028 H 
ENDBRANCH  33  39
ENDBRANCH   7  33
ENDBRANCH   4   7
ENDBRANCH   1   3
BRANCH   1  43
ATOM     43  C15 non d ame      -9.482   7.692  68.084  0.00  0.00     0.240 C 
ATOM     44  O5  non d ame     -10.242   7.879  67.190  0.00  0.00    -0.271 OA
ATOM     45  N6  non d ame      -9.318   8.725  69.146  0.00  0.00    -0.355 N 
ATOM     46  H46 non d ame      -8.679   8.576  69.914  0.00  0.00     0.162 HD
BRANCH  45  47
ATOM     47  C20 non d ame     -10.097   9.980  69.074  0.00  0.00     0.013 C 
ATOM     48  H30 non d ame     -10.796   9.893  68.242  0.00  0.00     0.072 H 
BRANCH  47  49
ATOM     49  C21 non d ame      -9.157  11.140  68.840  0.00  0.00    -0.038 C 
ATOM     50  H31 non d ame      -9.386  11.868  69.618  0.00  0.00     0.036 H 
ATOM     51  H32 non d ame      -8.160  10.703  68.778  0.00  0.00     0.036 H 
BRANCH  49  52
ATOM     52  C22 non d ame      -9.406  11.851  67.491  0.00  0.00     0.018 C 
ATOM     53  H33 non d ame      -8.420  12.128  67.117  0.00  0.00     0.048 H 
ATOM     54  H34 non d ame     -10.038  11.176  66.914  0.00  0.00     0.048 H 
BRANCH  52  55
ATOM     55  C23 non d ame     -10.204  13.178  67.621  0.00  0.00     0.259 C 
ATOM     56  O7  non d ame     -10.023  14.068  66.854  0.00  0.00    -0.265 OA
BRANCH  55  57
ATOM     57  O8  non d ame     -11.146  13.324  68.677  0.00  0.00    -0.317 OA
BRANCH  57  58
ATOM     58  C29 non d ame     -11.458  14.684  68.995  0.00  0.00     0.052 C 
ATOM     59  H47 non d ame     -10.504  15.211  69.000  0.00  0.00     0.082 H 
ATOM     60  H48 non d ame     -12.240  14.978  68.296  0.00  0.00     0.082 H 
BRANCH  58  61
ATOM     61  C35 non d ame     -12.045  14.717  70.431  0.00  0.00    -0.034 A 
ATOM     62  C30 non d ame     -12.781  13.637  70.908  0.00  0.00    -0.075 A 
ATOM     63  C31 non d ame     -13.309  13.666  72.198  0.00  0.00    -0.082 A 
ATOM     64  H49 non d ame     -12.943  12.767  70.271  0.00  0.00     0.084 H 
ATOM     65  C32 non d ame     -13.101  14.784  73.011  0.00  0.00    -0.083 A 
ATOM     66  H50 non d ame     -13.882  12.817  72.569  0.00  0.00     0.083 H 
ATOM     67  C33 non d ame     -12.369  15.860  72.530  0.00  0.00    -0.082 A 
ATOM     68  H51 non d ame     -13.509  14.815  74.021  0.00  0.00     0.083 H 
ATOM     69  C34 non d ame     -11.837  15.834  71.242  0.00  0.00    -0.075 A 
ATOM     70  H52 non d ame     -12.210  16.731  73.166  0.00  0.00     0.083 H 
ATOM     71  H53 non d ame     -11.263  16.683  70.871  0.00  0.00     0.084 H 
ENDBRANCH  58  61
ENDBRANCH  57  58
ENDBRANCH  55  57
ENDBRANCH  52  55
ENDBRANCH  49  52
ENDBRANCH  47  49
BRANCH  47  72
ATOM     72  C24 non d ame     -10.854  10.194  70.383  0.00  0.00    -0.039 C 
ATOM     73  H35 non d ame     -10.106  10.097  71.170  0.00  0.00     0.036 H 
ATOM     74  H36 non d ame     -11.393  11.133  70.257  0.00  0.00     0.036 H 
BRANCH  72  75
ATOM     75  C25 non d ame     -11.949   9.050  70.628  0.00  0.00    -0.001 C 
ATOM     76  C26 non d ame     -13.384   9.731  71.056  0.00  0.00    -0.035 C 
ATOM     77  C27 non d ame     -13.829   9.136  72.188  0.00  0.00     0.085 C 
ATOM     78  H38 non d ame     -13.231  10.767  71.355  0.00  0.00     0.036 H 
ATOM     79  H39 non d ame     -14.149   9.483  70.320  0.00  0.00     0.036 H 
ATOM     80  N5  non d ame     -12.676   8.342  72.752  0.00  0.00    -0.049 N 
ATOM     81  H40 non d ame     -14.067   9.952  72.872  0.00  0.00     0.075 H 
ATOM     82  H41 non d ame     -14.610   8.448  71.868  0.00  0.00     0.075 H 
ATOM     83  C28 non d ame     -11.582   8.245  71.569  0.00  0.00     0.193 C 
ATOM     84  H42 non d ame     -12.288   8.895  73.504  0.00  0.00     0.280 HD
ATOM     85  H43 non d ame     -13.030   7.415  72.939  0.00  0.00     0.280 HD
ATOM     86  H44 non d ame     -11.459   7.322  71.003  0.00  0.00     0.129 H 
ATOM     87  H37 non d ame     -11.969   8.318  69.821  0.00  0.00     0.046 H 
BRANCH  83  88
ATOM     88  O6  non d ame     -10.282   8.561  72.072  0.00  0.00    -0.369 OA
ATOM     89  H45 non d ame     -10.247   9.491  72.306  0.00  0.00     0.212 HD
ENDBRANCH  83  88
ENDBRANCH  72  75
ENDBRANCH  47  72
ENDBRANCH  45  47
ENDBRANCH   1  43
BRANCH   1  90
ATOM     90  C16 non d ame      -8.125   6.165  69.550  0.00  0.00    -0.035 C 
ATOM     91  H21 non d ame      -7.206   5.593  69.424  0.00  0.00     0.037 H 
ATOM     92  H22 non d ame      -8.090   7.162  69.991  0.00  0.00     0.037 H 
BRANCH  90  93
ATOM     93  C17 non d ame      -9.055   5.309  70.468  0.00  0.00    -0.059 C 
ATOM     94  H23 non d ame      -9.852   5.959  70.828  0.00  0.00     0.038 H 
BRANCH  93  95
ATOM     95  C18 non d ame      -9.719   4.126  69.693  0.00  0.00    -0.073 C 
ATOM     96  H24 non d ame      -8.962   3.606  69.107  0.00  0.00     0.028 H 
ATOM     97  H25 non d ame     -10.168   3.432  70.405  0.00  0.00     0.028 H 
ATOM     98  H26 non d ame     -10.491   4.514  69.029  0.00  0.00     0.028 H 
ENDBRANCH  93  95
BRANCH  93  99
ATOM     99  C19 non d ame      -8.294   4.799  71.694  0.00  0.00    -0.073 C 
ATOM    100  H27 non d ame      -7.294   5.233  71.708  0.00  0.00     0.028 H 
ATOM    101  H28 non d ame      -8.829   5.089  72.599  0.00  0.00     0.028 H 
ATOM    102  H29 non d ame      -8.219   3.713  71.649  0.00  0.00     0.028 H 
ENDBRANCH  93  99
ENDBRANCH  90  93
ENDBRANCH   1  90
TORSDOF 26
ENDMDL
MODEL 10
REMARK VINA RESULT:      -6.0      2.936      7.711
REMARK  26 active torsions:
REMARK  status: ('A' for Active; 'I' for Inactive)
REMARK    1  A    between atoms: C2_2  and  C3_3 
REMARK    2  A    between atoms: C4_6  and  C5_7 
REMARK       I    between atoms: C5_7  and  N2_9 
REMARK    3  A    between atoms: N2_9  and  C6_10 
REMARK    4  A    between atoms: C6_10  and  C7_11 
REMARK    5  A    between atoms: C6_10  and  C8_13 
REMARK       I    between atoms: C7_11  and  N3_14 
REMARK    6  A    between atoms: N3_14  and  C9_15 
REMARK    7  A    between atoms: C9_15  and  C10_16 
REMARK    8  A    between atoms: C9_15  and  C11_18 
REMARK       I    between atoms: C10_16  and  N4_21 
REMARK    9  A    between atoms: C11_18  and  C12_19 
REMARK   10  A    between atoms: C11_18  and  C13_20 
REMARK   11  A    between atoms: N4_21  and  C14_22 
REMARK   12  A    between atoms: C14_22  and  C15_23 
REMARK   13  A    between atoms: C14_22  and  C16_25 
REMARK       I    between atoms: C15_23  and  N6_40 
REMARK   14  A    between atoms: C16_25  and  C17_26 
REMARK   15  A    between atoms: C17_26  and  C18_27 
REMARK   16  A    between atoms: C17_26  and  C19_28 
REMARK   17  A    between atoms: C20_29  and  C21_30 
REMARK   18  A    between atoms: C20_29  and  C24_33 
REMARK   19  A    between atoms: C20_29  and  N6_40 
REMARK   20  A    between atoms: C21_30  and  C22_31 
REMARK   21  A    between atoms: C22_31  and  C23_32 
REMARK   22  A    between atoms: C23_32  and  O8_43 
REMARK   23  A    between atoms: C24_33  and  C25_34 
REMARK   24  A    between atoms: C28_38  and  O6_39 
REMARK   25  A    between atoms: C29_42  and  O8_43 
REMARK   26  A    between atoms: C29_42  and  C35_49 
ROOT
ATOM      1  C14 non d ame     -11.790  11.699  68.283  0.00  0.00     0.089 C 
ATOM      2  H20 non d ame     -12.779  11.373  68.607  0.00  0.00     0.087 H 
ENDROOT
BRANCH   1   3
ATOM      3  N4  non d ame     -11.506  12.962  68.948  0.00  0.00    -0.346 N 
ATOM      4  C10 non d ame     -12.041  13.232  70.332  0.00  0.00     0.241 C 
ATOM      5  O4  non d ame     -12.701  12.419  70.889  0.00  0.00    -0.271 OA
ATOM      6  H19 non d ame     -10.944  13.643  68.456  0.00  0.00     0.163 HD
BRANCH   4   7
ATOM      7  C9  non d ame     -11.732  14.543  71.007  0.00  0.00     0.092 C 
ATOM      8  H11 non d ame     -10.725  14.503  71.423  0.00  0.00     0.088 H 
BRANCH   7   9
ATOM      9  N3  non d ame     -11.749  15.621  70.014  0.00  0.00    -0.346 N 
ATOM     10  C7  non d ame     -10.512  16.086  69.435  0.00  0.00     0.240 C 
ATOM     11  O3  non d ame      -9.495  15.606  69.759  0.00  0.00    -0.271 OA
ATOM     12  H10 non d ame     -12.618  16.046  69.726  0.00  0.00     0.163 HD
BRANCH  10  13
ATOM     13  C6  non d ame     -10.536  17.236  68.381  0.00  0.00     0.086 C 
ATOM     14  H6  non d ame     -11.270  18.007  68.614  0.00  0.00     0.086 H 
BRANCH  13  15
ATOM     15  N2  non d ame      -9.238  17.889  68.366  0.00  0.00    -0.343 N 
ATOM     16  C5  non d ame      -9.159  19.333  68.135  0.00  0.00     0.273 C 
ATOM     17  O2  non d ame     -10.146  19.960  67.959  0.00  0.00    -0.266 OA
ATOM     18  H5  non d ame      -8.399  17.346  68.514  0.00  0.00     0.163 HD
BRANCH  16  19
ATOM     19  C4  non d ame      -7.793  20.037  68.118  0.00  0.00     0.154 A 
ATOM     20  C1  non d ame      -6.658  19.742  68.938  0.00  0.00    -0.017 A 
ATOM     21  C2  non d ame      -5.668  20.665  68.534  0.00  0.00     0.077 A 
ATOM     22  H1  non d ame      -6.567  18.976  69.708  0.00  0.00     0.091 H 
ATOM     23  O1  non d ame      -6.183  21.398  67.591  0.00  0.00    -0.218 OA
ATOM     24  N1  non d ame      -7.423  21.051  67.331  0.00  0.00    -0.123 NA
BRANCH  21  25
ATOM     25  C3  non d ame      -4.258  20.778  69.098  0.00  0.00    -0.029 C 
ATOM     26  H2  non d ame      -3.951  19.816  69.507  0.00  0.00     0.036 H 
ATOM     27  H3  non d ame      -3.572  21.071  68.303  0.00  0.00     0.036 H 
ATOM     28  H4  non d ame      -4.241  21.531  69.887  0.00  0.00     0.036 H 
ENDBRANCH  21  25
ENDBRANCH  16  19
ENDBRANCH  13  15
BRANCH  13  29
ATOM     29  C8  non d ame     -10.844  16.667  67.019  0.00  0.00    -0.049 C 
ATOM     30  H7  non d ame     -10.060  15.965  66.733  0.00  0.00     0.030 H 
ATOM     31  H8  non d ame     -11.802  16.149  67.050  0.00  0.00     0.030 H 
ATOM     32  H9  non d ame     -10.890  17.475  66.290  0.00  0.00     0.030 H 
ENDBRANCH  13  29
ENDBRANCH  10  13
ENDBRANCH   7   9
BRANCH   7  33
ATOM     33  C11 non d ame     -12.805  14.829  72.098  0.00  0.00    -0.033 C 
ATOM     34  H12 non d ame     -12.961  13.906  72.656  0.00  0.00     0.042 H 
BRANCH  33  35
ATOM     35  C12 non d ame     -12.312  15.911  73.109  0.00  0.00    -0.071 C 
ATOM     36  H13 non d ame     -12.830  15.782  74.060  0.00  0.00     0.028 H 
ATOM     37  H14 non d ame     -11.239  15.803  73.263  0.00  0.00     0.028 H 
ATOM     38  H15 non d ame     -12.524  16.903  72.711  0.00  0.00     0.028 H 
ENDBRANCH  33  35
BRANCH  33  39
ATOM     39  C13 non d ame     -14.166  15.238  71.450  0.00  0.00    -0.071 C 
ATOM     40  H16 non d ame     -14.179  16.314  71.277  0.00  0.00     0.028 H 
ATOM     41  H17 non d ame     -14.288  14.717  70.499  0.00  0.00     0.028 H 
ATOM     42  H18 non d ame     -14.983  14.968  72.119  0.00  0.00     0.028 H 
ENDBRANCH  33  39
ENDBRANCH   7  33
ENDBRANCH   4   7
ENDBRANCH   1   3
BRANCH   1  43
ATOM     43  C15 non d ame     -10.681  10.678  68.665  0.00  0.00     0.240 C 
ATOM     44  O5  non d ame      -9.622  11.067  69.038  0.00  0.00    -0.271 OA
ATOM     45  N6  non d ame     -10.942   9.213  68.572  0.00  0.00    -0.355 N 
ATOM     46  H46 non d ame     -11.839   8.870  68.261  0.00  0.00     0.162 HD
BRANCH  45  47
ATOM     47  C20 non d ame      -9.877   8.255  68.940  0.00  0.00     0.013 C 
ATOM     48  H30 non d ame      -9.212   8.748  69.648  0.00  0.00     0.072 H 
BRANCH  47  49
ATOM     49  C21 non d ame      -9.109   7.860  67.698  0.00  0.00    -0.038 C 
ATOM     50  H31 non d ame      -8.205   8.469  67.705  0.00  0.00     0.036 H 
ATOM     51  H32 non d ame      -9.035   6.773  67.732  0.00  0.00     0.036 H 
BRANCH  49  52
ATOM     52  C22 non d ame      -9.860   8.207  66.394  0.00  0.00     0.018 C 
ATOM     53  H33 non d ame      -9.855   7.293  65.799  0.00  0.00     0.048 H 
ATOM     54  H34 non d ame     -10.806   8.649  66.707  0.00  0.00     0.048 H 
BRANCH  52  55
ATOM     55  C23 non d ame      -9.149   9.285  65.530  0.00  0.00     0.259 C 
ATOM     56  O7  non d ame      -8.446  10.098  66.038  0.00  0.00    -0.265 OA
BRANCH  55  57
ATOM     57  O8  non d ame      -9.356   9.298  64.123  0.00  0.00    -0.317 OA
BRANCH  57  58
ATOM     58  C29 non d ame      -8.165   9.517  63.361  0.00  0.00     0.052 C 
ATOM     59  H47 non d ame      -8.501   9.761  62.353  0.00  0.00     0.082 H 
ATOM     60  H48 non d ame      -7.580  10.239  63.930  0.00  0.00     0.082 H 
BRANCH  58  61
ATOM     61  C35 non d ame      -7.378   8.181  63.307  0.00  0.00    -0.034 A 
ATOM     62  C30 non d ame      -6.014   8.164  63.583  0.00  0.00    -0.075 A 
ATOM     63  C31 non d ame      -5.307   6.963  63.534  0.00  0.00    -0.082 A 
ATOM     64  H49 non d ame      -5.500   9.090  63.837  0.00  0.00     0.084 H 
ATOM     65  C32 non d ame      -5.968   5.777  63.205  0.00  0.00    -0.083 A 
ATOM     66  H50 non d ame      -4.239   6.953  63.753  0.00  0.00     0.083 H 
ATOM     67  C33 non d ame      -7.328   5.799  62.928  0.00  0.00    -0.082 A 
ATOM     68  H51 non d ame      -5.423   4.834  63.165  0.00  0.00     0.083 H 
ATOM     69  C34 non d ame      -8.039   6.996  62.977  0.00  0.00    -0.075 A 
ATOM     70  H52 non d ame      -7.841   4.872  62.669  0.00  0.00     0.083 H 
ATOM     71  H53 non d ame      -9.108   7.006  62.759  0.00  0.00     0.084 H 
ENDBRANCH  58  61
ENDBRANCH  57  58
ENDBRANCH  55  57
ENDBRANCH  52  55
ENDBRANCH  49  52
ENDBRANCH  47  49
BRANCH  47  72
ATOM     72  C24 non d ame     -10.498   7.011  69.572  0.00  0.00    -0.039 C 
ATOM     73  H35 non d ame     -11.515   6.964  69.182  0.00  0.00     0.036 H 
ATOM     74  H36 non d ame      -9.798   6.201  69.367  0.00  0.00     0.036 H 
BRANCH  72  75
ATOM     75  C25 non d ame     -10.608   7.148  71.165  0.00  0.00    -0.001 C 
ATOM     76  C26 non d ame      -9.947   5.827  71.887  0.00  0.00    -0.035 C 
ATOM     77  C27 non d ame     -10.837   5.325  72.777  0.00  0.00     0.085 C 
ATOM     78  H38 non d ame      -9.830   5.023  71.161  0.00  0.00     0.036 H 
ATOM     79  H39 non d ame      -9.104   6.125  72.511  0.00  0.00     0.036 H 
ATOM     80  N5  non d ame     -12.165   5.983  72.492  0.00  0.00    -0.049 N 
ATOM     81  H40 non d ame     -10.911   4.261  72.546  0.00  0.00     0.075 H 
ATOM     82  H41 non d ame     -10.483   5.647  73.756  0.00  0.00     0.075 H 
ATOM     83  C28 non d ame     -11.839   7.247  71.541  0.00  0.00     0.193 C 
ATOM     84  H42 non d ame     -12.708   5.315  71.965  0.00  0.00     0.280 HD
ATOM     85  H43 non d ame     -12.509   6.328  73.377  0.00  0.00     0.280 HD
ATOM     86  H44 non d ame     -11.842   8.259  71.945  0.00  0.00     0.129 H 
ATOM     87  H37 non d ame     -10.278   8.124  71.519  0.00  0.00     0.046 H 
BRANCH  83  88
ATOM     88  O6  non d ame     -12.741   7.275  70.434  0.00  0.00    -0.369 OA
ATOM     89  H45 non d ame     -13.589   7.623  70.720  0.00  0.00     0.212 HD
ENDBRANCH  83  88
ENDBRANCH  72  75
ENDBRANCH  47  72
ENDBRANCH  45  47
ENDBRANCH   1  43
BRANCH   1  90
ATOM     90  C16 non d ame     -11.788  11.919  66.779  0.00  0.00    -0.035 C 
ATOM     91  H21 non d ame     -10.968  11.309  66.399  0.00  0.00     0.037 H 
ATOM     92  H22 non d ame     -12.810  11.720  66.456  0.00  0.00     0.037 H 
BRANCH  90  93
ATOM     93  C17 non d ame     -11.472  13.391  66.361  0.00  0.00    -0.059 C 
ATOM     94  H23 non d ame     -11.406  13.986  67.272  0.00  0.00     0.038 H 
BRANCH  93  95
ATOM     95  C18 non d ame     -10.106  13.511  65.613  0.00  0.00    -0.073 C 
ATOM     96  H24 non d ame      -9.381  12.838  66.071  0.00  0.00     0.028 H 
ATOM     97  H25 non d ame     -10.240  13.242  64.565  0.00  0.00     0.028 H 
ATOM     98  H26 non d ame      -9.743  14.537  65.682  0.00  0.00     0.028 H 
ENDBRANCH  93  95
BRANCH  93  99
ATOM     99  C19 non d ame     -12.608  13.975  65.517  0.00  0.00    -0.073 C 
ATOM    100  H27 non d ame     -12.526  13.608  64.493  0.00  0.00     0.028 H 
ATOM    101  H28 non d ame     -13.567  13.669  65.937  0.00  0.00     0.028 H 
ATOM    102  H29 non d ame     -12.541  15.062  65.520  0.00  0.00     0.028 H 
ENDBRANCH  93  99
ENDBRANCH  90  93
ENDBRANCH   1  90
TORSDOF 26
ENDMDL
MODEL 11
REMARK VINA RESULT:      -6.0      2.125      6.502
REMARK  26 active torsions:
REMARK  status: ('A' for Active; 'I' for Inactive)
REMARK    1  A    between atoms: C2_2  and  C3_3 
REMARK    2  A    between atoms: C4_6  and  C5_7 
REMARK       I    between atoms: C5_7  and  N2_9 
REMARK    3  A    between atoms: N2_9  and  C6_10 
REMARK    4  A    between atoms: C6_10  and  C7_11 
REMARK    5  A    between atoms: C6_10  and  C8_13 
REMARK       I    between atoms: C7_11  and  N3_14 
REMARK    6  A    between atoms: N3_14  and  C9_15 
REMARK    7  A    between atoms: C9_15  and  C10_16 
REMARK    8  A    between atoms: C9_15  and  C11_18 
REMARK       I    between atoms: C10_16  and  N4_21 
REMARK    9  A    between atoms: C11_18  and  C12_19 
REMARK   10  A    between atoms: C11_18  and  C13_20 
REMARK   11  A    between atoms: N4_21  and  C14_22 
REMARK   12  A    between atoms: C14_22  and  C15_23 
REMARK   13  A    between atoms: C14_22  and  C16_25 
REMARK       I    between atoms: C15_23  and  N6_40 
REMARK   14  A    between atoms: C16_25  and  C17_26 
REMARK   15  A    between atoms: C17_26  and  C18_27 
REMARK   16  A    between atoms: C17_26  and  C19_28 
REMARK   17  A    between atoms: C20_29  and  C21_30 
REMARK   18  A    between atoms: C20_29  and  C24_33 
REMARK   19  A    between atoms: C20_29  and  N6_40 
REMARK   20  A    between atoms: C21_30  and  C22_31 
REMARK   21  A    between atoms: C22_31  and  C23_32 
REMARK   22  A    between atoms: C23_32  and  O8_43 
REMARK   23  A    between atoms: C24_33  and  C25_34 
REMARK   24  A    between atoms: C28_38  and  O6_39 
REMARK   25  A    between atoms: C29_42  and  O8_43 
REMARK   26  A    between atoms: C29_42  and  C35_49 
ROOT
ATOM      1  C14 non d ame     -10.667   9.312  69.406  0.00  0.00     0.089 C 
ATOM      2  H20 non d ame     -11.230   8.525  69.907  0.00  0.00     0.087 H 
ENDROOT
BRANCH   1   3
ATOM      3  N4  non d ame     -10.295   8.815  68.090  0.00  0.00    -0.346 N 
ATOM      4  C10 non d ame     -10.173   7.332  67.842  0.00  0.00     0.241 C 
ATOM      5  O4  non d ame     -10.376   6.558  68.719  0.00  0.00    -0.271 OA
ATOM      6  H19 non d ame     -10.124   9.490  67.358  0.00  0.00     0.163 HD
BRANCH   4   7
ATOM      7  C9  non d ame      -9.793   6.835  66.472  0.00  0.00     0.092 C 
ATOM      8  H11 non d ame     -10.570   7.115  65.761  0.00  0.00     0.088 H 
BRANCH   7   9
ATOM      9  N3  non d ame      -8.554   7.490  66.041  0.00  0.00    -0.346 N 
ATOM     10  C7  non d ame      -8.614   8.694  65.250  0.00  0.00     0.240 C 
ATOM     11  O3  non d ame      -9.650   9.150  64.951  0.00  0.00    -0.271 OA
ATOM     12  H10 non d ame      -7.653   7.107  66.290  0.00  0.00     0.163 HD
BRANCH  10  13
ATOM     13  C6  non d ame      -7.292   9.385  64.791  0.00  0.00     0.086 C 
ATOM     14  H6  non d ame      -7.273   9.589  63.721  0.00  0.00     0.086 H 
BRANCH  13  15
ATOM     15  N2  non d ame      -7.173  10.668  65.462  0.00  0.00    -0.343 N 
ATOM     16  C5  non d ame      -7.145  10.717  66.926  0.00  0.00     0.273 C 
ATOM     17  O2  non d ame      -7.221   9.719  67.554  0.00  0.00    -0.266 OA
ATOM     18  H5  non d ame      -7.111  11.517  64.917  0.00  0.00     0.163 HD
BRANCH  16  19
ATOM     19  C4  non d ame      -7.018  12.067  67.648  0.00  0.00     0.154 A 
ATOM     20  C1  non d ame      -5.866  12.915  67.700  0.00  0.00    -0.017 A 
ATOM     21  C2  non d ame      -6.265  14.023  68.481  0.00  0.00     0.077 A 
ATOM     22  H1  non d ame      -4.891  12.752  67.242  0.00  0.00     0.091 H 
ATOM     23  O1  non d ame      -7.503  13.825  68.830  0.00  0.00    -0.218 OA
ATOM     24  N1  non d ame      -7.964  12.690  68.357  0.00  0.00    -0.123 NA
BRANCH  21  25
ATOM     25  C3  non d ame      -5.405  15.226  68.846  0.00  0.00    -0.029 C 
ATOM     26  H2  non d ame      -5.060  15.715  67.935  0.00  0.00     0.036 H 
ATOM     27  H3  non d ame      -5.995  15.929  69.434  0.00  0.00     0.036 H 
ATOM     28  H4  non d ame      -4.546  14.895  69.429  0.00  0.00     0.036 H 
ENDBRANCH  21  25
ENDBRANCH  16  19
ENDBRANCH  13  15
BRANCH  13  29
ATOM     29  C8  non d ame      -6.116   8.508  65.141  0.00  0.00    -0.049 C 
ATOM     30  H7  non d ame      -5.478   9.025  65.857  0.00  0.00     0.030 H 
ATOM     31  H8  non d ame      -6.475   7.577  65.578  0.00  0.00     0.030 H 
ATOM     32  H9  non d ame      -5.545   8.290  64.238  0.00  0.00     0.030 H 
ENDBRANCH  13  29
ENDBRANCH  10  13
ENDBRANCH   7   9
BRANCH   7  33
ATOM     33  C11 non d ame      -9.572   5.295  66.522  0.00  0.00    -0.033 C 
ATOM     34  H12 non d ame      -9.857   4.954  67.518  0.00  0.00     0.042 H 
BRANCH  33  35
ATOM     35  C12 non d ame     -10.485   4.556  65.494  0.00  0.00    -0.071 C 
ATOM     36  H13 non d ame      -9.865   4.077  64.736  0.00  0.00     0.028 H 
ATOM     37  H14 non d ame     -11.075   3.799  66.011  0.00  0.00     0.028 H 
ATOM     38  H15 non d ame     -11.151   5.275  65.018  0.00  0.00     0.028 H 
ENDBRANCH  33  35
BRANCH  33  39
ATOM     39  C13 non d ame      -8.067   4.938  66.302  0.00  0.00    -0.071 C 
ATOM     40  H16 non d ame      -7.742   4.243  67.076  0.00  0.00     0.028 H 
ATOM     41  H17 non d ame      -7.942   4.476  65.322  0.00  0.00     0.028 H 
ATOM     42  H18 non d ame      -7.467   5.847  66.355  0.00  0.00     0.028 H 
ENDBRANCH  33  39
ENDBRANCH   7  33
ENDBRANCH   4   7
ENDBRANCH   1   3
BRANCH   1  43
ATOM     43  C15 non d ame     -11.504  10.611  69.227  0.00  0.00     0.240 C 
ATOM     44  O5  non d ame     -12.661  10.610  69.499  0.00  0.00    -0.271 OA
ATOM     45  N6  non d ame     -10.861  11.858  68.724  0.00  0.00    -0.355 N 
ATOM     46  H46 non d ame      -9.878  11.872  68.494  0.00  0.00     0.162 HD
BRANCH  45  47
ATOM     47  C20 non d ame     -11.670  13.085  68.560  0.00  0.00     0.013 C 
ATOM     48  H30 non d ame     -12.594  12.955  69.123  0.00  0.00     0.072 H 
BRANCH  47  49
ATOM     49  C21 non d ame     -11.982  13.286  67.094  0.00  0.00    -0.038 C 
ATOM     50  H31 non d ame     -12.275  12.305  66.718  0.00  0.00     0.036 H 
ATOM     51  H32 non d ame     -12.686  14.118  67.055  0.00  0.00     0.036 H 
BRANCH  49  52
ATOM     52  C22 non d ame     -10.748  13.718  66.273  0.00  0.00     0.018 C 
ATOM     53  H33 non d ame     -10.065  14.180  66.986  0.00  0.00     0.048 H 
ATOM     54  H34 non d ame     -10.439  12.833  65.717  0.00  0.00     0.048 H 
BRANCH  52  55
ATOM     55  C23 non d ame     -11.055  14.807  65.208  0.00  0.00     0.259 C 
ATOM     56  O7  non d ame     -11.991  14.696  64.484  0.00  0.00    -0.265 OA
BRANCH  55  57
ATOM     57  O8  non d ame     -10.196  15.935  65.097  0.00  0.00    -0.317 OA
BRANCH  57  58
ATOM     58  C29 non d ame      -9.288  16.085  66.191  0.00  0.00     0.052 C 
ATOM     59  H47 non d ame      -9.538  15.290  66.893  0.00  0.00     0.082 H 
ATOM     60  H48 non d ame      -8.294  16.127  65.747  0.00  0.00     0.082 H 
BRANCH  58  61
ATOM     61  C35 non d ame      -9.579  17.450  66.872  0.00  0.00    -0.034 A 
ATOM     62  C30 non d ame      -9.116  17.699  68.160  0.00  0.00    -0.075 A 
ATOM     63  C31 non d ame      -9.378  18.924  68.771  0.00  0.00    -0.082 A 
ATOM     64  H49 non d ame      -8.549  16.934  68.690  0.00  0.00     0.084 H 
ATOM     65  C32 non d ame     -10.107  19.902  68.090  0.00  0.00    -0.083 A 
ATOM     66  H50 non d ame      -9.012  19.117  69.780  0.00  0.00     0.083 H 
ATOM     67  C33 non d ame     -10.569  19.648  66.805  0.00  0.00    -0.082 A 
ATOM     68  H51 non d ame     -10.315  20.863  68.560  0.00  0.00     0.083 H 
ATOM     69  C34 non d ame     -10.308  18.425  66.190  0.00  0.00    -0.075 A 
ATOM     70  H52 non d ame     -11.140  20.412  66.277  0.00  0.00     0.083 H 
ATOM     71  H53 non d ame     -10.674  18.234  65.181  0.00  0.00     0.084 H 
ENDBRANCH  58  61
ENDBRANCH  57  58
ENDBRANCH  55  57
ENDBRANCH  52  55
ENDBRANCH  49  52
ENDBRANCH  47  49
BRANCH  47  72
ATOM     72  C24 non d ame     -10.893  14.290  69.086  0.00  0.00    -0.039 C 
ATOM     73  H35 non d ame      -9.897  13.914  69.319  0.00  0.00     0.036 H 
ATOM     74  H36 non d ame     -11.020  15.068  68.333  0.00  0.00     0.036 H 
BRANCH  72  75
ATOM     75  C25 non d ame     -11.518  14.848  70.452  0.00  0.00    -0.001 C 
ATOM     76  C26 non d ame     -12.445  13.688  71.158  0.00  0.00    -0.035 C 
ATOM     77  C27 non d ame     -13.660  14.215  71.446  0.00  0.00     0.085 C 
ATOM     78  H38 non d ame     -12.673  12.902  70.439  0.00  0.00     0.036 H 
ATOM     79  H39 non d ame     -12.041  13.431  72.137  0.00  0.00     0.036 H 
ATOM     80  N5  non d ame     -13.758  15.527  70.706  0.00  0.00    -0.049 N 
ATOM     81  H40 non d ame     -14.387  13.517  71.029  0.00  0.00     0.075 H 
ATOM     82  H41 non d ame     -13.645  14.412  72.517  0.00  0.00     0.075 H 
ATOM     83  C28 non d ame     -12.255  15.887  70.239  0.00  0.00     0.193 C 
ATOM     84  H42 non d ame     -14.317  15.352  69.884  0.00  0.00     0.280 HD
ATOM     85  H43 non d ame     -14.057  16.215  71.383  0.00  0.00     0.280 HD
ATOM     86  H44 non d ame     -11.679  16.649  70.764  0.00  0.00     0.129 H 
ATOM     87  H37 non d ame     -10.772  15.336  71.079  0.00  0.00     0.046 H 
BRANCH  83  88
ATOM     88  O6  non d ame     -12.247  16.281  68.865  0.00  0.00    -0.369 OA
ATOM     89  H45 non d ame     -12.717  17.112  68.769  0.00  0.00     0.212 HD
ENDBRANCH  83  88
ENDBRANCH  72  75
ENDBRANCH  47  72
ENDBRANCH  45  47
ENDBRANCH   1  43
BRANCH   1  90
ATOM     90  C16 non d ame      -9.404   9.622  70.194  0.00  0.00    -0.035 C 
ATOM     91  H21 non d ame      -8.579   9.330  69.544  0.00  0.00     0.037 H 
ATOM     92  H22 non d ame      -9.508  10.661  70.508  0.00  0.00     0.037 H 
BRANCH  90  93
ATOM     93  C17 non d ame      -9.257   8.779  71.500  0.00  0.00    -0.059 C 
ATOM     94  H23 non d ame      -8.803   9.418  72.257  0.00  0.00     0.038 H 
BRANCH  93  95
ATOM     95  C18 non d ame     -10.638   8.296  72.048  0.00  0.00    -0.073 C 
ATOM     96  H24 non d ame     -10.987   7.449  71.457  0.00  0.00     0.028 H 
ATOM     97  H25 non d ame     -10.529   7.992  73.090  0.00  0.00     0.028 H 
ATOM     98  H26 non d ame     -11.360   9.110  71.981  0.00  0.00     0.028 H 
ENDBRANCH  93  95
BRANCH  93  99
ATOM     99  C19 non d ame      -8.313   7.593  71.281  0.00  0.00    -0.073 C 
ATOM    100  H27 non d ame      -7.743   7.409  72.193  0.00  0.00     0.028 H 
ATOM    101  H28 non d ame      -8.896   6.706  71.032  0.00  0.00     0.028 H 
ATOM    102  H29 non d ame      -7.629   7.819  70.464  0.00  0.00     0.028 H 
ENDBRANCH  93  99
ENDBRANCH  90  93
ENDBRANCH   1  90
TORSDOF 26
ENDMDL
MODEL 12
REMARK VINA RESULT:      -6.0      2.403      8.024
REMARK  26 active torsions:
REMARK  status: ('A' for Active; 'I' for Inactive)
REMARK    1  A    between atoms: C2_2  and  C3_3 
REMARK    2  A    between atoms: C4_6  and  C5_7 
REMARK       I    between atoms: C5_7  and  N2_9 
REMARK    3  A    between atoms: N2_9  and  C6_10 
REMARK    4  A    between atoms: C6_10  and  C7_11 
REMARK    5  A    between atoms: C6_10  and  C8_13 
REMARK       I    between atoms: C7_11  and  N3_14 
REMARK    6  A    between atoms: N3_14  and  C9_15 
REMARK    7  A    between atoms: C9_15  and  C10_16 
REMARK    8  A    between atoms: C9_15  and  C11_18 
REMARK       I    between atoms: C10_16  and  N4_21 
REMARK    9  A    between atoms: C11_18  and  C12_19 
REMARK   10  A    between atoms: C11_18  and  C13_20 
REMARK   11  A    between atoms: N4_21  and  C14_22 
REMARK   12  A    between atoms: C14_22  and  C15_23 
REMARK   13  A    between atoms: C14_22  and  C16_25 
REMARK       I    between atoms: C15_23  and  N6_40 
REMARK   14  A    between atoms: C16_25  and  C17_26 
REMARK   15  A    between atoms: C17_26  and  C18_27 
REMARK   16  A    between atoms: C17_26  and  C19_28 
REMARK   17  A    between atoms: C20_29  and  C21_30 
REMARK   18  A    between atoms: C20_29  and  C24_33 
REMARK   19  A    between atoms: C20_29  and  N6_40 
REMARK   20  A    between atoms: C21_30  and  C22_31 
REMARK   21  A    between atoms: C22_31  and  C23_32 
REMARK   22  A    between atoms: C23_32  and  O8_43 
REMARK   23  A    between atoms: C24_33  and  C25_34 
REMARK   24  A    between atoms: C28_38  and  O6_39 
REMARK   25  A    between atoms: C29_42  and  O8_43 
REMARK   26  A    between atoms: C29_42  and  C35_49 
ROOT
ATOM      1  C14 non d ame     -11.150   9.077  69.607  0.00  0.00     0.089 C 
ATOM      2  H20 non d ame     -12.068   8.506  69.471  0.00  0.00     0.087 H 
ENDROOT
BRANCH   1   3
ATOM      3  N4  non d ame     -10.119   8.150  70.051  0.00  0.00    -0.346 N 
ATOM      4  C10 non d ame     -10.368   6.663  70.021  0.00  0.00     0.241 C 
ATOM      5  O4  non d ame     -11.406   6.236  69.637  0.00  0.00    -0.271 OA
ATOM      6  H19 non d ame      -9.243   8.534  70.376  0.00  0.00     0.163 HD
BRANCH   4   7
ATOM      7  C9  non d ame      -9.288   5.718  70.479  0.00  0.00     0.092 C 
ATOM      8  H11 non d ame      -9.731   4.942  71.102  0.00  0.00     0.088 H 
BRANCH   7   9
ATOM      9  N3  non d ame      -8.695   5.053  69.315  0.00  0.00    -0.346 N 
ATOM     10  C7  non d ame      -9.007   3.672  69.038  0.00  0.00     0.240 C 
ATOM     11  O3  non d ame      -9.732   3.081  69.742  0.00  0.00    -0.271 OA
ATOM     12  H10 non d ame      -8.066   5.549  68.699  0.00  0.00     0.163 HD
BRANCH  10  13
ATOM     13  C6  non d ame      -8.370   2.968  67.800  0.00  0.00     0.086 C 
ATOM     14  H6  non d ame      -9.080   2.341  67.260  0.00  0.00     0.086 H 
BRANCH  13  15
ATOM     15  N2  non d ame      -7.915   3.982  66.863  0.00  0.00    -0.343 N 
ATOM     16  C5  non d ame      -8.759   4.339  65.721  0.00  0.00     0.273 C 
ATOM     17  O2  non d ame      -9.800   3.803  65.562  0.00  0.00    -0.266 OA
ATOM     18  H5  non d ame      -7.022   4.433  67.005  0.00  0.00     0.163 HD
BRANCH  16  19
ATOM     19  C4  non d ame      -8.291   5.411  64.724  0.00  0.00     0.154 A 
ATOM     20  C1  non d ame      -7.413   6.511  64.985  0.00  0.00    -0.017 A 
ATOM     21  C2  non d ame      -7.303   7.189  63.750  0.00  0.00     0.077 A 
ATOM     22  H1  non d ame      -6.930   6.776  65.925  0.00  0.00     0.091 H 
ATOM     23  O1  non d ame      -8.035   6.545  62.888  0.00  0.00    -0.218 OA
ATOM     24  N1  non d ame      -8.621   5.504  63.433  0.00  0.00    -0.123 NA
BRANCH  21  25
ATOM     25  C3  non d ame      -6.480   8.441  63.480  0.00  0.00    -0.029 C 
ATOM     26  H2  non d ame      -6.760   8.859  62.512  0.00  0.00     0.036 H 
ATOM     27  H3  non d ame      -6.669   9.176  64.262  0.00  0.00     0.036 H 
ATOM     28  H4  non d ame      -5.420   8.185  63.472  0.00  0.00     0.036 H 
ENDBRANCH  21  25
ENDBRANCH  16  19
ENDBRANCH  13  15
BRANCH  13  29
ATOM     29  C8  non d ame      -7.208   2.117  68.244  0.00  0.00    -0.049 C 
ATOM     30  H7  non d ame      -6.443   2.111  67.468  0.00  0.00     0.030 H 
ATOM     31  H8  non d ame      -6.789   2.525  69.164  0.00  0.00     0.030 H 
ATOM     32  H9  non d ame      -7.551   1.098  68.422  0.00  0.00     0.030 H 
ENDBRANCH  13  29
ENDBRANCH  10  13
ENDBRANCH   7   9
BRANCH   7  33
ATOM     33  C11 non d ame      -8.185   6.517  71.233  0.00  0.00    -0.033 C 
ATOM     34  H12 non d ame      -8.526   7.549  71.317  0.00  0.00     0.042 H 
BRANCH  33  35
ATOM     35  C12 non d ame      -7.979   5.973  72.681  0.00  0.00    -0.071 C 
ATOM     36  H13 non d ame      -7.633   4.940  72.635  0.00  0.00     0.028 H 
ATOM     37  H14 non d ame      -7.236   6.582  73.196  0.00  0.00     0.028 H 
ATOM     38  H15 non d ame      -8.923   6.017  73.223  0.00  0.00     0.028 H 
ENDBRANCH  33  35
BRANCH  33  39
ATOM     39  C13 non d ame      -6.844   6.515  70.431  0.00  0.00    -0.071 C 
ATOM     40  H16 non d ame      -6.681   7.498  69.992  0.00  0.00     0.028 H 
ATOM     41  H17 non d ame      -6.019   6.275  71.103  0.00  0.00     0.028 H 
ATOM     42  H18 non d ame      -6.897   5.767  69.639  0.00  0.00     0.028 H 
ENDBRANCH  33  39
ENDBRANCH   7  33
ENDBRANCH   4   7
ENDBRANCH   1   3
BRANCH   1  43
ATOM     43  C15 non d ame     -10.675   9.750  68.288  0.00  0.00     0.240 C 
ATOM     44  O5  non d ame     -10.181   9.090  67.432  0.00  0.00    -0.271 OA
ATOM     45  N6  non d ame     -10.845  11.218  68.088  0.00  0.00    -0.355 N 
ATOM     46  H46 non d ame     -11.268  11.788  68.806  0.00  0.00     0.162 HD
BRANCH  45  47
ATOM     47  C20 non d ame     -10.390  11.843  66.827  0.00  0.00     0.013 C 
ATOM     48  H30 non d ame      -9.719  11.143  66.329  0.00  0.00     0.072 H 
BRANCH  47  49
ATOM     49  C21 non d ame      -9.657  13.127  67.142  0.00  0.00    -0.038 C 
ATOM     50  H31 non d ame      -8.693  12.824  67.551  0.00  0.00     0.036 H 
ATOM     51  H32 non d ame      -9.699  13.721  66.228  0.00  0.00     0.036 H 
BRANCH  49  52
ATOM     52  C22 non d ame     -10.354  13.962  68.238  0.00  0.00     0.018 C 
ATOM     53  H33 non d ame     -11.192  13.355  68.583  0.00  0.00     0.048 H 
ATOM     54  H34 non d ame      -9.567  14.250  68.935  0.00  0.00     0.048 H 
BRANCH  52  55
ATOM     55  C23 non d ame     -10.973  15.289  67.716  0.00  0.00     0.259 C 
ATOM     56  O7  non d ame     -10.959  15.546  66.556  0.00  0.00    -0.265 OA
BRANCH  55  57
ATOM     57  O8  non d ame     -11.546  16.202  68.644  0.00  0.00    -0.317 OA
BRANCH  57  58
ATOM     58  C29 non d ame     -10.893  16.225  69.917  0.00  0.00     0.052 C 
ATOM     59  H47 non d ame     -10.171  15.410  69.893  0.00  0.00     0.082 H 
ATOM     60  H48 non d ame     -10.553  17.251  70.055  0.00  0.00     0.082 H 
BRANCH  58  61
ATOM     61  C35 non d ame     -11.954  15.910  71.005  0.00  0.00    -0.034 A 
ATOM     62  C30 non d ame     -11.682  16.179  72.342  0.00  0.00    -0.075 A 
ATOM     63  C31 non d ame     -12.635  15.895  73.319  0.00  0.00    -0.082 A 
ATOM     64  H49 non d ame     -10.723  16.612  72.625  0.00  0.00     0.084 H 
ATOM     65  C32 non d ame     -13.864  15.337  72.955  0.00  0.00    -0.083 A 
ATOM     66  H50 non d ame     -12.420  16.109  74.366  0.00  0.00     0.083 H 
ATOM     67  C33 non d ame     -14.129  15.068  71.620  0.00  0.00    -0.082 A 
ATOM     68  H51 non d ame     -14.614  15.113  73.713  0.00  0.00     0.083 H 
ATOM     69  C34 non d ame     -13.181  15.352  70.639  0.00  0.00    -0.075 A 
ATOM     70  H52 non d ame     -15.088  14.630  71.339  0.00  0.00     0.083 H 
ATOM     71  H53 non d ame     -13.398  15.138  69.592  0.00  0.00     0.084 H 
ENDBRANCH  58  61
ENDBRANCH  57  58
ENDBRANCH  55  57
ENDBRANCH  52  55
ENDBRANCH  49  52
ENDBRANCH  47  49
BRANCH  47  72
ATOM     72  C24 non d ame     -11.594  12.147  65.937  0.00  0.00    -0.039 C 
ATOM     73  H35 non d ame     -12.447  11.687  66.437  0.00  0.00     0.036 H 
ATOM     74  H36 non d ame     -11.572  13.225  65.779  0.00  0.00     0.036 H 
BRANCH  72  75
ATOM     75  C25 non d ame     -11.459  11.454  64.499  0.00  0.00    -0.001 C 
ATOM     76  C26 non d ame     -10.165  10.439  64.486  0.00  0.00    -0.035 C 
ATOM     77  C27 non d ame      -9.392  10.731  63.413  0.00  0.00     0.085 C 
ATOM     78  H38 non d ame      -9.515  10.651  65.334  0.00  0.00     0.036 H 
ATOM     79  H39 non d ame     -10.493   9.418  64.293  0.00  0.00     0.036 H 
ATOM     80  N5  non d ame      -9.863  12.062  62.878  0.00  0.00    -0.049 N 
ATOM     81  H40 non d ame      -8.380  10.844  63.805  0.00  0.00     0.075 H 
ATOM     82  H41 non d ame      -9.609   9.957  62.678  0.00  0.00     0.075 H 
ATOM     83  C28 non d ame     -11.297  12.336  63.569  0.00  0.00     0.193 C 
ATOM     84  H42 non d ame      -9.208  12.754  63.213  0.00  0.00     0.280 HD
ATOM     85  H43 non d ame     -10.004  11.938  61.886  0.00  0.00     0.280 HD
ATOM     86  H44 non d ame     -12.219  12.199  63.004  0.00  0.00     0.129 H 
ATOM     87  H37 non d ame     -12.408  11.053  64.143  0.00  0.00     0.046 H 
BRANCH  83  88
ATOM     88  O6  non d ame     -11.353  13.670  64.076  0.00  0.00    -0.369 OA
ATOM     89  H45 non d ame     -11.394  14.289  63.343  0.00  0.00     0.212 HD
ENDBRANCH  83  88
ENDBRANCH  72  75
ENDBRANCH  47  72
ENDBRANCH  45  47
ENDBRANCH   1  43
BRANCH   1  90
ATOM     90  C16 non d ame     -11.357  10.137  70.677  0.00  0.00    -0.035 C 
ATOM     91  H21 non d ame     -10.762   9.808  71.529  0.00  0.00     0.037 H 
ATOM     92  H22 non d ame     -11.132  11.086  70.190  0.00  0.00     0.037 H 
BRANCH  90  93
ATOM     93  C17 non d ame     -12.832  10.239  71.181  0.00  0.00    -0.059 C 
ATOM     94  H23 non d ame     -13.485  10.132  70.315  0.00  0.00     0.038 H 
BRANCH  93  95
ATOM     95  C18 non d ame     -13.189   9.103  72.191  0.00  0.00    -0.073 C 
ATOM     96  H24 non d ame     -13.666   8.280  71.659  0.00  0.00     0.028 H 
ATOM     97  H25 non d ame     -12.278   8.745  72.672  0.00  0.00     0.028 H 
ATOM     98  H26 non d ame     -13.871   9.491  72.948  0.00  0.00     0.028 H 
ENDBRANCH  93  95
BRANCH  93  99
ATOM     99  C19 non d ame     -13.107  11.616  71.790  0.00  0.00    -0.073 C 
ATOM    100  H27 non d ame     -14.127  11.921  71.553  0.00  0.00     0.028 H 
ATOM    101  H28 non d ame     -12.985  11.565  72.872  0.00  0.00     0.028 H 
ATOM    102  H29 non d ame     -12.406  12.342  71.380  0.00  0.00     0.028 H 
ENDBRANCH  93  99
ENDBRANCH  90  93
ENDBRANCH   1  90
TORSDOF 26
ENDMDL
MODEL 13
REMARK VINA RESULT:      -6.0      2.277      6.036
REMARK  26 active torsions:
REMARK  status: ('A' for Active; 'I' for Inactive)
REMARK    1  A    between atoms: C2_2  and  C3_3 
REMARK    2  A    between atoms: C4_6  and  C5_7 
REMARK       I    between atoms: C5_7  and  N2_9 
REMARK    3  A    between atoms: N2_9  and  C6_10 
REMARK    4  A    between atoms: C6_10  and  C7_11 
REMARK    5  A    between atoms: C6_10  and  C8_13 
REMARK       I    between atoms: C7_11  and  N3_14 
REMARK    6  A    between atoms: N3_14  and  C9_15 
REMARK    7  A    between atoms: C9_15  and  C10_16 
REMARK    8  A    between atoms: C9_15  and  C11_18 
REMARK       I    between atoms: C10_16  and  N4_21 
REMARK    9  A    between atoms: C11_18  and  C12_19 
REMARK   10  A    between atoms: C11_18  and  C13_20 
REMARK   11  A    between atoms: N4_21  and  C14_22 
REMARK   12  A    between atoms: C14_22  and  C15_23 
REMARK   13  A    between atoms: C14_22  and  C16_25 
REMARK       I    between atoms: C15_23  and  N6_40 
REMARK   14  A    between atoms: C16_25  and  C17_26 
REMARK   15  A    between atoms: C17_26  and  C18_27 
REMARK   16  A    between atoms: C17_26  and  C19_28 
REMARK   17  A    between atoms: C20_29  and  C21_30 
REMARK   18  A    between atoms: C20_29  and  C24_33 
REMARK   19  A    between atoms: C20_29  and  N6_40 
REMARK   20  A    between atoms: C21_30  and  C22_31 
REMARK   21  A    between atoms: C22_31  and  C23_32 
REMARK   22  A    between atoms: C23_32  and  O8_43 
REMARK   23  A    between atoms: C24_33  and  C25_34 
REMARK   24  A    between atoms: C28_38  and  O6_39 
REMARK   25  A    between atoms: C29_42  and  O8_43 
REMARK   26  A    between atoms: C29_42  and  C35_49 
ROOT
ATOM      1  C14 non d ame      -8.105  10.065  65.969  0.00  0.00     0.089 C 
ATOM      2  H20 non d ame      -8.439   9.374  65.194  0.00  0.00     0.087 H 
ENDROOT
BRANCH   1   3
ATOM      3  N4  non d ame      -8.928  11.261  65.874  0.00  0.00    -0.346 N 
ATOM      4  C10 non d ame     -10.417  11.147  65.661  0.00  0.00     0.241 C 
ATOM      5  O4  non d ame     -10.929  10.081  65.566  0.00  0.00    -0.271 OA
ATOM      6  H19 non d ame      -8.472  12.159  65.956  0.00  0.00     0.163 HD
BRANCH   4   7
ATOM      7  C9  non d ame     -11.254  12.396  65.571  0.00  0.00     0.092 C 
ATOM      8  H11 non d ame     -12.215  12.219  66.054  0.00  0.00     0.088 H 
BRANCH   7   9
ATOM      9  N3  non d ame     -10.594  13.481  66.304  0.00  0.00    -0.346 N 
ATOM     10  C7  non d ame     -10.818  13.633  67.721  0.00  0.00     0.240 C 
ATOM     11  O3  non d ame     -11.527  12.892  68.286  0.00  0.00    -0.271 OA
ATOM     12  H10 non d ame      -9.982  14.128  65.830  0.00  0.00     0.163 HD
BRANCH  10  13
ATOM     13  C6  non d ame     -10.116  14.791  68.495  0.00  0.00     0.086 C 
ATOM     14  H6  non d ame     -10.289  15.767  68.042  0.00  0.00     0.086 H 
BRANCH  13  15
ATOM     15  N2  non d ame     -10.659  14.856  69.842  0.00  0.00    -0.343 N 
ATOM     16  C5  non d ame     -11.848  15.670  70.102  0.00  0.00     0.273 C 
ATOM     17  O2  non d ame     -12.358  16.272  69.222  0.00  0.00    -0.266 OA
ATOM     18  H5  non d ame     -10.215  14.340  70.588  0.00  0.00     0.163 HD
BRANCH  16  19
ATOM     19  C4  non d ame     -12.434  15.746  71.521  0.00  0.00     0.154 A 
ATOM     20  C1  non d ame     -11.713  15.907  72.746  0.00  0.00    -0.017 A 
ATOM     21  C2  non d ame     -12.704  15.916  73.753  0.00  0.00     0.077 A 
ATOM     22  H1  non d ame     -10.636  16.002  72.884  0.00  0.00     0.091 H 
ATOM     23  O1  non d ame     -13.856  15.778  73.163  0.00  0.00    -0.218 OA
ATOM     24  N1  non d ame     -13.724  15.676  71.861  0.00  0.00    -0.123 NA
BRANCH  21  25
ATOM     25  C3  non d ame     -12.468  16.063  75.250  0.00  0.00    -0.029 C 
ATOM     26  H2  non d ame     -12.409  15.075  75.707  0.00  0.00     0.036 H 
ATOM     27  H3  non d ame     -11.534  16.599  75.419  0.00  0.00     0.036 H 
ATOM     28  H4  non d ame     -13.292  16.620  75.696  0.00  0.00     0.036 H 
ENDBRANCH  21  25
ENDBRANCH  16  19
ENDBRANCH  13  15
BRANCH  13  29
ATOM     29  C8  non d ame      -8.631  14.536  68.549  0.00  0.00    -0.049 C 
ATOM     30  H7  non d ame      -8.450  13.477  68.732  0.00  0.00     0.030 H 
ATOM     31  H8  non d ame      -8.178  14.823  67.599  0.00  0.00     0.030 H 
ATOM     32  H9  non d ame      -8.190  15.123  69.354  0.00  0.00     0.030 H 
ENDBRANCH  13  29
ENDBRANCH  10  13
ENDBRANCH   7   9
BRANCH   7  33
ATOM     33  C11 non d ame     -11.415  12.806  64.078  0.00  0.00    -0.033 C 
ATOM     34  H12 non d ame     -10.424  12.792  63.624  0.00  0.00     0.042 H 
BRANCH  33  35
ATOM     35  C12 non d ame     -12.301  11.783  63.300  0.00  0.00    -0.071 C 
ATOM     36  H13 non d ame     -12.037  10.770  63.603  0.00  0.00     0.028 H 
ATOM     37  H14 non d ame     -13.351  11.967  63.526  0.00  0.00     0.028 H 
ATOM     38  H15 non d ame     -12.133  11.898  62.230  0.00  0.00     0.028 H 
ENDBRANCH  33  35
BRANCH  33  39
ATOM     39  C13 non d ame     -11.983  14.256  63.954  0.00  0.00    -0.071 C 
ATOM     40  H16 non d ame     -11.181  14.975  64.120  0.00  0.00     0.028 H 
ATOM     41  H17 non d ame     -12.399  14.399  62.956  0.00  0.00     0.028 H 
ATOM     42  H18 non d ame     -12.764  14.405  64.699  0.00  0.00     0.028 H 
ENDBRANCH  33  39
ENDBRANCH   7  33
ENDBRANCH   4   7
ENDBRANCH   1   3
BRANCH   1  43
ATOM     43  C15 non d ame      -8.264   9.466  67.396  0.00  0.00     0.240 C 
ATOM     44  O5  non d ame      -7.441   9.686  68.224  0.00  0.00    -0.271 OA
ATOM     45  N6  non d ame      -9.448   8.625  67.732  0.00  0.00    -0.355 N 
ATOM     46  H46 non d ame     -10.157   8.435  67.038  0.00  0.00     0.162 HD
BRANCH  45  47
ATOM     47  C20 non d ame      -9.586   8.064  69.094  0.00  0.00     0.013 C 
ATOM     48  H30 non d ame      -8.911   8.611  69.752  0.00  0.00     0.072 H 
BRANCH  47  49
ATOM     49  C21 non d ame      -9.210   6.599  69.071  0.00  0.00    -0.038 C 
ATOM     50  H31 non d ame      -8.324   6.532  68.440  0.00  0.00     0.036 H 
ATOM     51  H32 non d ame      -9.161   6.292  70.116  0.00  0.00     0.036 H 
BRANCH  49  52
ATOM     52  C22 non d ame     -10.288   5.715  68.407  0.00  0.00     0.018 C 
ATOM     53  H33 non d ame     -10.388   4.839  69.048  0.00  0.00     0.048 H 
ATOM     54  H34 non d ame     -11.144   6.368  68.239  0.00  0.00     0.048 H 
BRANCH  52  55
ATOM     55  C23 non d ame      -9.880   5.176  67.007  0.00  0.00     0.259 C 
ATOM     56  O7  non d ame     -10.105   4.049  66.705  0.00  0.00    -0.265 OA
BRANCH  55  57
ATOM     57  O8  non d ame      -9.221   6.043  66.092  0.00  0.00    -0.317 OA
BRANCH  57  58
ATOM     58  C29 non d ame      -8.826   5.410  64.872  0.00  0.00     0.052 C 
ATOM     59  H47 non d ame      -9.164   4.377  64.952  0.00  0.00     0.082 H 
ATOM     60  H48 non d ame      -9.205   6.046  64.073  0.00  0.00     0.082 H 
BRANCH  58  61
ATOM     61  C35 non d ame      -7.275   5.415  64.809  0.00  0.00    -0.034 A 
ATOM     62  C30 non d ame      -6.625   5.871  63.667  0.00  0.00    -0.075 A 
ATOM     63  C31 non d ame      -5.232   5.876  63.610  0.00  0.00    -0.082 A 
ATOM     64  H49 non d ame      -7.207   6.224  62.815  0.00  0.00     0.084 H 
ATOM     65  C32 non d ame      -4.488   5.420  64.702  0.00  0.00    -0.083 A 
ATOM     66  H50 non d ame      -4.726   6.235  62.715  0.00  0.00     0.083 H 
ATOM     67  C33 non d ame      -5.141   4.964  65.839  0.00  0.00    -0.082 A 
ATOM     68  H51 non d ame      -3.399   5.421  64.667  0.00  0.00     0.083 H 
ATOM     69  C34 non d ame      -6.533   4.959  65.901  0.00  0.00    -0.075 A 
ATOM     70  H52 non d ame      -4.558   4.607  66.689  0.00  0.00     0.083 H 
ATOM     71  H53 non d ame      -7.039   4.600  66.798  0.00  0.00     0.084 H 
ENDBRANCH  58  61
ENDBRANCH  57  58
ENDBRANCH  55  57
ENDBRANCH  52  55
ENDBRANCH  49  52
ENDBRANCH  47  49
BRANCH  47  72
ATOM     72  C24 non d ame     -11.029   8.213  69.571  0.00  0.00    -0.039 C 
ATOM     73  H35 non d ame     -11.555   8.705  68.752  0.00  0.00     0.036 H 
ATOM     74  H36 non d ame     -11.332   7.217  69.894  0.00  0.00     0.036 H 
BRANCH  72  75
ATOM     75  C25 non d ame     -11.135   9.176  70.847  0.00  0.00    -0.001 C 
ATOM     76  C26 non d ame     -11.865   8.383  72.088  0.00  0.00    -0.035 C 
ATOM     77  C27 non d ame     -12.879   9.149  72.559  0.00  0.00     0.085 C 
ATOM     78  H38 non d ame     -12.371   7.492  71.716  0.00  0.00     0.036 H 
ATOM     79  H39 non d ame     -11.185   8.310  72.937  0.00  0.00     0.036 H 
ATOM     80  N5  non d ame     -13.114  10.242  71.544  0.00  0.00    -0.049 N 
ATOM     81  H40 non d ame     -13.751   8.494  72.585  0.00  0.00     0.075 H 
ATOM     82  H41 non d ame     -12.503   9.594  73.480  0.00  0.00     0.075 H 
ATOM     83  C28 non d ame     -11.822  10.236  70.577  0.00  0.00     0.193 C 
ATOM     84  H42 non d ame     -13.921   9.963  71.005  0.00  0.00     0.280 HD
ATOM     85  H43 non d ame     -13.127  11.111  72.058  0.00  0.00     0.280 HD
ATOM     86  H44 non d ame     -11.052  11.002  70.676  0.00  0.00     0.129 H 
ATOM     87  H37 non d ame     -10.191   9.677  71.065  0.00  0.00     0.046 H 
BRANCH  83  88
ATOM     88  O6  non d ame     -12.230  10.279  69.209  0.00  0.00    -0.369 OA
ATOM     89  H45 non d ame     -11.477  10.502  68.657  0.00  0.00     0.212 HD
ENDBRANCH  83  88
ENDBRANCH  72  75
ENDBRANCH  47  72
ENDBRANCH  45  47
ENDBRANCH   1  43
BRANCH   1  90
ATOM     90  C16 non d ame      -6.652  10.442  65.732  0.00  0.00    -0.035 C 
ATOM     91  H21 non d ame      -6.678  11.236  64.986  0.00  0.00     0.037 H 
ATOM     92  H22 non d ame      -6.240  10.639  66.722  0.00  0.00     0.037 H 
BRANCH  90  93
ATOM     93  C17 non d ame      -5.797   9.288  65.119  0.00  0.00    -0.059 C 
ATOM     94  H23 non d ame      -6.469   8.459  64.899  0.00  0.00     0.038 H 
BRANCH  93  95
ATOM     95  C18 non d ame      -5.108   9.711  63.782  0.00  0.00    -0.073 C 
ATOM     96  H24 non d ame      -5.833  10.219  63.146  0.00  0.00     0.028 H 
ATOM     97  H25 non d ame      -4.279  10.384  63.997  0.00  0.00     0.028 H 
ATOM     98  H26 non d ame      -4.733   8.824  63.270  0.00  0.00     0.028 H 
ENDBRANCH  93  95
BRANCH  93  99
ATOM     99  C19 non d ame      -4.762   8.779  66.127  0.00  0.00    -0.073 C 
ATOM    100  H27 non d ame      -5.190   7.960  66.705  0.00  0.00     0.028 H 
ATOM    101  H28 non d ame      -3.880   8.425  65.593  0.00  0.00     0.028 H 
ATOM    102  H29 non d ame      -4.480   9.590  66.798  0.00  0.00     0.028 H 
ENDBRANCH  93  99
ENDBRANCH  90  93
ENDBRANCH   1  90
TORSDOF 26
ENDMDL
MODEL 14
REMARK VINA RESULT:      -6.0      2.416      8.251
REMARK  26 active torsions:
REMARK  status: ('A' for Active; 'I' for Inactive)
REMARK    1  A    between atoms: C2_2  and  C3_3 
REMARK    2  A    between atoms: C4_6  and  C5_7 
REMARK       I    between atoms: C5_7  and  N2_9 
REMARK    3  A    between atoms: N2_9  and  C6_10 
REMARK    4  A    between atoms: C6_10  and  C7_11 
REMARK    5  A    between atoms: C6_10  and  C8_13 
REMARK       I    between atoms: C7_11  and  N3_14 
REMARK    6  A    between atoms: N3_14  and  C9_15 
REMARK    7  A    between atoms: C9_15  and  C10_16 
REMARK    8  A    between atoms: C9_15  and  C11_18 
REMARK       I    between atoms: C10_16  and  N4_21 
REMARK    9  A    between atoms: C11_18  and  C12_19 
REMARK   10  A    between atoms: C11_18  and  C13_20 
REMARK   11  A    between atoms: N4_21  and  C14_22 
REMARK   12  A    between atoms: C14_22  and  C15_23 
REMARK   13  A    between atoms: C14_22  and  C16_25 
REMARK       I    between atoms: C15_23  and  N6_40 
REMARK   14  A    between atoms: C16_25  and  C17_26 
REMARK   15  A    between atoms: C17_26  and  C18_27 
REMARK   16  A    between atoms: C17_26  and  C19_28 
REMARK   17  A    between atoms: C20_29  and  C21_30 
REMARK   18  A    between atoms: C20_29  and  C24_33 
REMARK   19  A    between atoms: C20_29  and  N6_40 
REMARK   20  A    between atoms: C21_30  and  C22_31 
REMARK   21  A    between atoms: C22_31  and  C23_32 
REMARK   22  A    between atoms: C23_32  and  O8_43 
REMARK   23  A    between atoms: C24_33  and  C25_34 
REMARK   24  A    between atoms: C28_38  and  O6_39 
REMARK   25  A    between atoms: C29_42  and  O8_43 
REMARK   26  A    between atoms: C29_42  and  C35_49 
ROOT
ATOM      1  C14 non d ame     -12.222  13.448  70.160  0.00  0.00     0.089 C 
ATOM      2  H20 non d ame     -13.284  13.283  69.972  0.00  0.00     0.087 H 
ENDROOT
BRANCH   1   3
ATOM      3  N4  non d ame     -11.606  12.146  70.368  0.00  0.00    -0.346 N 
ATOM      4  C10 non d ame     -11.746  11.062  69.329  0.00  0.00     0.241 C 
ATOM      5  O4  non d ame     -12.362  11.261  68.334  0.00  0.00    -0.271 OA
ATOM      6  H19 non d ame     -11.088  11.997  71.223  0.00  0.00     0.163 HD
BRANCH   4   7
ATOM      7  C9  non d ame     -11.096   9.723  69.558  0.00  0.00     0.092 C 
ATOM      8  H11 non d ame     -11.800   9.066  70.070  0.00  0.00     0.088 H 
BRANCH   7   9
ATOM      9  N3  non d ame     -10.785   9.103  68.267  0.00  0.00    -0.346 N 
ATOM     10  C7  non d ame     -10.851   7.669  68.122  0.00  0.00     0.240 C 
ATOM     11  O3  non d ame     -11.151   7.000  69.034  0.00  0.00    -0.271 OA
ATOM     12  H10 non d ame     -10.524   9.667  67.472  0.00  0.00     0.163 HD
BRANCH  10  13
ATOM     13  C6  non d ame     -10.516   7.014  66.746  0.00  0.00     0.086 C 
ATOM     14  H6  non d ame     -11.233   7.277  65.968  0.00  0.00     0.086 H 
BRANCH  13  15
ATOM     15  N2  non d ame      -9.220   7.496  66.298  0.00  0.00    -0.343 N 
ATOM     16  C5  non d ame      -9.128   8.790  65.616  0.00  0.00     0.273 C 
ATOM     17  O2  non d ame     -10.103   9.433  65.431  0.00  0.00    -0.266 OA
ATOM     18  H5  non d ame      -8.393   6.939  66.458  0.00  0.00     0.163 HD
BRANCH  16  19
ATOM     19  C4  non d ame      -7.765   9.312  65.138  0.00  0.00     0.154 A 
ATOM     20  C1  non d ame      -6.951   8.774  64.092  0.00  0.00    -0.017 A 
ATOM     21  C2  non d ame      -5.813   9.610  64.049  0.00  0.00     0.077 A 
ATOM     22  H1  non d ame      -7.154   7.909  63.460  0.00  0.00     0.091 H 
ATOM     23  O1  non d ame      -5.966  10.519  64.967  0.00  0.00    -0.218 OA
ATOM     24  N1  non d ame      -7.097  10.366  65.616  0.00  0.00    -0.123 NA
BRANCH  21  25
ATOM     25  C3  non d ame      -4.627   9.472  63.104  0.00  0.00    -0.029 C 
ATOM     26  H2  non d ame      -4.933   9.748  62.094  0.00  0.00     0.036 H 
ATOM     27  H3  non d ame      -3.822  10.129  63.432  0.00  0.00     0.036 H 
ATOM     28  H4  non d ame      -4.277   8.439  63.108  0.00  0.00     0.036 H 
ENDBRANCH  21  25
ENDBRANCH  16  19
ENDBRANCH  13  15
BRANCH  13  29
ATOM     29  C8  non d ame     -10.486   5.514  66.894  0.00  0.00    -0.049 C 
ATOM     30  H7  non d ame      -9.623   5.225  67.494  0.00  0.00     0.030 H 
ATOM     31  H8  non d ame     -11.399   5.179  67.386  0.00  0.00     0.030 H 
ATOM     32  H9  non d ame     -10.414   5.054  65.909  0.00  0.00     0.030 H 
ENDBRANCH  13  29
ENDBRANCH  10  13
ENDBRANCH   7   9
BRANCH   7  33
ATOM     33  C11 non d ame      -9.781   9.916  70.368  0.00  0.00    -0.033 C 
ATOM     34  H12 non d ame      -9.865  10.857  70.913  0.00  0.00     0.042 H 
BRANCH  33  35
ATOM     35  C12 non d ame      -9.589   8.780  71.421  0.00  0.00    -0.071 C 
ATOM     36  H13 non d ame     -10.274   7.961  71.200  0.00  0.00     0.028 H 
ATOM     37  H14 non d ame      -8.563   8.416  71.379  0.00  0.00     0.028 H 
ATOM     38  H15 non d ame      -9.797   9.170  72.417  0.00  0.00     0.028 H 
ENDBRANCH  33  35
BRANCH  33  39
ATOM     39  C13 non d ame      -8.547  10.019  69.415  0.00  0.00    -0.071 C 
ATOM     40  H16 non d ame      -8.658  10.889  68.769  0.00  0.00     0.028 H 
ATOM     41  H17 non d ame      -7.637  10.119  70.007  0.00  0.00     0.028 H 
ATOM     42  H18 non d ame      -8.485   9.118  68.804  0.00  0.00     0.028 H 
ENDBRANCH  33  39
ENDBRANCH   7  33
ENDBRANCH   4   7
ENDBRANCH   1   3
BRANCH   1  43
ATOM     43  C15 non d ame     -11.516  14.145  68.963  0.00  0.00     0.240 C 
ATOM     44  O5  non d ame     -11.751  15.284  68.719  0.00  0.00    -0.271 OA
ATOM     45  N6  non d ame     -10.538  13.394  68.125  0.00  0.00    -0.355 N 
ATOM     46  H46 non d ame     -10.326  12.428  68.325  0.00  0.00     0.162 HD
BRANCH  45  47
ATOM     47  C20 non d ame      -9.873  14.072  66.990  0.00  0.00     0.013 C 
ATOM     48  H30 non d ame      -9.985  15.147  67.129  0.00  0.00     0.072 H 
BRANCH  47  49
ATOM     49  C21 non d ame     -10.533  13.646  65.698  0.00  0.00    -0.038 C 
ATOM     50  H31 non d ame      -9.747  13.673  64.943  0.00  0.00     0.036 H 
ATOM     51  H32 non d ame     -11.042  12.709  65.923  0.00  0.00     0.036 H 
BRANCH  49  52
ATOM     52  C22 non d ame     -11.622  14.634  65.228  0.00  0.00     0.018 C 
ATOM     53  H33 non d ame     -12.051  14.195  64.327  0.00  0.00     0.048 H 
ATOM     54  H34 non d ame     -12.253  14.814  66.099  0.00  0.00     0.048 H 
BRANCH  52  55
ATOM     55  C23 non d ame     -11.068  16.024  64.806  0.00  0.00     0.259 C 
ATOM     56  O7  non d ame     -11.606  16.654  63.954  0.00  0.00    -0.265 OA
BRANCH  55  57
ATOM     57  O8  non d ame      -9.901  16.531  65.442  0.00  0.00    -0.317 OA
BRANCH  57  58
ATOM     58  C29 non d ame     -10.154  17.605  66.352  0.00  0.00     0.052 C 
ATOM     59  H47 non d ame     -10.610  18.395  65.756  0.00  0.00     0.082 H 
ATOM     60  H48 non d ame     -10.704  17.165  67.184  0.00  0.00     0.082 H 
BRANCH  58  61
ATOM     61  C35 non d ame      -8.788  18.116  66.882  0.00  0.00    -0.034 A 
ATOM     62  C30 non d ame      -8.745  19.040  67.920  0.00  0.00    -0.075 A 
ATOM     63  C31 non d ame      -7.518  19.499  68.396  0.00  0.00    -0.082 A 
ATOM     64  H49 non d ame      -9.673  19.405  68.362  0.00  0.00     0.084 H 
ATOM     65  C32 non d ame      -6.330  19.032  67.827  0.00  0.00    -0.083 A 
ATOM     66  H50 non d ame      -7.487  20.222  69.212  0.00  0.00     0.083 H 
ATOM     67  C33 non d ame      -6.378  18.112  66.789  0.00  0.00    -0.082 A 
ATOM     68  H51 non d ame      -5.366  19.385  68.194  0.00  0.00     0.083 H 
ATOM     69  C34 non d ame      -7.602  17.649  66.312  0.00  0.00    -0.075 A 
ATOM     70  H52 non d ame      -5.449  17.751  66.346  0.00  0.00     0.083 H 
ATOM     71  H53 non d ame      -7.631  16.925  65.496  0.00  0.00     0.084 H 
ENDBRANCH  58  61
ENDBRANCH  57  58
ENDBRANCH  55  57
ENDBRANCH  52  55
ENDBRANCH  49  52
ENDBRANCH  47  49
BRANCH  47  72
ATOM     72  C24 non d ame      -8.394  13.692  66.957  0.00  0.00    -0.039 C 
ATOM     73  H35 non d ame      -8.366  12.665  66.592  0.00  0.00     0.036 H 
ATOM     74  H36 non d ame      -7.904  14.484  66.391  0.00  0.00     0.036 H 
BRANCH  72  75
ATOM     75  C25 non d ame      -7.749  13.690  68.423  0.00  0.00    -0.001 C 
ATOM     76  C26 non d ame      -7.771  15.211  69.047  0.00  0.00    -0.035 C 
ATOM     77  C27 non d ame      -6.527  15.520  69.486  0.00  0.00     0.085 C 
ATOM     78  H38 non d ame      -7.949  15.937  68.254  0.00  0.00     0.036 H 
ATOM     79  H39 non d ame      -8.375  15.235  69.954  0.00  0.00     0.036 H 
ATOM     80  N5  non d ame      -5.589  14.479  68.924  0.00  0.00    -0.049 N 
ATOM     81  H40 non d ame      -6.292  16.488  69.040  0.00  0.00     0.075 H 
ATOM     82  H41 non d ame      -6.567  15.415  70.570  0.00  0.00     0.075 H 
ATOM     83  C28 non d ame      -6.526  13.276  68.396  0.00  0.00     0.193 C 
ATOM     84  H42 non d ame      -5.132  14.904  68.130  0.00  0.00     0.280 HD
ATOM     85  H43 non d ame      -5.039  14.141  69.701  0.00  0.00     0.280 HD
ATOM     86  H44 non d ame      -6.617  12.352  68.968  0.00  0.00     0.129 H 
ATOM     87  H37 non d ame      -8.149  12.892  69.049  0.00  0.00     0.046 H 
BRANCH  83  88
ATOM     88  O6  non d ame      -6.122  12.876  67.085  0.00  0.00    -0.369 OA
ATOM     89  H45 non d ame      -6.444  11.989  66.908  0.00  0.00     0.212 HD
ENDBRANCH  83  88
ENDBRANCH  72  75
ENDBRANCH  47  72
ENDBRANCH  45  47
ENDBRANCH   1  43
BRANCH   1  90
ATOM     90  C16 non d ame     -12.047  14.287  71.416  0.00  0.00    -0.035 C 
ATOM     91  H21 non d ame     -11.921  13.569  72.227  0.00  0.00     0.037 H 
ATOM     92  H22 non d ame     -11.248  14.991  71.183  0.00  0.00     0.037 H 
BRANCH  90  93
ATOM     93  C17 non d ame     -13.301  15.145  71.777  0.00  0.00    -0.059 C 
ATOM     94  H23 non d ame     -13.421  15.898  70.998  0.00  0.00     0.038 H 
BRANCH  93  95
ATOM     95  C18 non d ame     -14.608  14.290  71.820  0.00  0.00    -0.073 C 
ATOM     96  H24 non d ame     -15.404  14.818  71.296  0.00  0.00     0.028 H 
ATOM     97  H25 non d ame     -14.429  13.329  71.336  0.00  0.00     0.028 H 
ATOM     98  H26 non d ame     -14.900  14.126  72.857  0.00  0.00     0.028 H 
ENDBRANCH  93  95
BRANCH  93  99
ATOM     99  C19 non d ame     -13.092  15.888  73.099  0.00  0.00    -0.073 C 
ATOM    100  H27 non d ame     -12.395  16.712  72.947  0.00  0.00     0.028 H 
ATOM    101  H28 non d ame     -14.048  16.280  73.450  0.00  0.00     0.028 H 
ATOM    102  H29 non d ame     -12.687  15.201  73.842  0.00  0.00     0.028 H 
ENDBRANCH  93  99
ENDBRANCH  90  93
ENDBRANCH   1  90
TORSDOF 26
ENDMDL
MODEL 15
REMARK VINA RESULT:      -5.9      2.060      6.360
REMARK  26 active torsions:
REMARK  status: ('A' for Active; 'I' for Inactive)
REMARK    1  A    between atoms: C2_2  and  C3_3 
REMARK    2  A    between atoms: C4_6  and  C5_7 
REMARK       I    between atoms: C5_7  and  N2_9 
REMARK    3  A    between atoms: N2_9  and  C6_10 
REMARK    4  A    between atoms: C6_10  and  C7_11 
REMARK    5  A    between atoms: C6_10  and  C8_13 
REMARK       I    between atoms: C7_11  and  N3_14 
REMARK    6  A    between atoms: N3_14  and  C9_15 
REMARK    7  A    between atoms: C9_15  and  C10_16 
REMARK    8  A    between atoms: C9_15  and  C11_18 
REMARK       I    between atoms: C10_16  and  N4_21 
REMARK    9  A    between atoms: C11_18  and  C12_19 
REMARK   10  A    between atoms: C11_18  and  C13_20 
REMARK   11  A    between atoms: N4_21  and  C14_22 
REMARK   12  A    between atoms: C14_22  and  C15_23 
REMARK   13  A    between atoms: C14_22  and  C16_25 
REMARK       I    between atoms: C15_23  and  N6_40 
REMARK   14  A    between atoms: C16_25  and  C17_26 
REMARK   15  A    between atoms: C17_26  and  C18_27 
REMARK   16  A    between atoms: C17_26  and  C19_28 
REMARK   17  A    between atoms: C20_29  and  C21_30 
REMARK   18  A    between atoms: C20_29  and  C24_33 
REMARK   19  A    between atoms: C20_29  and  N6_40 
REMARK   20  A    between atoms: C21_30  and  C22_31 
REMARK   21  A    between atoms: C22_31  and  C23_32 
REMARK   22  A    between atoms: C23_32  and  O8_43 
REMARK   23  A    between atoms: C24_33  and  C25_34 
REMARK   24  A    between atoms: C28_38  and  O6_39 
REMARK   25  A    between atoms: C29_42  and  O8_43 
REMARK   26  A    between atoms: C29_42  and  C35_49 
ROOT
ATOM      1  C14 non d ame      -6.811  10.612  67.001  0.00  0.00     0.089 C 
ATOM      2  H20 non d ame      -5.928  10.588  67.641  0.00  0.00     0.087 H 
ENDROOT
BRANCH   1   3
ATOM      3  N4  non d ame      -7.400   9.281  67.019  0.00  0.00    -0.346 N 
ATOM      4  C10 non d ame      -6.627   8.113  67.575  0.00  0.00     0.241 C 
ATOM      5  O4  non d ame      -5.530   8.267  68.001  0.00  0.00    -0.271 OA
ATOM      6  H19 non d ame      -8.334   9.170  66.650  0.00  0.00     0.163 HD
BRANCH   4   7
ATOM      7  C9  non d ame      -7.254   6.744  67.591  0.00  0.00     0.092 C 
ATOM      8  H11 non d ame      -6.698   6.102  68.274  0.00  0.00     0.088 H 
BRANCH   7   9
ATOM      9  N3  non d ame      -8.624   6.839  68.105  0.00  0.00    -0.346 N 
ATOM     10  C7  non d ame      -8.859   6.869  69.528  0.00  0.00     0.240 C 
ATOM     11  O3  non d ame      -7.957   6.815  70.273  0.00  0.00    -0.271 OA
ATOM     12  H10 non d ame      -9.412   6.885  67.475  0.00  0.00     0.163 HD
BRANCH  10  13
ATOM     13  C6  non d ame     -10.319   6.968  70.069  0.00  0.00     0.086 C 
ATOM     14  H6  non d ame     -10.408   6.638  71.104  0.00  0.00     0.086 H 
BRANCH  13  15
ATOM     15  N2  non d ame     -10.740   8.358  70.039  0.00  0.00    -0.343 N 
ATOM     16  C5  non d ame     -11.655   8.858  71.067  0.00  0.00     0.273 C 
ATOM     17  O2  non d ame     -12.049   8.132  71.913  0.00  0.00    -0.266 OA
ATOM     18  H5  non d ame     -10.400   8.971  69.311  0.00  0.00     0.163 HD
BRANCH  16  19
ATOM     19  C4  non d ame     -12.107  10.326  71.048  0.00  0.00     0.154 A 
ATOM     20  C1  non d ame     -11.629  11.367  70.191  0.00  0.00    -0.017 A 
ATOM     21  C2  non d ame     -12.358  12.516  70.571  0.00  0.00     0.077 A 
ATOM     22  H1  non d ame     -10.869  11.300  69.412  0.00  0.00     0.091 H 
ATOM     23  O1  non d ame     -13.159  12.164  71.534  0.00  0.00    -0.218 OA
ATOM     24  N1  non d ame     -13.031  10.892  71.830  0.00  0.00    -0.123 NA
BRANCH  21  25
ATOM     25  C3  non d ame     -12.229  13.907  69.965  0.00  0.00    -0.029 C 
ATOM     26  H2  non d ame     -12.102  13.824  68.886  0.00  0.00     0.036 H 
ATOM     27  H3  non d ame     -13.130  14.482  70.182  0.00  0.00     0.036 H 
ATOM     28  H4  non d ame     -11.364  14.413  70.395  0.00  0.00     0.036 H 
ENDBRANCH  21  25
ENDBRANCH  16  19
ENDBRANCH  13  15
BRANCH  13  29
ATOM     29  C8  non d ame     -11.234   6.132  69.211  0.00  0.00    -0.049 C 
ATOM     30  H7  non d ame     -11.413   6.644  68.265  0.00  0.00     0.030 H 
ATOM     31  H8  non d ame     -10.768   5.165  69.018  0.00  0.00     0.030 H 
ATOM     32  H9  non d ame     -12.181   5.983  69.728  0.00  0.00     0.030 H 
ENDBRANCH  13  29
ENDBRANCH  10  13
ENDBRANCH   7   9
BRANCH   7  33
ATOM     33  C11 non d ame      -7.286   6.171  66.143  0.00  0.00    -0.033 C 
ATOM     34  H12 non d ame      -7.739   6.926  65.501  0.00  0.00     0.042 H 
BRANCH  33  35
ATOM     35  C12 non d ame      -5.845   5.902  65.607  0.00  0.00    -0.071 C 
ATOM     36  H13 non d ame      -5.870   5.076  64.896  0.00  0.00     0.028 H 
ATOM     37  H14 non d ame      -5.470   6.797  65.111  0.00  0.00     0.028 H 
ATOM     38  H15 non d ame      -5.190   5.646  66.439  0.00  0.00     0.028 H 
ENDBRANCH  33  35
BRANCH  33  39
ATOM     39  C13 non d ame      -8.167   4.883  66.070  0.00  0.00    -0.071 C 
ATOM     40  H16 non d ame      -7.844   4.269  65.230  0.00  0.00     0.028 H 
ATOM     41  H17 non d ame      -8.060   4.317  66.996  0.00  0.00     0.028 H 
ATOM     42  H18 non d ame      -9.211   5.164  65.935  0.00  0.00     0.028 H 
ENDBRANCH  33  39
ENDBRANCH   7  33
ENDBRANCH   4   7
ENDBRANCH   1   3
BRANCH   1  43
ATOM     43  C15 non d ame      -7.874  11.631  67.503  0.00  0.00     0.240 C 
ATOM     44  O5  non d ame      -8.233  11.601  68.636  0.00  0.00    -0.271 OA
ATOM     45  N6  non d ame      -8.438  12.651  66.574  0.00  0.00    -0.355 N 
ATOM     46  H46 non d ame      -8.137  12.689  65.611  0.00  0.00     0.162 HD
BRANCH  45  47
ATOM     47  C20 non d ame      -9.446  13.614  67.067  0.00  0.00     0.013 C 
ATOM     48  H30 non d ame      -9.384  13.636  68.155  0.00  0.00     0.072 H 
BRANCH  47  49
ATOM     49  C21 non d ame     -10.823  13.160  66.637  0.00  0.00    -0.038 C 
ATOM     50  H31 non d ame     -10.731  12.093  66.432  0.00  0.00     0.036 H 
ATOM     51  H32 non d ame     -11.503  13.510  67.413  0.00  0.00     0.036 H 
BRANCH  49  52
ATOM     52  C22 non d ame     -11.287  13.818  65.319  0.00  0.00     0.018 C 
ATOM     53  H33 non d ame     -12.357  13.991  65.437  0.00  0.00     0.048 H 
ATOM     54  H34 non d ame     -10.613  14.660  65.157  0.00  0.00     0.048 H 
BRANCH  52  55
ATOM     55  C23 non d ame     -11.134  12.902  64.074  0.00  0.00     0.259 C 
ATOM     56  O7  non d ame     -11.998  12.843  63.259  0.00  0.00    -0.265 OA
BRANCH  55  57
ATOM     57  O8  non d ame      -9.955  12.122  63.922  0.00  0.00    -0.317 OA
BRANCH  57  58
ATOM     58  C29 non d ame     -10.182  10.710  63.951  0.00  0.00     0.052 C 
ATOM     59  H47 non d ame     -10.199  10.436  65.006  0.00  0.00     0.082 H 
ATOM     60  H48 non d ame     -11.061  10.540  63.330  0.00  0.00     0.082 H 
BRANCH  58  61
ATOM     61  C35 non d ame      -8.967  10.015  63.282  0.00  0.00    -0.034 A 
ATOM     62  C30 non d ame      -8.240  10.678  62.298  0.00  0.00    -0.075 A 
ATOM     63  C31 non d ame      -7.148  10.054  61.696  0.00  0.00    -0.082 A 
ATOM     64  H49 non d ame      -8.526  11.687  61.999  0.00  0.00     0.084 H 
ATOM     65  C32 non d ame      -6.785   8.760  62.081  0.00  0.00    -0.083 A 
ATOM     66  H50 non d ame      -6.579  10.577  60.928  0.00  0.00     0.083 H 
ATOM     67  C33 non d ame      -7.515   8.101  63.060  0.00  0.00    -0.082 A 
ATOM     68  H51 non d ame      -5.933   8.265  61.616  0.00  0.00     0.083 H 
ATOM     69  C34 non d ame      -8.606   8.722  63.666  0.00  0.00    -0.075 A 
ATOM     70  H52 non d ame      -7.231   7.091  63.356  0.00  0.00     0.083 H 
ATOM     71  H53 non d ame      -9.174   8.199  64.435  0.00  0.00     0.084 H 
ENDBRANCH  58  61
ENDBRANCH  57  58
ENDBRANCH  55  57
ENDBRANCH  52  55
ENDBRANCH  49  52
ENDBRANCH  47  49
BRANCH  47  72
ATOM     72  C24 non d ame      -9.163  14.999  66.490  0.00  0.00    -0.039 C 
ATOM     73  H35 non d ame      -8.150  14.945  66.088  0.00  0.00     0.036 H 
ATOM     74  H36 non d ame     -10.001  15.214  65.827  0.00  0.00     0.036 H 
BRANCH  72  75
ATOM     75  C25 non d ame      -9.159  16.126  67.629  0.00  0.00    -0.001 C 
ATOM     76  C26 non d ame     -10.638  16.838  67.717  0.00  0.00    -0.035 C 
ATOM     77  C27 non d ame     -10.480  18.182  67.656  0.00  0.00     0.085 C 
ATOM     78  H38 non d ame     -11.217  16.608  66.823  0.00  0.00     0.036 H 
ATOM     79  H39 non d ame     -11.072  16.677  68.704  0.00  0.00     0.036 H 
ATOM     80  N5  non d ame      -9.063  18.440  67.206  0.00  0.00    -0.049 N 
ATOM     81  H40 non d ame     -11.167  18.521  66.880  0.00  0.00     0.075 H 
ATOM     82  H41 non d ame     -10.598  18.535  68.680  0.00  0.00     0.075 H 
ATOM     83  C28 non d ame      -8.280  17.039  67.380  0.00  0.00     0.193 C 
ATOM     84  H42 non d ame      -9.111  18.661  66.222  0.00  0.00     0.280 HD
ATOM     85  H43 non d ame      -8.673  19.108  67.855  0.00  0.00     0.280 HD
ATOM     86  H44 non d ame      -7.595  16.887  68.215  0.00  0.00     0.129 H 
ATOM     87  H37 non d ame      -8.724  15.768  68.562  0.00  0.00     0.046 H 
BRANCH  83  88
ATOM     88  O6  non d ame      -7.520  16.749  66.206  0.00  0.00    -0.369 OA
ATOM     89  H45 non d ame      -7.994  16.113  65.666  0.00  0.00     0.212 HD
ENDBRANCH  83  88
ENDBRANCH  72  75
ENDBRANCH  47  72
ENDBRANCH  45  47
ENDBRANCH   1  43
BRANCH   1  90
ATOM     90  C16 non d ame      -6.405  10.956  65.577  0.00  0.00    -0.035 C 
ATOM     91  H21 non d ame      -6.880  10.200  64.951  0.00  0.00     0.037 H 
ATOM     92  H22 non d ame      -6.662  12.008  65.450  0.00  0.00     0.037 H 
BRANCH  90  93
ATOM     93  C17 non d ame      -4.869  10.842  65.318  0.00  0.00    -0.059 C 
ATOM     94  H23 non d ame      -4.616  11.539  64.520  0.00  0.00     0.038 H 
BRANCH  93  95
ATOM     95  C18 non d ame      -4.029  11.233  66.576  0.00  0.00    -0.073 C 
ATOM     96  H24 non d ame      -4.595  11.937  67.186  0.00  0.00     0.028 H 
ATOM     97  H25 non d ame      -3.812  10.338  67.160  0.00  0.00     0.028 H 
ATOM     98  H26 non d ame      -3.094  11.695  66.259  0.00  0.00     0.028 H 
ENDBRANCH  93  95
BRANCH  93  99
ATOM     99  C19 non d ame      -4.500   9.439  64.831  0.00  0.00    -0.073 C 
ATOM    100  H27 non d ame      -4.693   9.363  63.760  0.00  0.00     0.028 H 
ATOM    101  H28 non d ame      -3.442   9.254  65.023  0.00  0.00     0.028 H 
ATOM    102  H29 non d ame      -5.100   8.700  65.362  0.00  0.00     0.028 H 
ENDBRANCH  93  99
ENDBRANCH  90  93
ENDBRANCH   1  90
TORSDOF 26
ENDMDL
MODEL 16
REMARK VINA RESULT:      -5.9      2.362      7.382
REMARK  26 active torsions:
REMARK  status: ('A' for Active; 'I' for Inactive)
REMARK    1  A    between atoms: C2_2  and  C3_3 
REMARK    2  A    between atoms: C4_6  and  C5_7 
REMARK       I    between atoms: C5_7  and  N2_9 
REMARK    3  A    between atoms: N2_9  and  C6_10 
REMARK    4  A    between atoms: C6_10  and  C7_11 
REMARK    5  A    between atoms: C6_10  and  C8_13 
REMARK       I    between atoms: C7_11  and  N3_14 
REMARK    6  A    between atoms: N3_14  and  C9_15 
REMARK    7  A    between atoms: C9_15  and  C10_16 
REMARK    8  A    between atoms: C9_15  and  C11_18 
REMARK       I    between atoms: C10_16  and  N4_21 
REMARK    9  A    between atoms: C11_18  and  C12_19 
REMARK   10  A    between atoms: C11_18  and  C13_20 
REMARK   11  A    between atoms: N4_21  and  C14_22 
REMARK   12  A    between atoms: C14_22  and  C15_23 
REMARK   13  A    between atoms: C14_22  and  C16_25 
REMARK       I    between atoms: C15_23  and  N6_40 
REMARK   14  A    between atoms: C16_25  and  C17_26 
REMARK   15  A    between atoms: C17_26  and  C18_27 
REMARK   16  A    between atoms: C17_26  and  C19_28 
REMARK   17  A    between atoms: C20_29  and  C21_30 
REMARK   18  A    between atoms: C20_29  and  C24_33 
REMARK   19  A    between atoms: C20_29  and  N6_40 
REMARK   20  A    between atoms: C21_30  and  C22_31 
REMARK   21  A    between atoms: C22_31  and  C23_32 
REMARK   22  A    between atoms: C23_32  and  O8_43 
REMARK   23  A    between atoms: C24_33  and  C25_34 
REMARK   24  A    between atoms: C28_38  and  O6_39 
REMARK   25  A    between atoms: C29_42  and  O8_43 
REMARK   26  A    between atoms: C29_42  and  C35_49 
ROOT
ATOM      1  C14 non d ame      -7.517  10.544  68.872  0.00  0.00     0.089 C 
ATOM      2  H20 non d ame      -7.720  11.059  69.811  0.00  0.00     0.087 H 
ENDROOT
BRANCH   1   3
ATOM      3  N4  non d ame      -8.268   9.297  68.885  0.00  0.00    -0.346 N 
ATOM      4  C10 non d ame      -9.706   9.279  69.338  0.00  0.00     0.241 C 
ATOM      5  O4  non d ame     -10.238  10.280  69.690  0.00  0.00    -0.271 OA
ATOM      6  H19 non d ame      -7.797   8.456  68.584  0.00  0.00     0.163 HD
BRANCH   4   7
ATOM      7  C9  non d ame     -10.470   7.981  69.339  0.00  0.00     0.092 C 
ATOM      8  H11 non d ame     -11.416   8.121  68.815  0.00  0.00     0.088 H 
BRANCH   7   9
ATOM      9  N3  non d ame      -9.712   6.966  68.601  0.00  0.00    -0.346 N 
ATOM     10  C7  non d ame     -10.220   6.454  67.353  0.00  0.00     0.240 C 
ATOM     11  O3  non d ame     -11.238   6.845  66.928  0.00  0.00    -0.271 OA
ATOM     12  H10 non d ame      -8.833   6.618  68.956  0.00  0.00     0.163 HD
BRANCH  10  13
ATOM     13  C6  non d ame      -9.410   5.371  66.573  0.00  0.00     0.086 C 
ATOM     14  H6  non d ame      -9.981   4.920  65.762  0.00  0.00     0.086 H 
BRANCH  13  15
ATOM     15  N2  non d ame      -8.248   5.999  65.965  0.00  0.00    -0.343 N 
ATOM     16  C5  non d ame      -7.945   5.743  64.556  0.00  0.00     0.273 C 
ATOM     17  O2  non d ame      -8.640   5.028  63.921  0.00  0.00    -0.266 OA
ATOM     18  H5  non d ame      -7.658   6.607  66.517  0.00  0.00     0.163 HD
BRANCH  16  19
ATOM     19  C4  non d ame      -6.721   6.401  63.900  0.00  0.00     0.154 A 
ATOM     20  C1  non d ame      -6.399   7.795  63.874  0.00  0.00    -0.017 A 
ATOM     21  C2  non d ame      -5.185   7.875  63.155  0.00  0.00     0.077 A 
ATOM     22  H1  non d ame      -6.959   8.622  64.310  0.00  0.00     0.091 H 
ATOM     23  O1  non d ame      -4.857   6.663  62.814  0.00  0.00    -0.218 OA
ATOM     24  N1  non d ame      -5.738   5.786  63.236  0.00  0.00    -0.123 NA
BRANCH  21  25
ATOM     25  C3  non d ame      -4.406   9.144  62.839  0.00  0.00    -0.029 C 
ATOM     26  H2  non d ame      -4.961  10.011  63.199  0.00  0.00     0.036 H 
ATOM     27  H3  non d ame      -3.434   9.106  63.332  0.00  0.00     0.036 H 
ATOM     28  H4  non d ame      -4.264   9.225  61.761  0.00  0.00     0.036 H 
ENDBRANCH  21  25
ENDBRANCH  16  19
ENDBRANCH  13  15
BRANCH  13  29
ATOM     29  C8  non d ame      -8.972   4.286  67.524  0.00  0.00    -0.049 C 
ATOM     30  H7  non d ame      -9.824   3.652  67.768  0.00  0.00     0.030 H 
ATOM     31  H8  non d ame      -8.193   3.685  67.055  0.00  0.00     0.030 H 
ATOM     32  H9  non d ame      -8.583   4.738  68.436  0.00  0.00     0.030 H 
ENDBRANCH  13  29
ENDBRANCH  10  13
ENDBRANCH   7   9
BRANCH   7  33
ATOM     33  C11 non d ame     -10.679   7.504  70.806  0.00  0.00    -0.033 C 
ATOM     34  H12 non d ame     -10.522   8.364  71.457  0.00  0.00     0.042 H 
BRANCH  33  35
ATOM     35  C12 non d ame     -12.137   7.000  71.038  0.00  0.00    -0.071 C 
ATOM     36  H13 non d ame     -12.614   7.608  71.808  0.00  0.00     0.028 H 
ATOM     37  H14 non d ame     -12.702   7.082  70.110  0.00  0.00     0.028 H 
ATOM     38  H15 non d ame     -12.115   5.959  71.360  0.00  0.00     0.028 H 
ENDBRANCH  33  35
BRANCH  33  39
ATOM     39  C13 non d ame      -9.633   6.409  71.192  0.00  0.00    -0.071 C 
ATOM     40  H16 non d ame      -8.719   6.561  70.618  0.00  0.00     0.028 H 
ATOM     41  H17 non d ame      -9.409   6.479  72.257  0.00  0.00     0.028 H 
ATOM     42  H18 non d ame     -10.041   5.423  70.971  0.00  0.00     0.028 H 
ENDBRANCH  33  39
ENDBRANCH   7  33
ENDBRANCH   4   7
ENDBRANCH   1   3
BRANCH   1  43
ATOM     43  C15 non d ame      -7.963  11.377  67.636  0.00  0.00     0.240 C 
ATOM     44  O5  non d ame      -7.473  11.168  66.574  0.00  0.00    -0.271 OA
ATOM     45  N6  non d ame      -9.007  12.432  67.776  0.00  0.00    -0.355 N 
ATOM     46  H46 non d ame      -9.434  12.616  68.672  0.00  0.00     0.162 HD
BRANCH  45  47
ATOM     47  C20 non d ame      -9.421  13.215  66.592  0.00  0.00     0.013 C 
ATOM     48  H30 non d ame      -9.082  12.683  65.703  0.00  0.00     0.072 H 
BRANCH  47  49
ATOM     49  C21 non d ame      -8.781  14.584  66.649  0.00  0.00    -0.038 C 
ATOM     50  H31 non d ame      -8.123  14.565  67.518  0.00  0.00     0.036 H 
ATOM     51  H32 non d ame      -8.366  14.756  65.655  0.00  0.00     0.036 H 
BRANCH  49  52
ATOM     52  C22 non d ame      -9.803  15.713  66.898  0.00  0.00     0.018 C 
ATOM     53  H33 non d ame      -9.579  16.483  66.159  0.00  0.00     0.048 H 
ATOM     54  H34 non d ame     -10.781  15.231  66.903  0.00  0.00     0.048 H 
BRANCH  52  55
ATOM     55  C23 non d ame      -9.656  16.396  68.286  0.00  0.00     0.259 C 
ATOM     56  O7  non d ame      -8.941  17.336  68.424  0.00  0.00    -0.265 OA
BRANCH  55  57
ATOM     57  O8  non d ame     -10.377  15.878  69.398  0.00  0.00    -0.317 OA
BRANCH  57  58
ATOM     58  C29 non d ame     -11.791  15.809  69.194  0.00  0.00     0.052 C 
ATOM     59  H47 non d ame     -12.157  16.828  69.321  0.00  0.00     0.082 H 
ATOM     60  H48 non d ame     -11.927  15.296  68.243  0.00  0.00     0.082 H 
BRANCH  58  61
ATOM     61  C35 non d ame     -12.394  14.927  70.319  0.00  0.00    -0.034 A 
ATOM     62  C30 non d ame     -12.281  13.541  70.254  0.00  0.00    -0.075 A 
ATOM     63  C31 non d ame     -12.824  12.748  71.264  0.00  0.00    -0.082 A 
ATOM     64  H49 non d ame     -11.768  13.077  69.412  0.00  0.00     0.084 H 
ATOM     65  C32 non d ame     -13.484  13.346  72.341  0.00  0.00    -0.083 A 
ATOM     66  H50 non d ame     -12.731  11.664  71.212  0.00  0.00     0.083 H 
ATOM     67  C33 non d ame     -13.597  14.728  72.400  0.00  0.00    -0.082 A 
ATOM     68  H51 non d ame     -13.910  12.733  73.136  0.00  0.00     0.083 H 
ATOM     69  C34 non d ame     -13.055  15.524  71.394  0.00  0.00    -0.075 A 
ATOM     70  H52 non d ame     -14.115  15.191  73.241  0.00  0.00     0.083 H 
ATOM     71  H53 non d ame     -13.147  16.610  71.448  0.00  0.00     0.084 H 
ENDBRANCH  58  61
ENDBRANCH  57  58
ENDBRANCH  55  57
ENDBRANCH  52  55
ENDBRANCH  49  52
ENDBRANCH  47  49
BRANCH  47  72
ATOM     72  C24 non d ame     -10.941  13.363  66.575  0.00  0.00    -0.039 C 
ATOM     73  H35 non d ame     -11.270  13.083  67.576  0.00  0.00     0.036 H 
ATOM     74  H36 non d ame     -11.130  14.369  66.201  0.00  0.00     0.036 H 
BRANCH  72  75
ATOM     75  C25 non d ame     -11.625  12.341  65.549  0.00  0.00    -0.001 C 
ATOM     76  C26 non d ame     -10.468  11.460  64.781  0.00  0.00    -0.035 C 
ATOM     77  C27 non d ame     -10.681  11.530  63.445  0.00  0.00     0.085 C 
ATOM     78  H38 non d ame      -9.493  11.931  64.909  0.00  0.00     0.036 H 
ATOM     79  H39 non d ame     -10.594  10.400  65.004  0.00  0.00     0.036 H 
ATOM     80  N5  non d ame     -11.678  12.640  63.215  0.00  0.00    -0.049 N 
ATOM     81  H40 non d ame      -9.722  11.817  63.012  0.00  0.00     0.075 H 
ATOM     82  H41 non d ame     -11.139  10.579  63.174  0.00  0.00     0.075 H 
ATOM     83  C28 non d ame     -12.320  12.966  64.659  0.00  0.00     0.193 C 
ATOM     84  H42 non d ame     -11.147  13.443  62.910  0.00  0.00     0.280 HD
ATOM     85  H43 non d ame     -12.400  12.257  62.621  0.00  0.00     0.280 HD
ATOM     86  H44 non d ame     -13.323  12.619  64.911  0.00  0.00     0.129 H 
ATOM     87  H37 non d ame     -12.448  11.789  66.003  0.00  0.00     0.046 H 
BRANCH  83  88
ATOM     88  O6  non d ame     -12.338  14.377  64.883  0.00  0.00    -0.369 OA
ATOM     89  H45 non d ame     -13.016  14.780  64.336  0.00  0.00     0.212 HD
ENDBRANCH  83  88
ENDBRANCH  72  75
ENDBRANCH  47  72
ENDBRANCH  45  47
ENDBRANCH   1  43
BRANCH   1  90
ATOM     90  C16 non d ame      -6.034  10.228  68.768  0.00  0.00    -0.035 C 
ATOM     91  H21 non d ame      -5.868   9.960  67.724  0.00  0.00     0.037 H 
ATOM     92  H22 non d ame      -5.524  11.092  69.196  0.00  0.00     0.037 H 
BRANCH  90  93
ATOM     93  C17 non d ame      -5.595   8.992  69.616  0.00  0.00    -0.059 C 
ATOM     94  H23 non d ame      -6.483   8.598  70.110  0.00  0.00     0.038 H 
BRANCH  93  95
ATOM     95  C18 non d ame      -4.998   7.852  68.730  0.00  0.00    -0.073 C 
ATOM     96  H24 non d ame      -5.007   6.916  69.288  0.00  0.00     0.028 H 
ATOM     97  H25 non d ame      -5.598   7.742  67.826  0.00  0.00     0.028 H 
ATOM     98  H26 non d ame      -3.973   8.103  68.457  0.00  0.00     0.028 H 
ENDBRANCH  93  95
BRANCH  93  99
ATOM     99  C19 non d ame      -4.609   9.403  70.712  0.00  0.00    -0.073 C 
ATOM    100  H27 non d ame      -4.948  10.329  71.178  0.00  0.00     0.028 H 
ATOM    101  H28 non d ame      -4.554   8.616  71.465  0.00  0.00     0.028 H 
ATOM    102  H29 non d ame      -3.622   9.556  70.274  0.00  0.00     0.028 H 
ENDBRANCH  93  99
ENDBRANCH  90  93
ENDBRANCH   1  90
TORSDOF 26
ENDMDL
MODEL 17
REMARK VINA RESULT:      -5.8      2.446      8.414
REMARK  26 active torsions:
REMARK  status: ('A' for Active; 'I' for Inactive)
REMARK    1  A    between atoms: C2_2  and  C3_3 
REMARK    2  A    between atoms: C4_6  and  C5_7 
REMARK       I    between atoms: C5_7  and  N2_9 
REMARK    3  A    between atoms: N2_9  and  C6_10 
REMARK    4  A    between atoms: C6_10  and  C7_11 
REMARK    5  A    between atoms: C6_10  and  C8_13 
REMARK       I    between atoms: C7_11  and  N3_14 
REMARK    6  A    between atoms: N3_14  and  C9_15 
REMARK    7  A    between atoms: C9_15  and  C10_16 
REMARK    8  A    between atoms: C9_15  and  C11_18 
REMARK       I    between atoms: C10_16  and  N4_21 
REMARK    9  A    between atoms: C11_18  and  C12_19 
REMARK   10  A    between atoms: C11_18  and  C13_20 
REMARK   11  A    between atoms: N4_21  and  C14_22 
REMARK   12  A    between atoms: C14_22  and  C15_23 
REMARK   13  A    between atoms: C14_22  and  C16_25 
REMARK       I    between atoms: C15_23  and  N6_40 
REMARK   14  A    between atoms: C16_25  and  C17_26 
REMARK   15  A    between atoms: C17_26  and  C18_27 
REMARK   16  A    between atoms: C17_26  and  C19_28 
REMARK   17  A    between atoms: C20_29  and  C21_30 
REMARK   18  A    between atoms: C20_29  and  C24_33 
REMARK   19  A    between atoms: C20_29  and  N6_40 
REMARK   20  A    between atoms: C21_30  and  C22_31 
REMARK   21  A    between atoms: C22_31  and  C23_32 
REMARK   22  A    between atoms: C23_32  and  O8_43 
REMARK   23  A    between atoms: C24_33  and  C25_34 
REMARK   24  A    between atoms: C28_38  and  O6_39 
REMARK   25  A    between atoms: C29_42  and  O8_43 
REMARK   26  A    between atoms: C29_42  and  C35_49 
ROOT
ATOM      1  C14 non d ame     -11.153   8.361  70.093  0.00  0.00     0.089 C 
ATOM      2  H20 non d ame     -12.141   7.998  69.810  0.00  0.00     0.087 H 
ENDROOT
BRANCH   1   3
ATOM      3  N4  non d ame     -10.470   7.279  70.786  0.00  0.00    -0.346 N 
ATOM      4  C10 non d ame     -11.256   6.272  71.588  0.00  0.00     0.241 C 
ATOM      5  O4  non d ame     -12.437   6.355  71.663  0.00  0.00    -0.271 OA
ATOM      6  H19 non d ame      -9.464   7.227  70.711  0.00  0.00     0.163 HD
BRANCH   4   7
ATOM      7  C9  non d ame     -10.533   5.155  72.294  0.00  0.00     0.092 C 
ATOM      8  H11 non d ame     -11.040   4.213  72.086  0.00  0.00     0.088 H 
BRANCH   7   9
ATOM      9  N3  non d ame      -9.171   5.042  71.763  0.00  0.00    -0.346 N 
ATOM     10  C7  non d ame      -8.878   4.076  70.733  0.00  0.00     0.240 C 
ATOM     11  O3  non d ame      -9.725   3.382  70.320  0.00  0.00    -0.271 OA
ATOM     12  H10 non d ame      -8.429   5.633  72.111  0.00  0.00     0.163 HD
BRANCH  10  13
ATOM     13  C6  non d ame      -7.426   3.958  70.174  0.00  0.00     0.086 C 
ATOM     14  H6  non d ame      -7.188   2.953  69.827  0.00  0.00     0.086 H 
BRANCH  13  15
ATOM     15  N2  non d ame      -7.289   4.838  69.026  0.00  0.00    -0.343 N 
ATOM     16  C5  non d ame      -6.955   4.271  67.718  0.00  0.00     0.273 C 
ATOM     17  O2  non d ame      -6.795   3.105  67.601  0.00  0.00    -0.266 OA
ATOM     18  H5  non d ame      -7.425   5.833  69.136  0.00  0.00     0.163 HD
BRANCH  16  19
ATOM     19  C4  non d ame      -6.809   5.189  66.495  0.00  0.00     0.154 A 
ATOM     20  C1  non d ame      -5.923   5.016  65.384  0.00  0.00    -0.017 A 
ATOM     21  C2  non d ame      -6.176   6.122  64.542  0.00  0.00     0.077 A 
ATOM     22  H1  non d ame      -5.206   4.212  65.216  0.00  0.00     0.091 H 
ATOM     23  O1  non d ame      -7.101   6.838  65.110  0.00  0.00    -0.218 OA
ATOM     24  N1  non d ame      -7.486   6.314  66.251  0.00  0.00    -0.123 NA
BRANCH  21  25
ATOM     25  C3  non d ame      -5.492   6.418  63.213  0.00  0.00    -0.029 C 
ATOM     26  H2  non d ame      -6.064   5.967  62.402  0.00  0.00     0.036 H 
ATOM     27  H3  non d ame      -5.439   7.496  63.065  0.00  0.00     0.036 H 
ATOM     28  H4  non d ame      -4.484   6.002  63.222  0.00  0.00     0.036 H 
ENDBRANCH  21  25
ENDBRANCH  16  19
ENDBRANCH  13  15
BRANCH  13  29
ATOM     29  C8  non d ame      -6.439   4.349  71.245  0.00  0.00    -0.049 C 
ATOM     30  H7  non d ame      -5.472   4.560  70.789  0.00  0.00     0.030 H 
ATOM     31  H8  non d ame      -6.798   5.238  71.764  0.00  0.00     0.030 H 
ATOM     32  H9  non d ame      -6.333   3.531  71.957  0.00  0.00     0.030 H 
ENDBRANCH  13  29
ENDBRANCH  10  13
ENDBRANCH   7   9
BRANCH   7  33
ATOM     33  C11 non d ame     -10.469   5.462  73.819  0.00  0.00    -0.033 C 
ATOM     34  H12 non d ame     -11.473   5.737  74.141  0.00  0.00     0.042 H 
BRANCH  33  35
ATOM     35  C12 non d ame     -10.042   4.202  74.635  0.00  0.00    -0.071 C 
ATOM     36  H13 non d ame     -10.171   3.311  74.020  0.00  0.00     0.028 H 
ATOM     37  H14 non d ame      -8.996   4.295  74.925  0.00  0.00     0.028 H 
ATOM     38  H15 non d ame     -10.662   4.121  75.527  0.00  0.00     0.028 H 
ENDBRANCH  33  35
BRANCH  33  39
ATOM     39  C13 non d ame      -9.522   6.671  74.107  0.00  0.00    -0.071 C 
ATOM     40  H16 non d ame      -9.196   6.638  75.146  0.00  0.00     0.028 H 
ATOM     41  H17 non d ame      -8.652   6.615  73.452  0.00  0.00     0.028 H 
ATOM     42  H18 non d ame     -10.056   7.603  73.922  0.00  0.00     0.028 H 
ENDBRANCH  33  39
ENDBRANCH   7  33
ENDBRANCH   4   7
ENDBRANCH   1   3
BRANCH   1  43
ATOM     43  C15 non d ame     -10.303   8.772  68.857  0.00  0.00     0.240 C 
ATOM     44  O5  non d ame      -9.529   8.001  68.389  0.00  0.00    -0.271 OA
ATOM     45  N6  non d ame     -10.460  10.125  68.251  0.00  0.00    -0.355 N 
ATOM     46  H46 non d ame     -11.117  10.787  68.636  0.00  0.00     0.162 HD
BRANCH  45  47
ATOM     47  C20 non d ame      -9.645  10.501  67.075  0.00  0.00     0.013 C 
ATOM     48  H30 non d ame      -8.744   9.888  67.082  0.00  0.00     0.072 H 
BRANCH  47  49
ATOM     49  C21 non d ame      -9.276  11.964  67.169  0.00  0.00    -0.038 C 
ATOM     50  H31 non d ame      -8.196  11.986  67.317  0.00  0.00     0.036 H 
ATOM     51  H32 non d ame      -9.716  12.435  66.290  0.00  0.00     0.036 H 
BRANCH  49  52
ATOM     52  C22 non d ame      -9.899  12.661  68.397  0.00  0.00     0.018 C 
ATOM     53  H33 non d ame     -10.698  12.001  68.738  0.00  0.00     0.048 H 
ATOM     54  H34 non d ame      -9.065  12.895  69.060  0.00  0.00     0.048 H 
BRANCH  52  55
ATOM     55  C23 non d ame     -10.578  14.020  68.069  0.00  0.00     0.259 C 
ATOM     56  O7  non d ame     -10.030  14.817  67.378  0.00  0.00    -0.265 OA
BRANCH  55  57
ATOM     57  O8  non d ame     -11.860  14.308  68.613  0.00  0.00    -0.317 OA
BRANCH  57  58
ATOM     58  C29 non d ame     -11.985  15.633  69.138  0.00  0.00     0.052 C 
ATOM     59  H47 non d ame     -10.979  16.050  69.128  0.00  0.00     0.082 H 
ATOM     60  H48 non d ame     -12.778  16.106  68.559  0.00  0.00     0.082 H 
BRANCH  58  61
ATOM     61  C35 non d ame     -12.456  15.520  70.613  0.00  0.00    -0.034 A 
ATOM     62  C30 non d ame     -11.565  15.781  71.650  0.00  0.00    -0.075 A 
ATOM     63  C31 non d ame     -11.987  15.680  72.975  0.00  0.00    -0.082 A 
ATOM     64  H49 non d ame     -10.537  16.064  71.425  0.00  0.00     0.084 H 
ATOM     65  C32 non d ame     -13.305  15.314  73.261  0.00  0.00    -0.083 A 
ATOM     66  H50 non d ame     -11.288  15.887  73.785  0.00  0.00     0.083 H 
ATOM     67  C33 non d ame     -14.189  15.052  72.223  0.00  0.00    -0.082 A 
ATOM     68  H51 non d ame     -13.644  15.233  74.294  0.00  0.00     0.083 H 
ATOM     69  C34 non d ame     -13.772  15.153  70.898  0.00  0.00    -0.075 A 
ATOM     70  H52 non d ame     -15.216  14.764  72.450  0.00  0.00     0.083 H 
ATOM     71  H53 non d ame     -14.473  14.947  70.088  0.00  0.00     0.084 H 
ENDBRANCH  58  61
ENDBRANCH  57  58
ENDBRANCH  55  57
ENDBRANCH  52  55
ENDBRANCH  49  52
ENDBRANCH  47  49
BRANCH  47  72
ATOM     72  C24 non d ame     -10.442  10.257  65.795  0.00  0.00    -0.039 C 
ATOM     73  H35 non d ame      -9.871   9.517  65.234  0.00  0.00     0.036 H 
ATOM     74  H36 non d ame     -11.456  10.028  66.124  0.00  0.00     0.036 H 
BRANCH  72  75
ATOM     75  C25 non d ame     -10.526  11.576  64.889  0.00  0.00    -0.001 C 
ATOM     76  C26 non d ame     -11.989  12.299  65.087  0.00  0.00    -0.035 C 
ATOM     77  C27 non d ame     -12.534  12.523  63.867  0.00  0.00     0.085 C 
ATOM     78  H38 non d ame     -12.688  11.607  65.555  0.00  0.00     0.036 H 
ATOM     79  H39 non d ame     -11.859  13.302  65.495  0.00  0.00     0.036 H 
ATOM     80  N5  non d ame     -11.728  11.725  62.871  0.00  0.00    -0.049 N 
ATOM     81  H40 non d ame     -13.543  12.112  63.919  0.00  0.00     0.075 H 
ATOM     82  H41 non d ame     -12.387  13.585  63.673  0.00  0.00     0.075 H 
ATOM     83  C28 non d ame     -10.374  11.294  63.638  0.00  0.00     0.193 C 
ATOM     84  H42 non d ame     -12.263  10.893  62.671  0.00  0.00     0.280 HD
ATOM     85  H43 non d ame     -11.485  12.361  62.124  0.00  0.00     0.280 HD
ATOM     86  H44 non d ame      -9.434  11.805  63.432  0.00  0.00     0.129 H 
ATOM     87  H37 non d ame      -9.642  12.206  64.995  0.00  0.00     0.046 H 
BRANCH  83  88
ATOM     88  O6  non d ame     -10.109   9.906  63.427  0.00  0.00    -0.369 OA
ATOM     89  H45 non d ame      -9.160   9.764  63.393  0.00  0.00     0.212 HD
ENDBRANCH  83  88
ENDBRANCH  72  75
ENDBRANCH  47  72
ENDBRANCH  45  47
ENDBRANCH   1  43
BRANCH   1  90
ATOM     90  C16 non d ame     -11.291   9.546  71.035  0.00  0.00    -0.035 C 
ATOM     91  H21 non d ame     -11.045   9.158  72.024  0.00  0.00     0.037 H 
ATOM     92  H22 non d ame     -10.684  10.337  70.595  0.00  0.00     0.037 H 
BRANCH  90  93
ATOM     93  C17 non d ame     -12.746  10.106  71.130  0.00  0.00    -0.059 C 
ATOM     94  H23 non d ame     -13.224   9.948  70.163  0.00  0.00     0.038 H 
BRANCH  93  95
ATOM     95  C18 non d ame     -13.595   9.361  72.209  0.00  0.00    -0.073 C 
ATOM     96  H24 non d ame     -12.980   9.176  73.090  0.00  0.00     0.028 H 
ATOM     97  H25 non d ame     -14.451   9.977  72.486  0.00  0.00     0.028 H 
ATOM     98  H26 non d ame     -13.946   8.412  71.804  0.00  0.00     0.028 H 
ENDBRANCH  93  95
BRANCH  93  99
ATOM     99  C19 non d ame     -12.735  11.614  71.391  0.00  0.00    -0.073 C 
ATOM    100  H27 non d ame     -13.682  12.046  71.067  0.00  0.00     0.028 H 
ATOM    101  H28 non d ame     -12.596  11.798  72.457  0.00  0.00     0.028 H 
ATOM    102  H29 non d ame     -11.917  12.073  70.835  0.00  0.00     0.028 H 
ENDBRANCH  93  99
ENDBRANCH  90  93
ENDBRANCH   1  90
TORSDOF 26
ENDMDL
MODEL 18
REMARK VINA RESULT:      -5.8      2.578      6.979
REMARK  26 active torsions:
REMARK  status: ('A' for Active; 'I' for Inactive)
REMARK    1  A    between atoms: C2_2  and  C3_3 
REMARK    2  A    between atoms: C4_6  and  C5_7 
REMARK       I    between atoms: C5_7  and  N2_9 
REMARK    3  A    between atoms: N2_9  and  C6_10 
REMARK    4  A    between atoms: C6_10  and  C7_11 
REMARK    5  A    between atoms: C6_10  and  C8_13 
REMARK       I    between atoms: C7_11  and  N3_14 
REMARK    6  A    between atoms: N3_14  and  C9_15 
REMARK    7  A    between atoms: C9_15  and  C10_16 
REMARK    8  A    between atoms: C9_15  and  C11_18 
REMARK       I    between atoms: C10_16  and  N4_21 
REMARK    9  A    between atoms: C11_18  and  C12_19 
REMARK   10  A    between atoms: C11_18  and  C13_20 
REMARK   11  A    between atoms: N4_21  and  C14_22 
REMARK   12  A    between atoms: C14_22  and  C15_23 
REMARK   13  A    between atoms: C14_22  and  C16_25 
REMARK       I    between atoms: C15_23  and  N6_40 
REMARK   14  A    between atoms: C16_25  and  C17_26 
REMARK   15  A    between atoms: C17_26  and  C18_27 
REMARK   16  A    between atoms: C17_26  and  C19_28 
REMARK   17  A    between atoms: C20_29  and  C21_30 
REMARK   18  A    between atoms: C20_29  and  C24_33 
REMARK   19  A    between atoms: C20_29  and  N6_40 
REMARK   20  A    between atoms: C21_30  and  C22_31 
REMARK   21  A    between atoms: C22_31  and  C23_32 
REMARK   22  A    between atoms: C23_32  and  O8_43 
REMARK   23  A    between atoms: C24_33  and  C25_34 
REMARK   24  A    between atoms: C28_38  and  O6_39 
REMARK   25  A    between atoms: C29_42  and  O8_43 
REMARK   26  A    between atoms: C29_42  and  C35_49 
ROOT
ATOM      1  C14 non d ame      -7.287  12.079  68.599  0.00  0.00     0.089 C 
ATOM      2  H20 non d ame      -6.747  11.758  67.708  0.00  0.00     0.087 H 
ENDROOT
BRANCH   1   3
ATOM      3  N4  non d ame      -7.430  13.526  68.528  0.00  0.00    -0.346 N 
ATOM      4  C10 non d ame      -6.388  14.360  67.827  0.00  0.00     0.241 C 
ATOM      5  O4  non d ame      -5.441  13.846  67.330  0.00  0.00    -0.271 OA
ATOM      6  H19 non d ame      -8.242  13.945  68.959  0.00  0.00     0.163 HD
BRANCH   4   7
ATOM      7  C9  non d ame      -6.554  15.856  67.758  0.00  0.00     0.092 C 
ATOM      8  H11 non d ame      -6.310  16.198  66.753  0.00  0.00     0.088 H 
BRANCH   7   9
ATOM      9  N3  non d ame      -7.957  16.203  68.005  0.00  0.00    -0.346 N 
ATOM     10  C7  non d ame      -8.794  16.639  66.914  0.00  0.00     0.240 C 
ATOM     11  O3  non d ame      -8.354  16.717  65.832  0.00  0.00    -0.271 OA
ATOM     12  H10 non d ame      -8.350  16.142  68.933  0.00  0.00     0.163 HD
BRANCH  10  13
ATOM     13  C6  non d ame     -10.285  17.011  67.183  0.00  0.00     0.086 C 
ATOM     14  H6  non d ame     -10.976  16.483  66.526  0.00  0.00     0.086 H 
BRANCH  13  15
ATOM     15  N2  non d ame     -10.628  16.627  68.543  0.00  0.00    -0.343 N 
ATOM     16  C5  non d ame     -11.540  15.504  68.767  0.00  0.00     0.273 C 
ATOM     17  O2  non d ame     -11.995  14.916  67.847  0.00  0.00    -0.266 OA
ATOM     18  H5  non d ame     -10.238  17.137  69.323  0.00  0.00     0.163 HD
BRANCH  16  19
ATOM     19  C4  non d ame     -11.911  15.086  70.198  0.00  0.00     0.154 A 
ATOM     20  C1  non d ame     -11.871  15.901  71.374  0.00  0.00    -0.017 A 
ATOM     21  C2  non d ame     -12.303  15.054  72.419  0.00  0.00     0.077 A 
ATOM     22  H1  non d ame     -11.574  16.947  71.457  0.00  0.00     0.091 H 
ATOM     23  O1  non d ame     -12.560  13.892  71.893  0.00  0.00    -0.218 OA
ATOM     24  N1  non d ame     -12.338  13.886  70.599  0.00  0.00    -0.123 NA
BRANCH  21  25
ATOM     25  C3  non d ame     -12.443  15.432  73.887  0.00  0.00    -0.029 C 
ATOM     26  H2  non d ame     -13.096  14.716  74.387  0.00  0.00     0.036 H 
ATOM     27  H3  non d ame     -11.461  15.420  74.360  0.00  0.00     0.036 H 
ATOM     28  H4  non d ame     -12.872  16.431  73.966  0.00  0.00     0.036 H 
ENDBRANCH  21  25
ENDBRANCH  16  19
ENDBRANCH  13  15
BRANCH  13  29
ATOM     29  C8  non d ame     -10.477  18.495  67.001  0.00  0.00    -0.049 C 
ATOM     30  H7  non d ame      -9.849  18.845  66.182  0.00  0.00     0.030 H 
ATOM     31  H8  non d ame     -11.522  18.701  66.771  0.00  0.00     0.030 H 
ATOM     32  H9  non d ame     -10.198  19.012  67.919  0.00  0.00     0.030 H 
ENDBRANCH  13  29
ENDBRANCH  10  13
ENDBRANCH   7   9
BRANCH   7  33
ATOM     33  C11 non d ame      -5.659  16.528  68.840  0.00  0.00    -0.033 C 
ATOM     34  H12 non d ame      -4.629  16.490  68.484  0.00  0.00     0.042 H 
BRANCH  33  35
ATOM     35  C12 non d ame      -6.032  18.031  69.034  0.00  0.00    -0.071 C 
ATOM     36  H13 non d ame      -6.456  18.174  70.028  0.00  0.00     0.028 H 
ATOM     37  H14 non d ame      -5.137  18.644  68.929  0.00  0.00     0.028 H 
ATOM     38  H15 non d ame      -6.763  18.323  68.281  0.00  0.00     0.028 H 
ENDBRANCH  33  35
BRANCH  33  39
ATOM     39  C13 non d ame      -5.732  15.747  70.191  0.00  0.00    -0.071 C 
ATOM     40  H16 non d ame      -5.127  14.844  70.122  0.00  0.00     0.028 H 
ATOM     41  H17 non d ame      -5.354  16.378  70.996  0.00  0.00     0.028 H 
ATOM     42  H18 non d ame      -6.767  15.476  70.398  0.00  0.00     0.028 H 
ENDBRANCH  33  39
ENDBRANCH   7  33
ENDBRANCH   4   7
ENDBRANCH   1   3
BRANCH   1  43
ATOM     43  C15 non d ame      -8.705  11.445  68.687  0.00  0.00     0.240 C 
ATOM     44  O5  non d ame      -9.656  12.075  68.353  0.00  0.00    -0.271 OA
ATOM     45  N6  non d ame      -8.876  10.049  69.180  0.00  0.00    -0.355 N 
ATOM     46  H46 non d ame      -8.075   9.502  69.462  0.00  0.00     0.162 HD
BRANCH  45  47
ATOM     47  C20 non d ame     -10.231   9.460  69.256  0.00  0.00     0.013 C 
ATOM     48  H30 non d ame     -10.131   8.435  69.615  0.00  0.00     0.072 H 
BRANCH  47  49
ATOM     49  C21 non d ame     -10.857   9.467  67.880  0.00  0.00    -0.038 C 
ATOM     50  H31 non d ame     -11.931   9.377  68.044  0.00  0.00     0.036 H 
ATOM     51  H32 non d ame     -10.453  10.346  67.378  0.00  0.00     0.036 H 
BRANCH  49  52
ATOM     52  C22 non d ame     -10.443   8.248  67.027  0.00  0.00     0.018 C 
ATOM     53  H33 non d ame     -10.013   7.530  67.726  0.00  0.00     0.048 H 
ATOM     54  H34 non d ame     -11.326   7.980  66.446  0.00  0.00     0.048 H 
BRANCH  52  55
ATOM     55  C23 non d ame      -9.326   8.558  65.991  0.00  0.00     0.259 C 
ATOM     56  O7  non d ame      -8.245   8.081  66.109  0.00  0.00    -0.265 OA
BRANCH  55  57
ATOM     57  O8  non d ame      -9.608   9.433  64.905  0.00  0.00    -0.317 OA
BRANCH  57  58
ATOM     58  C29 non d ame      -9.032  10.735  65.042  0.00  0.00     0.052 C 
ATOM     59  H47 non d ame      -8.794  10.843  66.100  0.00  0.00     0.082 H 
ATOM     60  H48 non d ame      -8.239  10.787  64.297  0.00  0.00     0.082 H 
BRANCH  58  61
ATOM     61  C35 non d ame     -10.119  11.780  64.674  0.00  0.00    -0.034 A 
ATOM     62  C30 non d ame     -11.219  11.402  63.911  0.00  0.00    -0.075 A 
ATOM     63  C31 non d ame     -12.196  12.340  63.580  0.00  0.00    -0.082 A 
ATOM     64  H49 non d ame     -11.316  10.370  63.572  0.00  0.00     0.084 H 
ATOM     65  C32 non d ame     -12.068  13.662  64.014  0.00  0.00    -0.083 A 
ATOM     66  H50 non d ame     -13.057  12.040  62.984  0.00  0.00     0.083 H 
ATOM     67  C33 non d ame     -10.967  14.036  64.773  0.00  0.00    -0.082 A 
ATOM     68  H51 non d ame     -12.827  14.402  63.761  0.00  0.00     0.083 H 
ATOM     69  C34 non d ame      -9.990  13.101  65.108  0.00  0.00    -0.075 A 
ATOM     70  H52 non d ame     -10.870  15.069  65.108  0.00  0.00     0.083 H 
ATOM     71  H53 non d ame      -9.129  13.402  65.705  0.00  0.00     0.084 H 
ENDBRANCH  58  61
ENDBRANCH  57  58
ENDBRANCH  55  57
ENDBRANCH  52  55
ENDBRANCH  49  52
ENDBRANCH  47  49
BRANCH  47  72
ATOM     72  C24 non d ame     -11.096  10.276  70.214  0.00  0.00    -0.039 C 
ATOM     73  H35 non d ame     -10.437  11.048  70.614  0.00  0.00     0.036 H 
ATOM     74  H36 non d ame     -11.978  10.557  69.640  0.00  0.00     0.036 H 
BRANCH  72  75
ATOM     75  C25 non d ame     -11.599   9.396  71.454  0.00  0.00    -0.001 C 
ATOM     76  C26 non d ame     -11.809   7.834  70.984  0.00  0.00    -0.035 C 
ATOM     77  C27 non d ame     -13.046   7.428  71.359  0.00  0.00     0.085 C 
ATOM     78  H38 non d ame     -11.840   7.772  69.897  0.00  0.00     0.036 H 
ATOM     79  H39 non d ame     -11.144   7.181  71.549  0.00  0.00     0.036 H 
ATOM     80  N5  non d ame     -13.817   8.666  71.749  0.00  0.00    -0.049 N 
ATOM     81  H40 non d ame     -13.495   6.997  70.464  0.00  0.00     0.075 H 
ATOM     82  H41 non d ame     -12.894   6.811  72.244  0.00  0.00     0.075 H 
ATOM     83  C28 non d ame     -12.721   9.838  71.917  0.00  0.00     0.193 C 
ATOM     84  H42 non d ame     -14.412   8.891  70.965  0.00  0.00     0.280 HD
ATOM     85  H43 non d ame     -14.225   8.475  72.654  0.00  0.00     0.280 HD
ATOM     86  H44 non d ame     -12.410  10.168  72.908  0.00  0.00     0.129 H 
ATOM     87  H37 non d ame     -11.004   9.568  72.351  0.00  0.00     0.046 H 
BRANCH  83  88
ATOM     88  O6  non d ame     -13.155  11.019  71.240  0.00  0.00    -0.369 OA
ATOM     89  H45 non d ame     -13.163  10.860  70.293  0.00  0.00     0.212 HD
ENDBRANCH  83  88
ENDBRANCH  72  75
ENDBRANCH  47  72
ENDBRANCH  45  47
ENDBRANCH   1  43
BRANCH   1  90
ATOM     90  C16 non d ame      -6.488  11.720  69.842  0.00  0.00    -0.035 C 
ATOM     91  H21 non d ame      -6.239  12.672  70.310  0.00  0.00     0.037 H 
ATOM     92  H22 non d ame      -7.099  10.993  70.378  0.00  0.00     0.037 H 
BRANCH  90  93
ATOM     93  C17 non d ame      -5.131  11.012  69.531  0.00  0.00    -0.059 C 
ATOM     94  H23 non d ame      -5.016  10.192  70.241  0.00  0.00     0.038 H 
BRANCH  93  95
ATOM     95  C18 non d ame      -5.099  10.404  68.092  0.00  0.00    -0.073 C 
ATOM     96  H24 non d ame      -5.184  11.205  67.358  0.00  0.00     0.028 H 
ATOM     97  H25 non d ame      -4.159   9.873  67.943  0.00  0.00     0.028 H 
ATOM     98  H26 non d ame      -5.931   9.711  67.972  0.00  0.00     0.028 H 
ENDBRANCH  93  95
BRANCH  93  99
ATOM     99  C19 non d ame      -3.954  11.967  69.745  0.00  0.00    -0.073 C 
ATOM    100  H27 non d ame      -3.298  11.569  70.520  0.00  0.00     0.028 H 
ATOM    101  H28 non d ame      -3.397  12.071  68.814  0.00  0.00     0.028 H 
ATOM    102  H29 non d ame      -4.330  12.943  70.054  0.00  0.00     0.028 H 
ENDBRANCH  93  99
ENDBRANCH  90  93
ENDBRANCH   1  90
TORSDOF 26
ENDMDL
MODEL 19
REMARK VINA RESULT:      -5.8      2.833      6.922
REMARK  26 active torsions:
REMARK  status: ('A' for Active; 'I' for Inactive)
REMARK    1  A    between atoms: C2_2  and  C3_3 
REMARK    2  A    between atoms: C4_6  and  C5_7 
REMARK       I    between atoms: C5_7  and  N2_9 
REMARK    3  A    between atoms: N2_9  and  C6_10 
REMARK    4  A    between atoms: C6_10  and  C7_11 
REMARK    5  A    between atoms: C6_10  and  C8_13 
REMARK       I    between atoms: C7_11  and  N3_14 
REMARK    6  A    between atoms: N3_14  and  C9_15 
REMARK    7  A    between atoms: C9_15  and  C10_16 
REMARK    8  A    between atoms: C9_15  and  C11_18 
REMARK       I    between atoms: C10_16  and  N4_21 
REMARK    9  A    between atoms: C11_18  and  C12_19 
REMARK   10  A    between atoms: C11_18  and  C13_20 
REMARK   11  A    between atoms: N4_21  and  C14_22 
REMARK   12  A    between atoms: C14_22  and  C15_23 
REMARK   13  A    between atoms: C14_22  and  C16_25 
REMARK       I    between atoms: C15_23  and  N6_40 
REMARK   14  A    between atoms: C16_25  and  C17_26 
REMARK   15  A    between atoms: C17_26  and  C18_27 
REMARK   16  A    between atoms: C17_26  and  C19_28 
REMARK   17  A    between atoms: C20_29  and  C21_30 
REMARK   18  A    between atoms: C20_29  and  C24_33 
REMARK   19  A    between atoms: C20_29  and  N6_40 
REMARK   20  A    between atoms: C21_30  and  C22_31 
REMARK   21  A    between atoms: C22_31  and  C23_32 
REMARK   22  A    between atoms: C23_32  and  O8_43 
REMARK   23  A    between atoms: C24_33  and  C25_34 
REMARK   24  A    between atoms: C28_38  and  O6_39 
REMARK   25  A    between atoms: C29_42  and  O8_43 
REMARK   26  A    between atoms: C29_42  and  C35_49 
ROOT
ATOM      1  C14 non d ame      -6.579  14.056  67.744  0.00  0.00     0.089 C 
ATOM      2  H20 non d ame      -6.019  13.936  66.816  0.00  0.00     0.087 H 
ENDROOT
BRANCH   1   3
ATOM      3  N4  non d ame      -6.850  15.476  67.913  0.00  0.00    -0.346 N 
ATOM      4  C10 non d ame      -5.853  16.503  67.439  0.00  0.00     0.241 C 
ATOM      5  O4  non d ame      -4.838  16.163  66.927  0.00  0.00    -0.271 OA
ATOM      6  H19 non d ame      -7.719  15.744  68.353  0.00  0.00     0.163 HD
BRANCH   4   7
ATOM      7  C9  non d ame      -6.153  17.968  67.616  0.00  0.00     0.092 C 
ATOM      8  H11 non d ame      -5.807  18.514  66.738  0.00  0.00     0.088 H 
BRANCH   7   9
ATOM      9  N3  non d ame      -7.603  18.164  67.705  0.00  0.00    -0.346 N 
ATOM     10  C7  non d ame      -8.383  18.327  66.502  0.00  0.00     0.240 C 
ATOM     11  O3  non d ame      -7.859  18.305  65.456  0.00  0.00    -0.271 OA
ATOM     12  H10 non d ame      -8.069  18.187  68.601  0.00  0.00     0.163 HD
BRANCH  10  13
ATOM     13  C6  non d ame      -9.926  18.538  66.603  0.00  0.00     0.086 C 
ATOM     14  H6  non d ame     -10.468  18.086  65.773  0.00  0.00     0.086 H 
BRANCH  13  15
ATOM     15  N2  non d ame     -10.411  17.897  67.814  0.00  0.00    -0.343 N 
ATOM     16  C5  non d ame     -10.841  16.498  67.768  0.00  0.00     0.273 C 
ATOM     17  O2  non d ame     -10.796  15.898  66.751  0.00  0.00    -0.266 OA
ATOM     18  H5  non d ame     -10.448  18.419  68.679  0.00  0.00     0.163 HD
BRANCH  16  19
ATOM     19  C4  non d ame     -11.354  15.808  69.041  0.00  0.00     0.154 A 
ATOM     20  C1  non d ame     -11.238  16.280  70.387  0.00  0.00    -0.017 A 
ATOM     21  C2  non d ame     -11.866  15.289  71.175  0.00  0.00     0.077 A 
ATOM     22  H1  non d ame     -10.770  17.200  70.738  0.00  0.00     0.091 H 
ATOM     23  O1  non d ame     -12.290  14.363  70.366  0.00  0.00    -0.218 OA
ATOM     24  N1  non d ame     -12.004  14.643  69.116  0.00  0.00    -0.123 NA
BRANCH  21  25
ATOM     25  C3  non d ame     -12.018  15.305  72.690  0.00  0.00    -0.029 C 
ATOM     26  H2  non d ame     -12.419  16.268  73.006  0.00  0.00     0.036 H 
ATOM     27  H3  non d ame     -12.698  14.510  72.995  0.00  0.00     0.036 H 
ATOM     28  H4  non d ame     -11.044  15.147  73.155  0.00  0.00     0.036 H 
ENDBRANCH  21  25
ENDBRANCH  16  19
ENDBRANCH  13  15
BRANCH  13  29
ATOM     29  C8  non d ame     -10.233  20.013  66.640  0.00  0.00    -0.049 C 
ATOM     30  H7  non d ame      -9.845  20.442  67.564  0.00  0.00     0.030 H 
ATOM     31  H8  non d ame      -9.763  20.504  65.787  0.00  0.00     0.030 H 
ATOM     32  H9  non d ame     -11.311  20.161  66.596  0.00  0.00     0.030 H 
ENDBRANCH  13  29
ENDBRANCH  10  13
ENDBRANCH   7   9
BRANCH   7  33
ATOM     33  C11 non d ame      -5.482  18.480  68.925  0.00  0.00    -0.033 C 
ATOM     34  H12 non d ame      -5.312  17.616  69.566  0.00  0.00     0.042 H 
BRANCH  33  35
ATOM     35  C12 non d ame      -4.094  19.130  68.635  0.00  0.00    -0.071 C 
ATOM     36  H13 non d ame      -4.208  20.212  68.557  0.00  0.00     0.028 H 
ATOM     37  H14 non d ame      -3.407  18.896  69.448  0.00  0.00     0.028 H 
ATOM     38  H15 non d ame      -3.697  18.738  67.699  0.00  0.00     0.028 H 
ENDBRANCH  33  35
BRANCH  33  39
ATOM     39  C13 non d ame      -6.423  19.469  69.685  0.00  0.00    -0.071 C 
ATOM     40  H16 non d ame      -7.452  19.311  69.365  0.00  0.00     0.028 H 
ATOM     41  H17 non d ame      -6.346  19.291  70.759  0.00  0.00     0.028 H 
ATOM     42  H18 non d ame      -6.127  20.494  69.464  0.00  0.00     0.028 H 
ENDBRANCH  33  39
ENDBRANCH   7  33
ENDBRANCH   4   7
ENDBRANCH   1   3
BRANCH   1  43
ATOM     43  C15 non d ame      -7.934  13.292  67.715  0.00  0.00     0.240 C 
ATOM     44  O5  non d ame      -8.844  13.680  68.374  0.00  0.00    -0.271 OA
ATOM     45  N6  non d ame      -8.100  12.083  66.860  0.00  0.00    -0.355 N 
ATOM     46  H46 non d ame      -7.335  11.748  66.292  0.00  0.00     0.162 HD
BRANCH  45  47
ATOM     47  C20 non d ame      -9.395  11.369  66.842  0.00  0.00     0.013 C 
ATOM     48  H30 non d ame     -10.177  12.088  67.084  0.00  0.00     0.072 H 
BRANCH  47  49
ATOM     49  C21 non d ame      -9.371  10.265  67.875  0.00  0.00    -0.038 C 
ATOM     50  H31 non d ame      -9.980   9.461  67.461  0.00  0.00     0.036 H 
ATOM     51  H32 non d ame      -8.317  10.093  68.097  0.00  0.00     0.036 H 
BRANCH  49  52
ATOM     52  C22 non d ame     -10.035  10.676  69.207  0.00  0.00     0.018 C 
ATOM     53  H33 non d ame      -9.638   9.993  69.958  0.00  0.00     0.048 H 
ATOM     54  H34 non d ame      -9.867  11.749  69.303  0.00  0.00     0.048 H 
BRANCH  52  55
ATOM     55  C23 non d ame     -11.577  10.481  69.224  0.00  0.00     0.259 C 
ATOM     56  O7  non d ame     -12.267  11.065  68.452  0.00  0.00    -0.265 OA
BRANCH  55  57
ATOM     57  O8  non d ame     -12.158   9.605  70.182  0.00  0.00    -0.317 OA
BRANCH  57  58
ATOM     58  C29 non d ame     -11.506   9.620  71.455  0.00  0.00     0.052 C 
ATOM     59  H47 non d ame     -10.669  10.309  71.350  0.00  0.00     0.082 H 
ATOM     60  H48 non d ame     -12.290   9.823  72.185  0.00  0.00     0.082 H 
BRANCH  58  61
ATOM     61  C35 non d ame     -10.943   8.199  71.722  0.00  0.00    -0.034 A 
ATOM     62  C30 non d ame     -11.505   7.096  71.086  0.00  0.00    -0.075 A 
ATOM     63  C31 non d ame     -11.000   5.819  71.326  0.00  0.00    -0.082 A 
ATOM     64  H49 non d ame     -12.342   7.233  70.401  0.00  0.00     0.084 H 
ATOM     65  C32 non d ame      -9.929   5.647  72.207  0.00  0.00    -0.083 A 
ATOM     66  H50 non d ame     -11.441   4.958  70.824  0.00  0.00     0.083 H 
ATOM     67  C33 non d ame      -9.373   6.750  72.841  0.00  0.00    -0.082 A 
ATOM     68  H51 non d ame      -9.527   4.652  72.399  0.00  0.00     0.083 H 
ATOM     69  C34 non d ame      -9.874   8.028  72.603  0.00  0.00    -0.075 A 
ATOM     70  H52 non d ame      -8.539   6.612  73.529  0.00  0.00     0.083 H 
ATOM     71  H53 non d ame      -9.431   8.889  73.104  0.00  0.00     0.084 H 
ENDBRANCH  58  61
ENDBRANCH  57  58
ENDBRANCH  55  57
ENDBRANCH  52  55
ENDBRANCH  49  52
ENDBRANCH  47  49
BRANCH  47  72
ATOM     72  C24 non d ame      -9.635  10.769  65.459  0.00  0.00    -0.039 C 
ATOM     73  H35 non d ame      -8.651  10.468  65.098  0.00  0.00     0.036 H 
ATOM     74  H36 non d ame     -10.416  10.021  65.599  0.00  0.00     0.036 H 
BRANCH  72  75
ATOM     75  C25 non d ame     -10.203  11.858  64.431  0.00  0.00    -0.001 C 
ATOM     76  C26 non d ame     -11.592  12.513  65.019  0.00  0.00    -0.035 C 
ATOM     77  C27 non d ame     -12.549  12.438  64.063  0.00  0.00     0.085 C 
ATOM     78  H38 non d ame     -11.986  11.892  65.824  0.00  0.00     0.036 H 
ATOM     79  H39 non d ame     -11.465  13.585  65.170  0.00  0.00     0.036 H 
ATOM     80  N5  non d ame     -12.036  11.500  62.998  0.00  0.00    -0.049 N 
ATOM     81  H40 non d ame     -13.413  11.985  64.551  0.00  0.00     0.075 H 
ATOM     82  H41 non d ame     -12.623  13.442  63.647  0.00  0.00     0.075 H 
ATOM     83  C28 non d ame     -10.456  11.328  63.281  0.00  0.00     0.193 C 
ATOM     84  H42 non d ame     -12.490  10.612  63.155  0.00  0.00     0.280 HD
ATOM     85  H43 non d ame     -12.154  11.978  62.115  0.00  0.00     0.280 HD
ATOM     86  H44 non d ame      -9.723  11.842  62.660  0.00  0.00     0.129 H 
ATOM     87  H37 non d ame      -9.432  12.551  64.095  0.00  0.00     0.046 H 
BRANCH  83  88
ATOM     88  O6  non d ame     -10.095   9.946  63.233  0.00  0.00    -0.369 OA
ATOM     89  H45 non d ame      -9.339   9.793  63.803  0.00  0.00     0.212 HD
ENDBRANCH  83  88
ENDBRANCH  72  75
ENDBRANCH  47  72
ENDBRANCH  45  47
ENDBRANCH   1  43
BRANCH   1  90
ATOM     90  C16 non d ame      -5.742  13.568  68.916  0.00  0.00    -0.035 C 
ATOM     91  H21 non d ame      -4.758  14.017  68.775  0.00  0.00     0.037 H 
ATOM     92  H22 non d ame      -6.326  13.804  69.806  0.00  0.00     0.037 H 
BRANCH  90  93
ATOM     93  C17 non d ame      -5.523  12.022  68.929  0.00  0.00    -0.059 C 
ATOM     94  H23 non d ame      -6.151  11.592  68.149  0.00  0.00     0.038 H 
BRANCH  93  95
ATOM     95  C18 non d ame      -4.042  11.633  68.615  0.00  0.00    -0.073 C 
ATOM     96  H24 non d ame      -3.407  11.917  69.454  0.00  0.00     0.028 H 
ATOM     97  H25 non d ame      -3.975  10.557  68.455  0.00  0.00     0.028 H 
ATOM     98  H26 non d ame      -3.713  12.156  67.717  0.00  0.00     0.028 H 
ENDBRANCH  93  95
BRANCH  93  99
ATOM     99  C19 non d ame      -5.974  11.417  70.260  0.00  0.00    -0.073 C 
ATOM    100  H27 non d ame      -5.927  10.329  70.200  0.00  0.00     0.028 H 
ATOM    101  H28 non d ame      -5.317  11.765  71.058  0.00  0.00     0.028 H 
ATOM    102  H29 non d ame      -6.997  11.726  70.472  0.00  0.00     0.028 H 
ENDBRANCH  93  99
ENDBRANCH  90  93
ENDBRANCH   1  90
TORSDOF 26
ENDMDL
MODEL 20
REMARK VINA RESULT:      -5.7      2.630      7.513
REMARK  26 active torsions:
REMARK  status: ('A' for Active; 'I' for Inactive)
REMARK    1  A    between atoms: C2_2  and  C3_3 
REMARK    2  A    between atoms: C4_6  and  C5_7 
REMARK       I    between atoms: C5_7  and  N2_9 
REMARK    3  A    between atoms: N2_9  and  C6_10 
REMARK    4  A    between atoms: C6_10  and  C7_11 
REMARK    5  A    between atoms: C6_10  and  C8_13 
REMARK       I    between atoms: C7_11  and  N3_14 
REMARK    6  A    between atoms: N3_14  and  C9_15 
REMARK    7  A    between atoms: C9_15  and  C10_16 
REMARK    8  A    between atoms: C9_15  and  C11_18 
REMARK       I    between atoms: C10_16  and  N4_21 
REMARK    9  A    between atoms: C11_18  and  C12_19 
REMARK   10  A    between atoms: C11_18  and  C13_20 
REMARK   11  A    between atoms: N4_21  and  C14_22 
REMARK   12  A    between atoms: C14_22  and  C15_23 
REMARK   13  A    between atoms: C14_22  and  C16_25 
REMARK       I    between atoms: C15_23  and  N6_40 
REMARK   14  A    between atoms: C16_25  and  C17_26 
REMARK   15  A    between atoms: C17_26  and  C18_27 
REMARK   16  A    between atoms: C17_26  and  C19_28 
REMARK   17  A    between atoms: C20_29  and  C21_30 
REMARK   18  A    between atoms: C20_29  and  C24_33 
REMARK   19  A    between atoms: C20_29  and  N6_40 
REMARK   20  A    between atoms: C21_30  and  C22_31 
REMARK   21  A    between atoms: C22_31  and  C23_32 
REMARK   22  A    between atoms: C23_32  and  O8_43 
REMARK   23  A    between atoms: C24_33  and  C25_34 
REMARK   24  A    between atoms: C28_38  and  O6_39 
REMARK   25  A    between atoms: C29_42  and  O8_43 
REMARK   26  A    between atoms: C29_42  and  C35_49 
ROOT
ATOM      1  C14 non d ame      -9.530  10.044  66.115  0.00  0.00     0.089 C 
ATOM      2  H20 non d ame      -8.717  10.690  66.448  0.00  0.00     0.087 H 
ENDROOT
BRANCH   1   3
ATOM      3  N4  non d ame     -10.758  10.823  66.165  0.00  0.00    -0.346 N 
ATOM      4  C10 non d ame     -10.702  12.326  66.282  0.00  0.00     0.241 C 
ATOM      5  O4  non d ame      -9.657  12.885  66.337  0.00  0.00    -0.271 OA
ATOM      6  H19 non d ame     -11.637  10.328  66.119  0.00  0.00     0.163 HD
BRANCH   4   7
ATOM      7  C9  non d ame     -11.983  13.117  66.326  0.00  0.00     0.092 C 
ATOM      8  H11 non d ame     -12.799  12.461  66.631  0.00  0.00     0.088 H 
BRANCH   7   9
ATOM      9  N3  non d ame     -11.872  14.171  67.339  0.00  0.00    -0.346 N 
ATOM     10  C7  non d ame     -11.890  13.828  68.740  0.00  0.00     0.240 C 
ATOM     11  O3  non d ame     -11.993  12.710  69.070  0.00  0.00    -0.271 OA
ATOM     12  H10 non d ame     -11.784  15.140  67.070  0.00  0.00     0.163 HD
BRANCH  10  13
ATOM     13  C6  non d ame     -11.774  14.954  69.814  0.00  0.00     0.086 C 
ATOM     14  H6  non d ame     -11.020  14.739  70.571  0.00  0.00     0.086 H 
BRANCH  13  15
ATOM     15  N2  non d ame     -11.368  16.188  69.161  0.00  0.00    -0.343 N 
ATOM     16  C5  non d ame      -9.943  16.505  69.041  0.00  0.00     0.273 C 
ATOM     17  O2  non d ame      -9.132  15.763  69.475  0.00  0.00    -0.266 OA
ATOM     18  H5  non d ame     -12.068  16.818  68.796  0.00  0.00     0.163 HD
BRANCH  16  19
ATOM     19  C4  non d ame      -9.499  17.805  68.352  0.00  0.00     0.154 A 
ATOM     20  C1  non d ame      -8.420  17.968  67.426  0.00  0.00    -0.017 A 
ATOM     21  C2  non d ame      -8.432  19.340  67.092  0.00  0.00     0.077 A 
ATOM     22  H1  non d ame      -7.734  17.207  67.054  0.00  0.00     0.091 H 
ATOM     23  O1  non d ame      -9.408  19.891  67.752  0.00  0.00    -0.218 OA
ATOM     24  N1  non d ame     -10.045  19.015  68.495  0.00  0.00    -0.123 NA
BRANCH  21  25
ATOM     25  C3  non d ame      -7.479  20.044  66.134  0.00  0.00    -0.029 C 
ATOM     26  H2  non d ame      -7.886  21.020  65.868  0.00  0.00     0.036 H 
ATOM     27  H3  non d ame      -6.510  20.172  66.616  0.00  0.00     0.036 H 
ATOM     28  H4  non d ame      -7.360  19.442  65.233  0.00  0.00     0.036 H 
ENDBRANCH  21  25
ENDBRANCH  16  19
ENDBRANCH  13  15
BRANCH  13  29
ATOM     29  C8  non d ame     -13.107  15.144  70.493  0.00  0.00    -0.049 C 
ATOM     30  H7  non d ame     -13.322  14.278  71.120  0.00  0.00     0.030 H 
ATOM     31  H8  non d ame     -13.076  16.041  71.110  0.00  0.00     0.030 H 
ATOM     32  H9  non d ame     -13.887  15.248  69.739  0.00  0.00     0.030 H 
ENDBRANCH  13  29
ENDBRANCH  10  13
ENDBRANCH   7   9
BRANCH   7  33
ATOM     33  C11 non d ame     -12.241  13.764  64.934  0.00  0.00    -0.033 C 
ATOM     34  H12 non d ame     -13.291  14.055  64.897  0.00  0.00     0.042 H 
BRANCH  33  35
ATOM     35  C12 non d ame     -11.389  15.057  64.742  0.00  0.00    -0.071 C 
ATOM     36  H13 non d ame     -11.487  15.408  63.714  0.00  0.00     0.028 H 
ATOM     37  H14 non d ame     -11.743  15.830  65.424  0.00  0.00     0.028 H 
ATOM     38  H15 non d ame     -10.343  14.837  64.953  0.00  0.00     0.028 H 
ENDBRANCH  33  35
BRANCH  33  39
ATOM     39  C13 non d ame     -11.983  12.739  63.784  0.00  0.00    -0.071 C 
ATOM     40  H16 non d ame     -11.217  13.130  63.114  0.00  0.00     0.028 H 
ATOM     41  H17 non d ame     -11.645  11.793  64.209  0.00  0.00     0.028 H 
ATOM     42  H18 non d ame     -12.906  12.578  63.227  0.00  0.00     0.028 H 
ENDBRANCH  33  39
ENDBRANCH   7  33
ENDBRANCH   4   7
ENDBRANCH   1   3
BRANCH   1  43
ATOM     43  C15 non d ame      -9.321   9.540  64.658  0.00  0.00     0.240 C 
ATOM     44  O5  non d ame      -9.877  10.084  63.760  0.00  0.00    -0.271 OA
ATOM     45  N6  non d ame      -8.421   8.384  64.383  0.00  0.00    -0.355 N 
ATOM     46  H46 non d ame      -7.940   7.917  65.137  0.00  0.00     0.162 HD
BRANCH  45  47
ATOM     47  C20 non d ame      -8.232   7.919  62.992  0.00  0.00     0.013 C 
ATOM     48  H30 non d ame      -9.108   8.216  62.416  0.00  0.00     0.072 H 
BRANCH  47  49
ATOM     49  C21 non d ame      -8.096   6.413  62.983  0.00  0.00    -0.038 C 
ATOM     50  H31 non d ame      -8.935   6.044  62.393  0.00  0.00     0.036 H 
ATOM     51  H32 non d ame      -7.073   6.212  62.663  0.00  0.00     0.036 H 
BRANCH  49  52
ATOM     52  C22 non d ame      -8.243   5.790  64.388  0.00  0.00     0.018 C 
ATOM     53  H33 non d ame      -8.680   6.570  65.013  0.00  0.00     0.048 H 
ATOM     54  H34 non d ame      -8.774   4.849  64.240  0.00  0.00     0.048 H 
BRANCH  52  55
ATOM     55  C23 non d ame      -6.889   5.416  65.053  0.00  0.00     0.259 C 
ATOM     56  O7  non d ame      -5.887   5.403  64.414  0.00  0.00    -0.265 OA
BRANCH  55  57
ATOM     57  O8  non d ame      -6.861   5.078  66.434  0.00  0.00    -0.317 OA
BRANCH  57  58
ATOM     58  C29 non d ame      -7.870   4.143  66.825  0.00  0.00     0.052 C 
ATOM     59  H47 non d ame      -8.480   3.979  65.937  0.00  0.00     0.082 H 
ATOM     60  H48 non d ame      -7.339   3.309  67.283  0.00  0.00     0.082 H 
BRANCH  58  61
ATOM     61  C35 non d ame      -8.753   4.817  67.910  0.00  0.00    -0.034 A 
ATOM     62  C30 non d ame      -8.235   5.059  69.178  0.00  0.00    -0.075 A 
ATOM     63  C31 non d ame      -9.028   5.664  70.152  0.00  0.00    -0.082 A 
ATOM     64  H49 non d ame      -7.208   4.775  69.408  0.00  0.00     0.084 H 
ATOM     65  C32 non d ame     -10.345   6.025  69.855  0.00  0.00    -0.083 A 
ATOM     66  H50 non d ame      -8.618   5.854  71.144  0.00  0.00     0.083 H 
ATOM     67  C33 non d ame     -10.858   5.778  68.589  0.00  0.00    -0.082 A 
ATOM     68  H51 non d ame     -10.971   6.499  70.611  0.00  0.00     0.083 H 
ATOM     69  C34 non d ame     -10.069   5.176  67.612  0.00  0.00    -0.075 A 
ATOM     70  H52 non d ame     -11.887   6.059  68.361  0.00  0.00     0.083 H 
ATOM     71  H53 non d ame     -10.479   4.987  66.619  0.00  0.00     0.084 H 
ENDBRANCH  58  61
ENDBRANCH  57  58
ENDBRANCH  55  57
ENDBRANCH  52  55
ENDBRANCH  49  52
ENDBRANCH  47  49
BRANCH  47  72
ATOM     72  C24 non d ame      -6.971   8.548  62.403  0.00  0.00    -0.039 C 
ATOM     73  H35 non d ame      -6.473   7.745  61.859  0.00  0.00     0.036 H 
ATOM     74  H36 non d ame      -7.312   9.436  61.870  0.00  0.00     0.036 H 
BRANCH  72  75
ATOM     75  C25 non d ame      -5.965   9.040  63.547  0.00  0.00    -0.001 C 
ATOM     76  C26 non d ame      -5.675  10.651  63.384  0.00  0.00    -0.035 C 
ATOM     77  C27 non d ame      -4.336  10.855  63.380  0.00  0.00     0.085 C 
ATOM     78  H38 non d ame      -5.986  10.988  62.395  0.00  0.00     0.036 H 
ATOM     79  H39 non d ame      -6.012  11.184  64.273  0.00  0.00     0.036 H 
ATOM     80  N5  non d ame      -3.684   9.506  63.198  0.00  0.00    -0.049 N 
ATOM     81  H40 non d ame      -4.136  11.468  62.501  0.00  0.00     0.075 H 
ATOM     82  H41 non d ame      -4.097  11.233  64.374  0.00  0.00     0.075 H 
ATOM     83  C28 non d ame      -4.838   8.413  63.480  0.00  0.00     0.193 C 
ATOM     84  H42 non d ame      -3.416   9.447  62.226  0.00  0.00     0.280 HD
ATOM     85  H43 non d ame      -2.983   9.427  63.921  0.00  0.00     0.280 HD
ATOM     86  H44 non d ame      -4.861   7.863  64.421  0.00  0.00     0.129 H 
ATOM     87  H37 non d ame      -6.259   8.688  64.536  0.00  0.00     0.046 H 
BRANCH  83  88
ATOM     88  O6  non d ame      -4.835   7.418  62.456  0.00  0.00    -0.369 OA
ATOM     89  H45 non d ame      -5.598   7.543  61.886  0.00  0.00     0.212 HD
ENDBRANCH  83  88
ENDBRANCH  72  75
ENDBRANCH  47  72
ENDBRANCH  45  47
ENDBRANCH   1  43
BRANCH   1  90
ATOM     90  C16 non d ame      -9.658   8.855  67.054  0.00  0.00    -0.035 C 
ATOM     91  H21 non d ame     -10.628   8.973  67.538  0.00  0.00     0.037 H 
ATOM     92  H22 non d ame      -9.461   7.978  66.437  0.00  0.00     0.037 H 
BRANCH  90  93
ATOM     93  C17 non d ame      -8.593   8.840  68.196  0.00  0.00    -0.059 C 
ATOM     94  H23 non d ame      -8.936   8.141  68.959  0.00  0.00     0.038 H 
BRANCH  93  95
ATOM     95  C18 non d ame      -7.197   8.350  67.694  0.00  0.00    -0.073 C 
ATOM     96  H24 non d ame      -6.536   9.207  67.569  0.00  0.00     0.028 H 
ATOM     97  H25 non d ame      -6.769   7.664  68.425  0.00  0.00     0.028 H 
ATOM     98  H26 non d ame      -7.314   7.838  66.739  0.00  0.00     0.028 H 
ENDBRANCH  93  95
BRANCH  93  99
ATOM     99  C19 non d ame      -8.482  10.216  68.858  0.00  0.00    -0.073 C 
ATOM    100  H27 non d ame      -7.431  10.495  68.943  0.00  0.00     0.028 H 
ATOM    101  H28 non d ame      -9.006  10.954  68.250  0.00  0.00     0.028 H 
ATOM    102  H29 non d ame      -8.931  10.179  69.850  0.00  0.00     0.028 H 
ENDBRANCH  93  99
ENDBRANCH  90  93
ENDBRANCH   1  90
TORSDOF 26
ENDMDL
