MODEL 1
REMARK VINA RESULT:      -6.6      0.000      0.000
REMARK  26 active torsions:
REMARK  status: ('A' for Active; 'I' for Inactive)
REMARK    1  A    between atoms: C2_2  and  C3_3 
REMARK    2  A    between atoms: C4_6  and  C5_7 
REMARK       I    between atoms: C5_7  and  N2_9 
REMARK    3  A    between atoms: N2_9  and  C6_10 
REMARK    4  A    between atoms: C6_10  and  C7_11 
REMARK    5  A    between atoms: C6_10  and  C8_13 
REMARK       I    between atoms: C7_11  and  N3_14 
REMARK    6  A    between atoms: N3_14  and  C9_15 
REMARK    7  A    between atoms: C9_15  and  C10_16 
REMARK    8  A    between atoms: C9_15  and  C11_18 
REMARK       I    between atoms: C10_16  and  N4_21 
REMARK    9  A    between atoms: C11_18  and  C12_19 
REMARK   10  A    between atoms: C11_18  and  C13_20 
REMARK   11  A    between atoms: N4_21  and  C14_22 
REMARK   12  A    between atoms: C14_22  and  C15_23 
REMARK   13  A    between atoms: C14_22  and  C16_25 
REMARK       I    between atoms: C15_23  and  N6_40 
REMARK   14  A    between atoms: C16_25  and  C17_26 
REMARK   15  A    between atoms: C17_26  and  C18_27 
REMARK   16  A    between atoms: C17_26  and  C19_28 
REMARK   17  A    between atoms: C20_29  and  C21_30 
REMARK   18  A    between atoms: C20_29  and  C24_33 
REMARK   19  A    between atoms: C20_29  and  N6_40 
REMARK   20  A    between atoms: C21_30  and  C22_31 
REMARK   21  A    between atoms: C22_31  and  C23_32 
REMARK   22  A    between atoms: C23_32  and  O8_43 
REMARK   23  A    between atoms: C24_33  and  C25_34 
REMARK   24  A    between atoms: C28_38  and  O6_39 
REMARK   25  A    between atoms: C29_42  and  O8_43 
REMARK   26  A    between atoms: C29_42  and  C35_49 
ROOT
ATOM      1  C14 non d ame      -9.878  10.405  68.475  0.00  0.00     0.089 C 
ATOM      2  H20 non d ame      -9.116  10.441  69.255  0.00  0.00     0.087 H 
ENDROOT
BRANCH   1   3
ATOM      3  N4  non d ame     -10.465   9.074  68.498  0.00  0.00    -0.346 N 
ATOM      4  C10 non d ame      -9.913   8.013  69.416  0.00  0.00     0.241 C 
ATOM      5  O4  non d ame      -8.993   8.253  70.126  0.00  0.00    -0.271 OA
ATOM      6  H19 non d ame     -11.246   8.889  67.884  0.00  0.00     0.163 HD
BRANCH   4   7
ATOM      7  C9  non d ame     -10.537   6.642  69.430  0.00  0.00     0.092 C 
ATOM      8  H11 non d ame     -11.589   6.724  69.155  0.00  0.00     0.088 H 
BRANCH   7   9
ATOM      9  N3  non d ame      -9.890   5.800  68.420  0.00  0.00    -0.346 N 
ATOM     10  C7  non d ame     -10.379   5.797  67.063  0.00  0.00     0.240 C 
ATOM     11  O3  non d ame     -11.293   6.465  66.767  0.00  0.00    -0.271 OA
ATOM     12  H10 non d ame      -9.101   5.217  68.660  0.00  0.00     0.163 HD
BRANCH  10  13
ATOM     13  C6  non d ame      -9.688   4.895  65.993  0.00  0.00     0.086 C 
ATOM     14  H6  non d ame     -10.372   4.179  65.539  0.00  0.00     0.086 H 
BRANCH  13  15
ATOM     15  N2  non d ame      -9.193   5.737  64.916  0.00  0.00    -0.343 N 
ATOM     16  C5  non d ame      -8.280   6.840  65.224  0.00  0.00     0.273 C 
ATOM     17  O2  non d ame      -7.952   7.043  66.342  0.00  0.00    -0.266 OA
ATOM     18  H5  non d ame      -9.480   5.558  63.965  0.00  0.00     0.163 HD
BRANCH  16  19
ATOM     19  C4  non d ame      -7.747   7.737  64.096  0.00  0.00     0.154 A 
ATOM     20  C1  non d ame      -8.483   8.704  63.340  0.00  0.00    -0.017 A 
ATOM     21  C2  non d ame      -7.544   9.250  62.437  0.00  0.00     0.077 A 
ATOM     22  H1  non d ame      -9.537   8.968  63.432  0.00  0.00     0.091 H 
ATOM     23  O1  non d ame      -6.406   8.661  62.658  0.00  0.00    -0.218 OA
ATOM     24  N1  non d ame      -6.499   7.773  63.621  0.00  0.00    -0.123 NA
BRANCH  21  25
ATOM     25  C3  non d ame      -7.815  10.330  61.398  0.00  0.00    -0.029 C 
ATOM     26  H2  non d ame      -7.613  11.311  61.831  0.00  0.00     0.036 H 
ATOM     27  H3  non d ame      -7.168  10.175  60.535  0.00  0.00     0.036 H 
ATOM     28  H4  non d ame      -8.858  10.280  61.084  0.00  0.00     0.036 H 
ENDBRANCH  21  25
ENDBRANCH  16  19
ENDBRANCH  13  15
BRANCH  13  29
ATOM     29  C8  non d ame      -8.546   4.143  66.627  0.00  0.00    -0.049 C 
ATOM     30  H7  non d ame      -7.600   4.592  66.321  0.00  0.00     0.030 H 
ATOM     31  H8  non d ame      -8.636   4.193  67.713  0.00  0.00     0.030 H 
ATOM     32  H9  non d ame      -8.574   3.102  66.307  0.00  0.00     0.030 H 
ENDBRANCH  13  29
ENDBRANCH  10  13
ENDBRANCH   7   9
BRANCH   7  33
ATOM     33  C11 non d ame     -10.348   6.000  70.835  0.00  0.00    -0.033 C 
ATOM     34  H12 non d ame      -9.528   6.523  71.328  0.00  0.00     0.042 H 
BRANCH  33  35
ATOM     35  C12 non d ame     -11.620   6.184  71.720  0.00  0.00    -0.071 C 
ATOM     36  H13 non d ame     -11.632   5.424  72.501  0.00  0.00     0.028 H 
ATOM     37  H14 non d ame     -11.604   7.174  72.178  0.00  0.00     0.028 H 
ATOM     38  H15 non d ame     -12.511   6.084  71.101  0.00  0.00     0.028 H 
ENDBRANCH  33  35
BRANCH  33  39
ATOM     39  C13 non d ame      -9.956   4.493  70.714  0.00  0.00    -0.071 C 
ATOM     40  H16 non d ame      -9.209   4.250  71.468  0.00  0.00     0.028 H 
ATOM     41  H17 non d ame     -10.841   3.874  70.865  0.00  0.00     0.028 H 
ATOM     42  H18 non d ame      -9.546   4.303  69.722  0.00  0.00     0.028 H 
ENDBRANCH  33  39
ENDBRANCH   7  33
ENDBRANCH   4   7
ENDBRANCH   1   3
BRANCH   1  43
ATOM     43  C15 non d ame     -11.007  11.449  68.709  0.00  0.00     0.240 C 
ATOM     44  O5  non d ame     -12.122  11.196  68.385  0.00  0.00    -0.271 OA
ATOM     45  N6  non d ame     -10.700  12.762  69.344  0.00  0.00    -0.355 N 
ATOM     46  H46 non d ame      -9.757  12.987  69.627  0.00  0.00     0.162 HD
BRANCH  45  47
ATOM     47  C20 non d ame     -11.785  13.744  69.560  0.00  0.00     0.013 C 
ATOM     48  H30 non d ame     -12.706  13.190  69.742  0.00  0.00     0.072 H 
BRANCH  47  49
ATOM     49  C21 non d ame     -11.934  14.604  68.325  0.00  0.00    -0.038 C 
ATOM     50  H31 non d ame     -11.385  14.087  67.538  0.00  0.00     0.036 H 
ATOM     51  H32 non d ame     -13.005  14.780  68.218  0.00  0.00     0.036 H 
BRANCH  49  52
ATOM     52  C22 non d ame     -11.275  15.992  68.478  0.00  0.00     0.018 C 
ATOM     53  H33 non d ame     -12.098  16.700  68.574  0.00  0.00     0.048 H 
ATOM     54  H34 non d ame     -10.550  15.887  69.285  0.00  0.00     0.048 H 
BRANCH  52  55
ATOM     55  C23 non d ame     -10.466  16.442  67.230  0.00  0.00     0.259 C 
ATOM     56  O7  non d ame      -9.582  17.229  67.336  0.00  0.00    -0.265 OA
BRANCH  55  57
ATOM     57  O8  non d ame     -10.802  15.911  65.954  0.00  0.00    -0.317 OA
BRANCH  57  58
ATOM     58  C29 non d ame      -9.837  14.992  65.433  0.00  0.00     0.052 C 
ATOM     59  H47 non d ame      -9.311  15.531  64.645  0.00  0.00     0.082 H 
ATOM     60  H48 non d ame      -9.289  14.619  66.298  0.00  0.00     0.082 H 
BRANCH  58  61
ATOM     61  C35 non d ame     -10.605  13.806  64.790  0.00  0.00    -0.034 A 
ATOM     62  C30 non d ame     -11.995  13.773  64.828  0.00  0.00    -0.075 A 
ATOM     63  C31 non d ame     -12.684  12.708  64.251  0.00  0.00    -0.082 A 
ATOM     64  H49 non d ame     -12.544  14.583  65.309  0.00  0.00     0.084 H 
ATOM     65  C32 non d ame     -11.978  11.671  63.636  0.00  0.00    -0.083 A 
ATOM     66  H50 non d ame     -13.774  12.687  64.279  0.00  0.00     0.083 H 
ATOM     67  C33 non d ame     -10.591  11.706  63.604  0.00  0.00    -0.082 A 
ATOM     68  H51 non d ame     -12.509  10.835  63.181  0.00  0.00     0.083 H 
ATOM     69  C34 non d ame      -9.897  12.770  64.178  0.00  0.00    -0.075 A 
ATOM     70  H52 non d ame     -10.042  10.894  63.125  0.00  0.00     0.083 H 
ATOM     71  H53 non d ame      -8.808  12.791  64.147  0.00  0.00     0.084 H 
ENDBRANCH  58  61
ENDBRANCH  57  58
ENDBRANCH  55  57
ENDBRANCH  52  55
ENDBRANCH  49  52
ENDBRANCH  47  49
BRANCH  47  72
ATOM     72  C24 non d ame     -11.450  14.628  70.760  0.00  0.00    -0.039 C 
ATOM     73  H35 non d ame     -10.489  14.267  71.127  0.00  0.00     0.036 H 
ATOM     74  H36 non d ame     -11.546  15.652  70.400  0.00  0.00     0.036 H 
BRANCH  72  75
ATOM     75  C25 non d ame     -12.510  14.442  71.946  0.00  0.00    -0.001 C 
ATOM     76  C26 non d ame     -13.965  13.984  71.332  0.00  0.00    -0.035 C 
ATOM     77  C27 non d ame     -14.924  14.805  71.822  0.00  0.00     0.085 C 
ATOM     78  H38 non d ame     -13.993  14.171  70.259  0.00  0.00     0.036 H 
ATOM     79  H39 non d ame     -14.244  13.005  71.722  0.00  0.00     0.036 H 
ATOM     80  N5  non d ame     -14.218  15.980  72.454  0.00  0.00    -0.049 N 
ATOM     81  H40 non d ame     -15.483  15.152  70.952  0.00  0.00     0.075 H 
ATOM     82  H41 non d ame     -15.427  14.233  72.600  0.00  0.00     0.075 H 
ATOM     83  C28 non d ame     -12.672  15.540  72.605  0.00  0.00     0.193 C 
ATOM     84  H42 non d ame     -14.273  16.738  71.789  0.00  0.00     0.280 HD
ATOM     85  H43 non d ame     -14.613  16.088  73.377  0.00  0.00     0.280 HD
ATOM     86  H44 non d ame     -12.271  15.250  73.577  0.00  0.00     0.129 H 
ATOM     87  H37 non d ame     -12.110  13.847  72.768  0.00  0.00     0.046 H 
BRANCH  83  88
ATOM     88  O6  non d ame     -11.815  16.582  72.135  0.00  0.00    -0.369 OA
ATOM     89  H45 non d ame     -10.902  16.357  72.327  0.00  0.00     0.212 HD
ENDBRANCH  83  88
ENDBRANCH  72  75
ENDBRANCH  47  72
ENDBRANCH  45  47
ENDBRANCH   1  43
BRANCH   1  90
ATOM     90  C16 non d ame      -9.235  10.642  67.118  0.00  0.00    -0.035 C 
ATOM     91  H21 non d ame      -9.193   9.661  66.644  0.00  0.00     0.037 H 
ATOM     92  H22 non d ame      -9.816  11.443  66.660  0.00  0.00     0.037 H 
BRANCH  90  93
ATOM     93  C17 non d ame      -7.763  11.155  67.202  0.00  0.00    -0.059 C 
ATOM     94  H23 non d ame      -7.320  10.743  68.108  0.00  0.00     0.038 H 
BRANCH  93  95
ATOM     95  C18 non d ame      -6.901  10.677  65.990  0.00  0.00    -0.073 C 
ATOM     96  H24 non d ame      -6.328   9.795  66.277  0.00  0.00     0.028 H 
ATOM     97  H25 non d ame      -7.556  10.428  65.154  0.00  0.00     0.028 H 
ATOM     98  H26 non d ame      -6.219  11.473  65.692  0.00  0.00     0.028 H 
ENDBRANCH  93  95
BRANCH  93  99
ATOM     99  C19 non d ame      -7.723  12.680  67.330  0.00  0.00    -0.073 C 
ATOM    100  H27 non d ame      -8.741  13.069  67.365  0.00  0.00     0.028 H 
ATOM    101  H28 non d ame      -7.198  12.954  68.246  0.00  0.00     0.028 H 
ATOM    102  H29 non d ame      -7.200  13.104  66.473  0.00  0.00     0.028 H 
ENDBRANCH  93  99
ENDBRANCH  90  93
ENDBRANCH   1  90
TORSDOF 26
ENDMDL
MODEL 2
REMARK VINA RESULT:      -6.6      3.535      7.854
REMARK  26 active torsions:
REMARK  status: ('A' for Active; 'I' for Inactive)
REMARK    1  A    between atoms: C2_2  and  C3_3 
REMARK    2  A    between atoms: C4_6  and  C5_7 
REMARK       I    between atoms: C5_7  and  N2_9 
REMARK    3  A    between atoms: N2_9  and  C6_10 
REMARK    4  A    between atoms: C6_10  and  C7_11 
REMARK    5  A    between atoms: C6_10  and  C8_13 
REMARK       I    between atoms: C7_11  and  N3_14 
REMARK    6  A    between atoms: N3_14  and  C9_15 
REMARK    7  A    between atoms: C9_15  and  C10_16 
REMARK    8  A    between atoms: C9_15  and  C11_18 
REMARK       I    between atoms: C10_16  and  N4_21 
REMARK    9  A    between atoms: C11_18  and  C12_19 
REMARK   10  A    between atoms: C11_18  and  C13_20 
REMARK   11  A    between atoms: N4_21  and  C14_22 
REMARK   12  A    between atoms: C14_22  and  C15_23 
REMARK   13  A    between atoms: C14_22  and  C16_25 
REMARK       I    between atoms: C15_23  and  N6_40 
REMARK   14  A    between atoms: C16_25  and  C17_26 
REMARK   15  A    between atoms: C17_26  and  C18_27 
REMARK   16  A    between atoms: C17_26  and  C19_28 
REMARK   17  A    between atoms: C20_29  and  C21_30 
REMARK   18  A    between atoms: C20_29  and  C24_33 
REMARK   19  A    between atoms: C20_29  and  N6_40 
REMARK   20  A    between atoms: C21_30  and  C22_31 
REMARK   21  A    between atoms: C22_31  and  C23_32 
REMARK   22  A    between atoms: C23_32  and  O8_43 
REMARK   23  A    between atoms: C24_33  and  C25_34 
REMARK   24  A    between atoms: C28_38  and  O6_39 
REMARK   25  A    between atoms: C29_42  and  O8_43 
REMARK   26  A    between atoms: C29_42  and  C35_49 
ROOT
ATOM      1  C14 non d ame      -6.694  10.303  62.903  0.00  0.00     0.089 C 
ATOM      2  H20 non d ame      -6.024  10.997  62.395  0.00  0.00     0.087 H 
ENDROOT
BRANCH   1   3
ATOM      3  N4  non d ame      -6.298  10.259  64.303  0.00  0.00    -0.346 N 
ATOM      4  C10 non d ame      -4.958  10.799  64.733  0.00  0.00     0.241 C 
ATOM      5  O4  non d ame      -4.213  11.263  63.934  0.00  0.00    -0.271 OA
ATOM      6  H19 non d ame      -6.946   9.858  64.967  0.00  0.00     0.163 HD
BRANCH   4   7
ATOM      7  C9  non d ame      -4.567  10.750  66.187  0.00  0.00     0.092 C 
ATOM      8  H11 non d ame      -3.626  11.282  66.324  0.00  0.00     0.088 H 
BRANCH   7   9
ATOM      9  N3  non d ame      -5.579  11.445  66.989  0.00  0.00    -0.346 N 
ATOM     10  C7  non d ame      -5.340  12.795  67.438  0.00  0.00     0.240 C 
ATOM     11  O3  non d ame      -4.339  13.336  67.163  0.00  0.00    -0.271 OA
ATOM     12  H10 non d ame      -6.446  10.990  67.235  0.00  0.00     0.163 HD
BRANCH  10  13
ATOM     13  C6  non d ame      -6.419  13.528  68.294  0.00  0.00     0.086 C 
ATOM     14  H6  non d ame      -6.117  13.656  69.333  0.00  0.00     0.086 H 
BRANCH  13  15
ATOM     15  N2  non d ame      -6.623  14.862  67.753  0.00  0.00    -0.343 N 
ATOM     16  C5  non d ame      -6.036  16.015  68.439  0.00  0.00     0.273 C 
ATOM     17  O2  non d ame      -5.404  15.860  69.426  0.00  0.00    -0.266 OA
ATOM     18  H5  non d ame      -7.166  14.985  66.911  0.00  0.00     0.163 HD
BRANCH  16  19
ATOM     19  C4  non d ame      -6.242  17.431  67.878  0.00  0.00     0.154 A 
ATOM     20  C1  non d ame      -6.488  17.794  66.515  0.00  0.00    -0.017 A 
ATOM     21  C2  non d ame      -6.603  19.202  66.529  0.00  0.00     0.077 A 
ATOM     22  H1  non d ame      -6.569  17.136  65.649  0.00  0.00     0.091 H 
ATOM     23  O1  non d ame      -6.443  19.591  67.760  0.00  0.00    -0.218 OA
ATOM     24  N1  non d ame      -6.231  18.576  68.565  0.00  0.00    -0.123 NA
BRANCH  21  25
ATOM     25  C3  non d ame      -6.868  20.097  65.326  0.00  0.00    -0.029 C 
ATOM     26  H2  non d ame      -6.890  21.139  65.645  0.00  0.00     0.036 H 
ATOM     27  H3  non d ame      -6.075  19.959  64.590  0.00  0.00     0.036 H 
ATOM     28  H4  non d ame      -7.827  19.832  64.880  0.00  0.00     0.036 H 
ENDBRANCH  21  25
ENDBRANCH  16  19
ENDBRANCH  13  15
BRANCH  13  29
ATOM     29  C8  non d ame      -7.710  12.751  68.253  0.00  0.00    -0.049 C 
ATOM     30  H7  non d ame      -7.836  12.307  67.265  0.00  0.00     0.030 H 
ATOM     31  H8  non d ame      -7.684  11.963  69.005  0.00  0.00     0.030 H 
ATOM     32  H9  non d ame      -8.544  13.422  68.458  0.00  0.00     0.030 H 
ENDBRANCH  13  29
ENDBRANCH  10  13
ENDBRANCH   7   9
BRANCH   7  33
ATOM     33  C11 non d ame      -4.473   9.266  66.649  0.00  0.00    -0.033 C 
ATOM     34  H12 non d ame      -3.955   9.252  67.608  0.00  0.00     0.042 H 
BRANCH  33  35
ATOM     35  C12 non d ame      -5.889   8.649  66.871  0.00  0.00    -0.071 C 
ATOM     36  H13 non d ame      -6.648   9.337  66.498  0.00  0.00     0.028 H 
ATOM     37  H14 non d ame      -5.961   7.703  66.334  0.00  0.00     0.028 H 
ATOM     38  H15 non d ame      -6.046   8.475  67.935  0.00  0.00     0.028 H 
ENDBRANCH  33  35
BRANCH  33  39
ATOM     39  C13 non d ame      -3.638   8.417  65.637  0.00  0.00    -0.071 C 
ATOM     40  H16 non d ame      -3.528   8.969  64.704  0.00  0.00     0.028 H 
ATOM     41  H17 non d ame      -2.652   8.216  66.058  0.00  0.00     0.028 H 
ATOM     42  H18 non d ame      -4.150   7.475  65.444  0.00  0.00     0.028 H 
ENDBRANCH  33  39
ENDBRANCH   7  33
ENDBRANCH   4   7
ENDBRANCH   1   3
BRANCH   1  43
ATOM     43  C15 non d ame      -8.180  10.756  62.823  0.00  0.00     0.240 C 
ATOM     44  O5  non d ame      -8.735  10.778  61.772  0.00  0.00    -0.271 OA
ATOM     45  N6  non d ame      -8.914  11.155  64.057  0.00  0.00    -0.355 N 
ATOM     46  H46 non d ame      -8.455  11.136  64.956  0.00  0.00     0.162 HD
BRANCH  45  47
ATOM     47  C20 non d ame     -10.327  11.581  63.964  0.00  0.00     0.013 C 
ATOM     48  H30 non d ame     -10.706  11.276  62.989  0.00  0.00     0.072 H 
BRANCH  47  49
ATOM     49  C21 non d ame     -10.405  13.085  64.101  0.00  0.00    -0.038 C 
ATOM     50  H31 non d ame      -9.651  13.353  64.842  0.00  0.00     0.036 H 
ATOM     51  H32 non d ame     -10.336  13.477  63.086  0.00  0.00     0.036 H 
BRANCH  49  52
ATOM     52  C22 non d ame     -11.760  13.567  64.663  0.00  0.00     0.018 C 
ATOM     53  H33 non d ame     -12.202  14.185  63.881  0.00  0.00     0.048 H 
ATOM     54  H34 non d ame     -12.275  12.667  65.002  0.00  0.00     0.048 H 
BRANCH  52  55
ATOM     55  C23 non d ame     -11.630  14.483  65.911  0.00  0.00     0.259 C 
ATOM     56  O7  non d ame     -12.215  14.224  66.913  0.00  0.00    -0.265 OA
BRANCH  55  57
ATOM     57  O8  non d ame     -10.813  15.645  65.841  0.00  0.00    -0.317 OA
BRANCH  57  58
ATOM     58  C29 non d ame     -10.124  15.947  67.057  0.00  0.00     0.052 C 
ATOM     59  H47 non d ame     -10.734  15.523  67.855  0.00  0.00     0.082 H 
ATOM     60  H48 non d ame      -9.101  15.601  66.910  0.00  0.00     0.082 H 
BRANCH  58  61
ATOM     61  C35 non d ame     -10.100  17.490  67.224  0.00  0.00    -0.034 A 
ATOM     62  C30 non d ame      -9.825  18.052  68.466  0.00  0.00    -0.075 A 
ATOM     63  C31 non d ame      -9.804  19.437  68.617  0.00  0.00    -0.082 A 
ATOM     64  H49 non d ame      -9.625  17.407  69.322  0.00  0.00     0.084 H 
ATOM     65  C32 non d ame     -10.063  20.263  67.519  0.00  0.00    -0.083 A 
ATOM     66  H50 non d ame      -9.585  19.875  69.591  0.00  0.00     0.083 H 
ATOM     67  C33 non d ame     -10.340  19.697  66.282  0.00  0.00    -0.082 A 
ATOM     68  H51 non d ame     -10.048  21.347  67.628  0.00  0.00     0.083 H 
ATOM     69  C34 non d ame     -10.360  18.313  66.126  0.00  0.00    -0.075 A 
ATOM     70  H52 non d ame     -10.544  20.344  65.428  0.00  0.00     0.083 H 
ATOM     71  H53 non d ame     -10.578  17.876  65.151  0.00  0.00     0.084 H 
ENDBRANCH  58  61
ENDBRANCH  57  58
ENDBRANCH  55  57
ENDBRANCH  52  55
ENDBRANCH  49  52
ENDBRANCH  47  49
BRANCH  47  72
ATOM     72  C24 non d ame     -11.139  10.925  65.079  0.00  0.00    -0.039 C 
ATOM     73  H35 non d ame     -11.748  11.724  65.503  0.00  0.00     0.036 H 
ATOM     74  H36 non d ame     -11.618  10.061  64.619  0.00  0.00     0.036 H 
BRANCH  72  75
ATOM     75  C25 non d ame     -10.198  10.375  66.253  0.00  0.00    -0.001 C 
ATOM     76  C26 non d ame      -9.973   8.756  66.077  0.00  0.00    -0.035 C 
ATOM     77  C27 non d ame     -10.259   8.145  67.252  0.00  0.00     0.085 C 
ATOM     78  H38 non d ame     -10.714   8.348  65.391  0.00  0.00     0.036 H 
ATOM     79  H39 non d ame      -8.915   8.539  65.929  0.00  0.00     0.036 H 
ATOM     80  N5  non d ame     -10.972   9.159  68.114  0.00  0.00    -0.049 N 
ATOM     81  H40 non d ame     -10.953   7.342  67.002  0.00  0.00     0.075 H 
ATOM     82  H41 non d ame      -9.295   7.912  67.702  0.00  0.00     0.075 H 
ATOM     83  C28 non d ame     -10.723  10.592  67.413  0.00  0.00     0.193 C 
ATOM     84  H42 non d ame     -11.956   8.941  68.058  0.00  0.00     0.280 HD
ATOM     85  H43 non d ame     -10.503   9.154  69.009  0.00  0.00     0.280 HD
ATOM     86  H44 non d ame     -10.000  11.294  67.829  0.00  0.00     0.129 H 
ATOM     87  H37 non d ame      -9.307  10.988  66.389  0.00  0.00     0.046 H 
BRANCH  83  88
ATOM     88  O6  non d ame     -11.951  11.317  67.322  0.00  0.00    -0.369 OA
ATOM     89  H45 non d ame     -12.091  11.595  66.415  0.00  0.00     0.212 HD
ENDBRANCH  83  88
ENDBRANCH  72  75
ENDBRANCH  47  72
ENDBRANCH  45  47
ENDBRANCH   1  43
BRANCH   1  90
ATOM     90  C16 non d ame      -6.550   8.915  62.302  0.00  0.00    -0.035 C 
ATOM     91  H21 non d ame      -7.399   8.802  61.628  0.00  0.00     0.037 H 
ATOM     92  H22 non d ame      -5.533   8.874  61.910  0.00  0.00     0.037 H 
BRANCH  90  93
ATOM     93  C17 non d ame      -6.664   7.763  63.351  0.00  0.00    -0.059 C 
ATOM     94  H23 non d ame      -6.555   8.205  64.341  0.00  0.00     0.038 H 
BRANCH  93  95
ATOM     95  C18 non d ame      -8.054   7.052  63.296  0.00  0.00    -0.073 C 
ATOM     96  H24 non d ame      -8.379   6.812  64.309  0.00  0.00     0.028 H 
ATOM     97  H25 non d ame      -8.782   7.713  62.827  0.00  0.00     0.028 H 
ATOM     98  H26 non d ame      -7.969   6.134  62.714  0.00  0.00     0.028 H 
ENDBRANCH  93  95
BRANCH  93  99
ATOM     99  C19 non d ame      -5.527   6.752  63.178  0.00  0.00    -0.073 C 
ATOM    100  H27 non d ame      -5.740   5.861  63.771  0.00  0.00     0.028 H 
ATOM    101  H28 non d ame      -5.443   6.477  62.126  0.00  0.00     0.028 H 
ATOM    102  H29 non d ame      -4.591   7.197  63.514  0.00  0.00     0.028 H 
ENDBRANCH  93  99
ENDBRANCH  90  93
ENDBRANCH   1  90
TORSDOF 26
ENDMDL
MODEL 3
REMARK VINA RESULT:      -6.5      2.808      7.735
REMARK  26 active torsions:
REMARK  status: ('A' for Active; 'I' for Inactive)
REMARK    1  A    between atoms: C2_2  and  C3_3 
REMARK    2  A    between atoms: C4_6  and  C5_7 
REMARK       I    between atoms: C5_7  and  N2_9 
REMARK    3  A    between atoms: N2_9  and  C6_10 
REMARK    4  A    between atoms: C6_10  and  C7_11 
REMARK    5  A    between atoms: C6_10  and  C8_13 
REMARK       I    between atoms: C7_11  and  N3_14 
REMARK    6  A    between atoms: N3_14  and  C9_15 
REMARK    7  A    between atoms: C9_15  and  C10_16 
REMARK    8  A    between atoms: C9_15  and  C11_18 
REMARK       I    between atoms: C10_16  and  N4_21 
REMARK    9  A    between atoms: C11_18  and  C12_19 
REMARK   10  A    between atoms: C11_18  and  C13_20 
REMARK   11  A    between atoms: N4_21  and  C14_22 
REMARK   12  A    between atoms: C14_22  and  C15_23 
REMARK   13  A    between atoms: C14_22  and  C16_25 
REMARK       I    between atoms: C15_23  and  N6_40 
REMARK   14  A    between atoms: C16_25  and  C17_26 
REMARK   15  A    between atoms: C17_26  and  C18_27 
REMARK   16  A    between atoms: C17_26  and  C19_28 
REMARK   17  A    between atoms: C20_29  and  C21_30 
REMARK   18  A    between atoms: C20_29  and  C24_33 
REMARK   19  A    between atoms: C20_29  and  N6_40 
REMARK   20  A    between atoms: C21_30  and  C22_31 
REMARK   21  A    between atoms: C22_31  and  C23_32 
REMARK   22  A    between atoms: C23_32  and  O8_43 
REMARK   23  A    between atoms: C24_33  and  C25_34 
REMARK   24  A    between atoms: C28_38  and  O6_39 
REMARK   25  A    between atoms: C29_42  and  O8_43 
REMARK   26  A    between atoms: C29_42  and  C35_49 
ROOT
ATOM      1  C14 non d ame      -9.376   5.879  68.134  0.00  0.00     0.089 C 
ATOM      2  H20 non d ame     -10.221   5.773  67.454  0.00  0.00     0.087 H 
ENDROOT
BRANCH   1   3
ATOM      3  N4  non d ame      -8.911   7.255  68.047  0.00  0.00    -0.346 N 
ATOM      4  C10 non d ame      -9.764   8.305  67.380  0.00  0.00     0.241 C 
ATOM      5  O4  non d ame     -10.819   8.018  66.919  0.00  0.00    -0.271 OA
ATOM      6  H19 non d ame      -8.010   7.479  68.444  0.00  0.00     0.163 HD
BRANCH   4   7
ATOM      7  C9  non d ame      -9.270   9.726  67.304  0.00  0.00     0.092 C 
ATOM      8  H11 non d ame      -8.206   9.724  67.065  0.00  0.00     0.088 H 
BRANCH   7   9
ATOM      9  N3  non d ame      -9.957  10.425  66.213  0.00  0.00    -0.346 N 
ATOM     10  C7  non d ame      -9.226  10.810  65.031  0.00  0.00     0.240 C 
ATOM     11  O3  non d ame      -8.085  10.567  64.941  0.00  0.00    -0.271 OA
ATOM     12  H10 non d ame     -10.941  10.643  66.277  0.00  0.00     0.163 HD
BRANCH  10  13
ATOM     13  C6  non d ame      -9.963  11.556  63.875  0.00  0.00     0.086 C 
ATOM     14  H6  non d ame     -11.024  11.316  63.827  0.00  0.00     0.086 H 
BRANCH  13  15
ATOM     15  N2  non d ame      -9.870  12.989  64.105  0.00  0.00    -0.343 N 
ATOM     16  C5  non d ame     -11.041  13.716  64.601  0.00  0.00     0.273 C 
ATOM     17  O2  non d ame     -12.052  13.141  64.809  0.00  0.00    -0.266 OA
ATOM     18  H5  non d ame      -9.003  13.473  63.921  0.00  0.00     0.163 HD
BRANCH  16  19
ATOM     19  C4  non d ame     -10.957  15.230  64.849  0.00  0.00     0.154 A 
ATOM     20  C1  non d ame     -10.342  15.892  65.959  0.00  0.00    -0.017 A 
ATOM     21  C2  non d ame     -10.537  17.270  65.715  0.00  0.00     0.077 A 
ATOM     22  H1  non d ame      -9.831  15.441  66.810  0.00  0.00     0.091 H 
ATOM     23  O1  non d ame     -11.188  17.376  64.593  0.00  0.00    -0.218 OA
ATOM     24  N1  non d ame     -11.445  16.200  64.070  0.00  0.00    -0.123 NA
BRANCH  21  25
ATOM     25  C3  non d ame     -10.070  18.417  66.601  0.00  0.00    -0.029 C 
ATOM     26  H2  non d ame      -9.049  18.690  66.335  0.00  0.00     0.036 H 
ATOM     27  H3  non d ame     -10.725  19.277  66.456  0.00  0.00     0.036 H 
ATOM     28  H4  non d ame     -10.103  18.107  67.645  0.00  0.00     0.036 H 
ENDBRANCH  21  25
ENDBRANCH  16  19
ENDBRANCH  13  15
BRANCH  13  29
ATOM     29  C8  non d ame      -9.323  11.202  62.557  0.00  0.00    -0.049 C 
ATOM     30  H7  non d ame      -9.088  12.115  62.010  0.00  0.00     0.030 H 
ATOM     31  H8  non d ame      -8.406  10.640  62.737  0.00  0.00     0.030 H 
ATOM     32  H9  non d ame     -10.012  10.595  61.970  0.00  0.00     0.030 H 
ENDBRANCH  13  29
ENDBRANCH  10  13
ENDBRANCH   7   9
BRANCH   7  33
ATOM     33  C11 non d ame      -9.567  10.452  68.649  0.00  0.00    -0.033 C 
ATOM     34  H12 non d ame     -10.571  10.165  68.962  0.00  0.00     0.042 H 
BRANCH  33  35
ATOM     35  C12 non d ame      -8.580   9.998  69.769  0.00  0.00    -0.071 C 
ATOM     36  H13 non d ame      -7.557  10.051  69.395  0.00  0.00     0.028 H 
ATOM     37  H14 non d ame      -8.684  10.654  70.633  0.00  0.00     0.028 H 
ATOM     38  H15 non d ame      -8.808   8.973  70.061  0.00  0.00     0.028 H 
ENDBRANCH  33  35
BRANCH  33  39
ATOM     39  C13 non d ame      -9.542  12.003  68.466  0.00  0.00    -0.071 C 
ATOM     40  H16 non d ame      -9.451  12.483  69.440  0.00  0.00     0.028 H 
ATOM     41  H17 non d ame      -8.691  12.282  67.843  0.00  0.00     0.028 H 
ATOM     42  H18 non d ame     -10.465  12.327  67.985  0.00  0.00     0.028 H 
ENDBRANCH  33  39
ENDBRANCH   7  33
ENDBRANCH   4   7
ENDBRANCH   1   3
BRANCH   1  43
ATOM     43  C15 non d ame      -9.768   5.581  69.610  0.00  0.00     0.240 C 
ATOM     44  O5  non d ame      -9.739   4.464  70.015  0.00  0.00    -0.271 OA
ATOM     45  N6  non d ame     -10.173   6.690  70.520  0.00  0.00    -0.355 N 
ATOM     46  H46 non d ame     -10.196   7.643  70.188  0.00  0.00     0.162 HD
BRANCH  45  47
ATOM     47  C20 non d ame     -10.542   6.391  71.920  0.00  0.00     0.013 C 
ATOM     48  H30 non d ame     -11.063   5.434  71.933  0.00  0.00     0.072 H 
BRANCH  47  49
ATOM     49  C21 non d ame     -11.450   7.481  72.442  0.00  0.00    -0.038 C 
ATOM     50  H31 non d ame     -12.383   6.984  72.711  0.00  0.00     0.036 H 
ATOM     51  H32 non d ame     -10.873   8.006  73.203  0.00  0.00     0.036 H 
BRANCH  49  52
ATOM     52  C22 non d ame     -11.809   8.528  71.365  0.00  0.00     0.018 C 
ATOM     53  H33 non d ame     -11.152   9.379  71.550  0.00  0.00     0.048 H 
ATOM     54  H34 non d ame     -11.761   8.000  70.412  0.00  0.00     0.048 H 
BRANCH  52  55
ATOM     55  C23 non d ame     -13.259   9.073  71.480  0.00  0.00     0.259 C 
ATOM     56  O7  non d ame     -14.179   8.327  71.572  0.00  0.00    -0.265 OA
BRANCH  55  57
ATOM     57  O8  non d ame     -13.479  10.479  71.461  0.00  0.00    -0.317 OA
BRANCH  57  58
ATOM     58  C29 non d ame     -12.361  11.236  70.988  0.00  0.00     0.052 C 
ATOM     59  H47 non d ame     -11.532  10.983  71.649  0.00  0.00     0.082 H 
ATOM     60  H48 non d ame     -12.292  11.025  69.921  0.00  0.00     0.082 H 
BRANCH  58  61
ATOM     61  C35 non d ame     -12.692  12.742  71.169  0.00  0.00    -0.034 A 
ATOM     62  C30 non d ame     -13.533  13.151  72.199  0.00  0.00    -0.075 A 
ATOM     63  C31 non d ame     -13.831  14.503  72.362  0.00  0.00    -0.082 A 
ATOM     64  H49 non d ame     -13.959  12.413  72.879  0.00  0.00     0.084 H 
ATOM     65  C32 non d ame     -13.286  15.448  71.488  0.00  0.00    -0.083 A 
ATOM     66  H50 non d ame     -14.488  14.821  73.171  0.00  0.00     0.083 H 
ATOM     67  C33 non d ame     -12.450  15.034  70.460  0.00  0.00    -0.082 A 
ATOM     68  H51 non d ame     -13.513  16.507  71.609  0.00  0.00     0.083 H 
ATOM     69  C34 non d ame     -12.148  13.684  70.295  0.00  0.00    -0.075 A 
ATOM     70  H52 non d ame     -12.028  15.773  69.778  0.00  0.00     0.083 H 
ATOM     71  H53 non d ame     -11.490  13.367  69.485  0.00  0.00     0.084 H 
ENDBRANCH  58  61
ENDBRANCH  57  58
ENDBRANCH  55  57
ENDBRANCH  52  55
ENDBRANCH  49  52
ENDBRANCH  47  49
BRANCH  47  72
ATOM     72  C24 non d ame      -9.283   6.320  72.783  0.00  0.00    -0.039 C 
ATOM     73  H35 non d ame      -9.637   6.150  73.800  0.00  0.00     0.036 H 
ATOM     74  H36 non d ame      -8.641   5.584  72.299  0.00  0.00     0.036 H 
BRANCH  72  75
ATOM     75  C25 non d ame      -8.489   7.711  72.786  0.00  0.00    -0.001 C 
ATOM     76  C26 non d ame      -7.011   7.514  72.092  0.00  0.00    -0.035 C 
ATOM     77  C27 non d ame      -6.067   8.012  72.926  0.00  0.00     0.085 C 
ATOM     78  H38 non d ame      -6.765   6.454  72.032  0.00  0.00     0.036 H 
ATOM     79  H39 non d ame      -6.926   8.145  71.207  0.00  0.00     0.036 H 
ATOM     80  N5  non d ame      -6.732   8.232  74.264  0.00  0.00    -0.049 N 
ATOM     81  H40 non d ame      -5.321   7.223  73.026  0.00  0.00     0.075 H 
ATOM     82  H41 non d ame      -5.787   8.977  72.506  0.00  0.00     0.075 H 
ATOM     83  C28 non d ame      -8.320   8.151  73.989  0.00  0.00     0.193 C 
ATOM     84  H42 non d ame      -6.466   7.453  74.847  0.00  0.00     0.280 HD
ATOM     85  H43 non d ame      -6.503   9.175  74.545  0.00  0.00     0.280 HD
ATOM     86  H44 non d ame      -8.924   9.058  73.954  0.00  0.00     0.129 H 
ATOM     87  H37 non d ame      -9.101   8.537  72.423  0.00  0.00     0.046 H 
BRANCH  83  88
ATOM     88  O6  non d ame      -8.946   7.312  74.961  0.00  0.00    -0.369 OA
ATOM     89  H45 non d ame      -9.517   7.843  75.521  0.00  0.00     0.212 HD
ENDBRANCH  83  88
ENDBRANCH  72  75
ENDBRANCH  47  72
ENDBRANCH  45  47
ENDBRANCH   1  43
BRANCH   1  90
ATOM     90  C16 non d ame      -8.252   4.948  67.706  0.00  0.00    -0.035 C 
ATOM     91  H21 non d ame      -7.490   5.596  67.271  0.00  0.00     0.037 H 
ATOM     92  H22 non d ame      -8.020   4.351  68.589  0.00  0.00     0.037 H 
BRANCH  90  93
ATOM     93  C17 non d ame      -8.665   3.939  66.588  0.00  0.00    -0.059 C 
ATOM     94  H23 non d ame      -7.760   3.645  66.057  0.00  0.00     0.038 H 
BRANCH  93  95
ATOM     95  C18 non d ame      -9.317   2.646  67.173  0.00  0.00    -0.073 C 
ATOM     96  H24 non d ame      -8.799   1.770  66.783  0.00  0.00     0.028 H 
ATOM     97  H25 non d ame      -9.241   2.660  68.260  0.00  0.00     0.028 H 
ATOM     98  H26 non d ame     -10.367   2.605  66.883  0.00  0.00     0.028 H 
ENDBRANCH  93  95
BRANCH  93  99
ATOM     99  C19 non d ame      -9.594   4.604  65.568  0.00  0.00    -0.073 C 
ATOM    100  H27 non d ame     -10.467   5.009  66.081  0.00  0.00     0.028 H 
ATOM    101  H28 non d ame      -9.061   5.411  65.064  0.00  0.00     0.028 H 
ATOM    102  H29 non d ame      -9.914   3.866  64.833  0.00  0.00     0.028 H 
ENDBRANCH  93  99
ENDBRANCH  90  93
ENDBRANCH   1  90
TORSDOF 26
ENDMDL
MODEL 4
REMARK VINA RESULT:      -6.5      2.346      4.878
REMARK  26 active torsions:
REMARK  status: ('A' for Active; 'I' for Inactive)
REMARK    1  A    between atoms: C2_2  and  C3_3 
REMARK    2  A    between atoms: C4_6  and  C5_7 
REMARK       I    between atoms: C5_7  and  N2_9 
REMARK    3  A    between atoms: N2_9  and  C6_10 
REMARK    4  A    between atoms: C6_10  and  C7_11 
REMARK    5  A    between atoms: C6_10  and  C8_13 
REMARK       I    between atoms: C7_11  and  N3_14 
REMARK    6  A    between atoms: N3_14  and  C9_15 
REMARK    7  A    between atoms: C9_15  and  C10_16 
REMARK    8  A    between atoms: C9_15  and  C11_18 
REMARK       I    between atoms: C10_16  and  N4_21 
REMARK    9  A    between atoms: C11_18  and  C12_19 
REMARK   10  A    between atoms: C11_18  and  C13_20 
REMARK   11  A    between atoms: N4_21  and  C14_22 
REMARK   12  A    between atoms: C14_22  and  C15_23 
REMARK   13  A    between atoms: C14_22  and  C16_25 
REMARK       I    between atoms: C15_23  and  N6_40 
REMARK   14  A    between atoms: C16_25  and  C17_26 
REMARK   15  A    between atoms: C17_26  and  C18_27 
REMARK   16  A    between atoms: C17_26  and  C19_28 
REMARK   17  A    between atoms: C20_29  and  C21_30 
REMARK   18  A    between atoms: C20_29  and  C24_33 
REMARK   19  A    between atoms: C20_29  and  N6_40 
REMARK   20  A    between atoms: C21_30  and  C22_31 
REMARK   21  A    between atoms: C22_31  and  C23_32 
REMARK   22  A    between atoms: C23_32  and  O8_43 
REMARK   23  A    between atoms: C24_33  and  C25_34 
REMARK   24  A    between atoms: C28_38  and  O6_39 
REMARK   25  A    between atoms: C29_42  and  O8_43 
REMARK   26  A    between atoms: C29_42  and  C35_49 
ROOT
ATOM      1  C14 non d ame     -10.614   9.539  69.591  0.00  0.00     0.089 C 
ATOM      2  H20 non d ame     -11.057   8.628  69.188  0.00  0.00     0.087 H 
ENDROOT
BRANCH   1   3
ATOM      3  N4  non d ame      -9.279   9.665  69.027  0.00  0.00    -0.346 N 
ATOM      4  C10 non d ame      -8.549   8.447  68.518  0.00  0.00     0.241 C 
ATOM      5  O4  non d ame      -9.057   7.376  68.576  0.00  0.00    -0.271 OA
ATOM      6  H19 non d ame      -8.863  10.585  68.989  0.00  0.00     0.163 HD
BRANCH   4   7
ATOM      7  C9  non d ame      -7.170   8.596  67.932  0.00  0.00     0.092 C 
ATOM      8  H11 non d ame      -6.792   7.614  67.649  0.00  0.00     0.088 H 
BRANCH   7   9
ATOM      9  N3  non d ame      -7.242   9.401  66.709  0.00  0.00    -0.346 N 
ATOM     10  C7  non d ame      -6.801   8.845  65.453  0.00  0.00     0.240 C 
ATOM     11  O3  non d ame      -6.383   7.753  65.410  0.00  0.00    -0.271 OA
ATOM     12  H10 non d ame      -7.599  10.345  66.731  0.00  0.00     0.163 HD
BRANCH  10  13
ATOM     13  C6  non d ame      -6.877   9.707  64.155  0.00  0.00     0.086 C 
ATOM     14  H6  non d ame      -7.088   9.113  63.266  0.00  0.00     0.086 H 
BRANCH  13  15
ATOM     15  N2  non d ame      -7.967  10.661  64.287  0.00  0.00    -0.343 N 
ATOM     16  C5  non d ame      -9.195  10.464  63.513  0.00  0.00     0.273 C 
ATOM     17  O2  non d ame      -9.295   9.537  62.786  0.00  0.00    -0.266 OA
ATOM     18  H5  non d ame      -7.871  11.451  64.909  0.00  0.00     0.163 HD
BRANCH  16  19
ATOM     19  C4  non d ame     -10.355  11.463  63.643  0.00  0.00     0.154 A 
ATOM     20  C1  non d ame     -10.324  12.746  64.276  0.00  0.00    -0.017 A 
ATOM     21  C2  non d ame     -11.632  13.258  64.124  0.00  0.00     0.077 A 
ATOM     22  H1  non d ame      -9.482  13.231  64.770  0.00  0.00     0.091 H 
ATOM     23  O1  non d ame     -12.324  12.366  63.477  0.00  0.00    -0.218 OA
ATOM     24  N1  non d ame     -11.601  11.310  63.186  0.00  0.00    -0.123 NA
BRANCH  21  25
ATOM     25  C3  non d ame     -12.137  14.605  64.624  0.00  0.00    -0.029 C 
ATOM     26  H2  non d ame     -13.203  14.536  64.841  0.00  0.00     0.036 H 
ATOM     27  H3  non d ame     -11.599  14.881  65.530  0.00  0.00     0.036 H 
ATOM     28  H4  non d ame     -11.971  15.363  63.858  0.00  0.00     0.036 H 
ENDBRANCH  21  25
ENDBRANCH  16  19
ENDBRANCH  13  15
BRANCH  13  29
ATOM     29  C8  non d ame      -5.574  10.437  63.956  0.00  0.00    -0.049 C 
ATOM     30  H7  non d ame      -4.872   9.790  63.430  0.00  0.00     0.030 H 
ATOM     31  H8  non d ame      -5.748  11.339  63.368  0.00  0.00     0.030 H 
ATOM     32  H9  non d ame      -5.158  10.710  64.926  0.00  0.00     0.030 H 
ENDBRANCH  13  29
ENDBRANCH  10  13
ENDBRANCH   7   9
BRANCH   7  33
ATOM     33  C11 non d ame      -6.243   9.306  68.962  0.00  0.00    -0.033 C 
ATOM     34  H12 non d ame      -6.860   9.603  69.810  0.00  0.00     0.042 H 
BRANCH  33  35
ATOM     35  C12 non d ame      -5.143   8.337  69.499  0.00  0.00    -0.071 C 
ATOM     36  H13 non d ame      -4.294   8.337  68.816  0.00  0.00     0.028 H 
ATOM     37  H14 non d ame      -4.816   8.669  70.484  0.00  0.00     0.028 H 
ATOM     38  H15 non d ame      -5.552   7.329  69.572  0.00  0.00     0.028 H 
ENDBRANCH  33  35
BRANCH  33  39
ATOM     39  C13 non d ame      -5.610  10.596  68.349  0.00  0.00    -0.071 C 
ATOM     40  H16 non d ame      -4.537  10.600  68.538  0.00  0.00     0.028 H 
ATOM     41  H17 non d ame      -5.790  10.614  67.274  0.00  0.00     0.028 H 
ATOM     42  H18 non d ame      -6.063  11.475  68.808  0.00  0.00     0.028 H 
ENDBRANCH  33  39
ENDBRANCH   7  33
ENDBRANCH   4   7
ENDBRANCH   1   3
BRANCH   1  43
ATOM     43  C15 non d ame     -11.433  10.807  69.214  0.00  0.00     0.240 C 
ATOM     44  O5  non d ame     -12.345  10.718  68.457  0.00  0.00    -0.271 OA
ATOM     45  N6  non d ame     -11.084  12.131  69.803  0.00  0.00    -0.355 N 
ATOM     46  H46 non d ame     -10.315  12.219  70.450  0.00  0.00     0.162 HD
BRANCH  45  47
ATOM     47  C20 non d ame     -11.873  13.327  69.435  0.00  0.00     0.013 C 
ATOM     48  H30 non d ame     -12.928  13.055  69.464  0.00  0.00     0.072 H 
BRANCH  47  49
ATOM     49  C21 non d ame     -11.491  13.768  68.040  0.00  0.00    -0.038 C 
ATOM     50  H31 non d ame     -10.939  12.933  67.608  0.00  0.00     0.036 H 
ATOM     51  H32 non d ame     -12.416  14.110  67.576  0.00  0.00     0.036 H 
BRANCH  49  52
ATOM     52  C22 non d ame     -10.528  14.976  68.036  0.00  0.00     0.018 C 
ATOM     53  H33 non d ame     -10.827  15.589  67.185  0.00  0.00     0.048 H 
ATOM     54  H34 non d ame     -10.567  15.388  69.045  0.00  0.00     0.048 H 
BRANCH  52  55
ATOM     55  C23 non d ame      -9.043  14.592  67.788  0.00  0.00     0.259 C 
ATOM     56  O7  non d ame      -8.612  13.559  68.188  0.00  0.00    -0.265 OA
BRANCH  55  57
ATOM     57  O8  non d ame      -8.198  15.496  67.086  0.00  0.00    -0.317 OA
BRANCH  57  58
ATOM     58  C29 non d ame      -8.853  16.208  66.033  0.00  0.00     0.052 C 
ATOM     59  H47 non d ame      -8.127  16.271  65.223  0.00  0.00     0.082 H 
ATOM     60  H48 non d ame      -9.802  15.695  65.876  0.00  0.00     0.082 H 
BRANCH  58  61
ATOM     61  C35 non d ame      -9.151  17.644  66.539  0.00  0.00    -0.034 A 
ATOM     62  C30 non d ame      -8.280  18.264  67.429  0.00  0.00    -0.075 A 
ATOM     63  C31 non d ame      -8.547  19.554  67.884  0.00  0.00    -0.082 A 
ATOM     64  H49 non d ame      -7.387  17.739  67.769  0.00  0.00     0.084 H 
ATOM     65  C32 non d ame      -9.693  20.225  67.448  0.00  0.00    -0.083 A 
ATOM     66  H50 non d ame      -7.861  20.038  68.579  0.00  0.00     0.083 H 
ATOM     67  C33 non d ame     -10.561  19.601  66.562  0.00  0.00    -0.082 A 
ATOM     68  H51 non d ame      -9.909  21.234  67.798  0.00  0.00     0.083 H 
ATOM     69  C34 non d ame     -10.297  18.312  66.103  0.00  0.00    -0.075 A 
ATOM     70  H52 non d ame     -11.456  20.126  66.226  0.00  0.00     0.083 H 
ATOM     71  H53 non d ame     -10.984  17.830  65.407  0.00  0.00     0.084 H 
ENDBRANCH  58  61
ENDBRANCH  57  58
ENDBRANCH  55  57
ENDBRANCH  52  55
ENDBRANCH  49  52
ENDBRANCH  47  49
BRANCH  47  72
ATOM     72  C24 non d ame     -11.589  14.457  70.423  0.00  0.00    -0.039 C 
ATOM     73  H35 non d ame     -10.559  14.308  70.746  0.00  0.00     0.036 H 
ATOM     74  H36 non d ame     -11.870  15.373  69.904  0.00  0.00     0.036 H 
BRANCH  72  75
ATOM     75  C25 non d ame     -12.514  14.350  71.727  0.00  0.00    -0.001 C 
ATOM     76  C26 non d ame     -14.046  13.936  71.295  0.00  0.00    -0.035 C 
ATOM     77  C27 non d ame     -14.910  14.811  71.862  0.00  0.00     0.085 C 
ATOM     78  H38 non d ame     -14.188  14.093  70.226  0.00  0.00     0.036 H 
ATOM     79  H39 non d ame     -14.316  12.981  71.746  0.00  0.00     0.036 H 
ATOM     80  N5  non d ame     -14.092  15.973  72.371  0.00  0.00    -0.049 N 
ATOM     81  H40 non d ame     -15.551  15.156  71.049  0.00  0.00     0.075 H 
ATOM     82  H41 non d ame     -15.344  14.283  72.711  0.00  0.00     0.075 H 
ATOM     83  C28 non d ame     -12.557  15.473  72.362  0.00  0.00     0.193 C 
ATOM     84  H42 non d ame     -14.193  16.714  71.691  0.00  0.00     0.280 HD
ATOM     85  H43 non d ame     -14.376  16.125  73.329  0.00  0.00     0.280 HD
ATOM     86  H44 non d ame     -12.061  15.195  73.292  0.00  0.00     0.129 H 
ATOM     87  H37 non d ame     -12.046  13.764  72.518  0.00  0.00     0.046 H 
BRANCH  83  88
ATOM     88  O6  non d ame     -11.720  16.464  71.764  0.00  0.00    -0.369 OA
ATOM     89  H45 non d ame     -11.757  16.380  70.809  0.00  0.00     0.212 HD
ENDBRANCH  83  88
ENDBRANCH  72  75
ENDBRANCH  47  72
ENDBRANCH  45  47
ENDBRANCH   1  43
BRANCH   1  90
ATOM     90  C16 non d ame     -10.506   9.432  71.104  0.00  0.00    -0.035 C 
ATOM     91  H21 non d ame      -9.439   9.348  71.312  0.00  0.00     0.037 H 
ATOM     92  H22 non d ame     -11.072  10.278  71.494  0.00  0.00     0.037 H 
BRANCH  90  93
ATOM     93  C17 non d ame     -11.172   8.147  71.691  0.00  0.00    -0.059 C 
ATOM     94  H23 non d ame     -11.998   8.464  72.327  0.00  0.00     0.038 H 
BRANCH  93  95
ATOM     95  C18 non d ame     -11.757   7.224  70.574  0.00  0.00    -0.073 C 
ATOM     96  H24 non d ame     -12.436   7.801  69.946  0.00  0.00     0.028 H 
ATOM     97  H25 non d ame     -10.943   6.831  69.964  0.00  0.00     0.028 H 
ATOM     98  H26 non d ame     -12.299   6.398  71.033  0.00  0.00     0.028 H 
ENDBRANCH  93  95
BRANCH  93  99
ATOM     99  C19 non d ame     -10.188   7.376  72.574  0.00  0.00    -0.073 C 
ATOM    100  H27 non d ame      -9.426   8.058  72.951  0.00  0.00     0.028 H 
ATOM    101  H28 non d ame     -10.724   6.931  73.413  0.00  0.00     0.028 H 
ATOM    102  H29 non d ame      -9.714   6.589  71.988  0.00  0.00     0.028 H 
ENDBRANCH  93  99
ENDBRANCH  90  93
ENDBRANCH   1  90
TORSDOF 26
ENDMDL
MODEL 5
REMARK VINA RESULT:      -6.4      2.245      7.695
REMARK  26 active torsions:
REMARK  status: ('A' for Active; 'I' for Inactive)
REMARK    1  A    between atoms: C2_2  and  C3_3 
REMARK    2  A    between atoms: C4_6  and  C5_7 
REMARK       I    between atoms: C5_7  and  N2_9 
REMARK    3  A    between atoms: N2_9  and  C6_10 
REMARK    4  A    between atoms: C6_10  and  C7_11 
REMARK    5  A    between atoms: C6_10  and  C8_13 
REMARK       I    between atoms: C7_11  and  N3_14 
REMARK    6  A    between atoms: N3_14  and  C9_15 
REMARK    7  A    between atoms: C9_15  and  C10_16 
REMARK    8  A    between atoms: C9_15  and  C11_18 
REMARK       I    between atoms: C10_16  and  N4_21 
REMARK    9  A    between atoms: C11_18  and  C12_19 
REMARK   10  A    between atoms: C11_18  and  C13_20 
REMARK   11  A    between atoms: N4_21  and  C14_22 
REMARK   12  A    between atoms: C14_22  and  C15_23 
REMARK   13  A    between atoms: C14_22  and  C16_25 
REMARK       I    between atoms: C15_23  and  N6_40 
REMARK   14  A    between atoms: C16_25  and  C17_26 
REMARK   15  A    between atoms: C17_26  and  C18_27 
REMARK   16  A    between atoms: C17_26  and  C19_28 
REMARK   17  A    between atoms: C20_29  and  C21_30 
REMARK   18  A    between atoms: C20_29  and  C24_33 
REMARK   19  A    between atoms: C20_29  and  N6_40 
REMARK   20  A    between atoms: C21_30  and  C22_31 
REMARK   21  A    between atoms: C22_31  and  C23_32 
REMARK   22  A    between atoms: C23_32  and  O8_43 
REMARK   23  A    between atoms: C24_33  and  C25_34 
REMARK   24  A    between atoms: C28_38  and  O6_39 
REMARK   25  A    between atoms: C29_42  and  O8_43 
REMARK   26  A    between atoms: C29_42  and  C35_49 
ROOT
ATOM      1  C14 non d ame     -10.858  12.746  68.726  0.00  0.00     0.089 C 
ATOM      2  H20 non d ame      -9.935  13.313  68.857  0.00  0.00     0.087 H 
ENDROOT
BRANCH   1   3
ATOM      3  N4  non d ame     -11.185  12.763  67.308  0.00  0.00    -0.346 N 
ATOM      4  C10 non d ame     -10.251  13.414  66.319  0.00  0.00     0.241 C 
ATOM      5  O4  non d ame      -9.244  13.921  66.688  0.00  0.00    -0.271 OA
ATOM      6  H19 non d ame     -12.048  12.328  67.014  0.00  0.00     0.163 HD
BRANCH   4   7
ATOM      7  C9  non d ame     -10.603  13.417  64.854  0.00  0.00     0.092 C 
ATOM      8  H11 non d ame     -10.470  14.423  64.456  0.00  0.00     0.088 H 
BRANCH   7   9
ATOM      9  N3  non d ame      -9.680  12.538  64.128  0.00  0.00    -0.346 N 
ATOM     10  C7  non d ame      -9.429  11.202  64.610  0.00  0.00     0.240 C 
ATOM     11  O3  non d ame      -9.958  10.819  65.581  0.00  0.00    -0.271 OA
ATOM     12  H10 non d ame      -9.215  12.856  63.290  0.00  0.00     0.163 HD
BRANCH  10  13
ATOM     13  C6  non d ame      -8.444  10.273  63.835  0.00  0.00     0.086 C 
ATOM     14  H6  non d ame      -7.398  10.521  64.017  0.00  0.00     0.086 H 
BRANCH  13  15
ATOM     15  N2  non d ame      -8.632   8.905  64.288  0.00  0.00    -0.343 N 
ATOM     16  C5  non d ame      -7.465   8.100  64.655  0.00  0.00     0.273 C 
ATOM     17  O2  non d ame      -6.379   8.561  64.580  0.00  0.00    -0.266 OA
ATOM     18  H5  non d ame      -9.563   8.518  64.346  0.00  0.00     0.163 HD
BRANCH  16  19
ATOM     19  C4  non d ame      -7.648   6.652  65.137  0.00  0.00     0.154 A 
ATOM     20  C1  non d ame      -6.939   5.996  66.193  0.00  0.00    -0.017 A 
ATOM     21  C2  non d ame      -7.478   4.690  66.235  0.00  0.00     0.077 A 
ATOM     22  H1  non d ame      -6.154   6.404  66.830  0.00  0.00     0.091 H 
ATOM     23  O1  non d ame      -8.389   4.617  65.310  0.00  0.00    -0.218 OA
ATOM     24  N1  non d ame      -8.507   5.749  64.655  0.00  0.00    -0.123 NA
BRANCH  21  25
ATOM     25  C3  non d ame      -7.067   3.576  67.189  0.00  0.00    -0.029 C 
ATOM     26  H2  non d ame      -6.938   3.985  68.191  0.00  0.00     0.036 H 
ATOM     27  H3  non d ame      -7.841   2.809  67.206  0.00  0.00     0.036 H 
ATOM     28  H4  non d ame      -6.127   3.137  66.852  0.00  0.00     0.036 H 
ENDBRANCH  21  25
ENDBRANCH  16  19
ENDBRANCH  13  15
BRANCH  13  29
ATOM     29  C8  non d ame      -8.717  10.369  62.355  0.00  0.00    -0.049 C 
ATOM     30  H7  non d ame      -8.707   9.371  61.918  0.00  0.00     0.030 H 
ATOM     31  H8  non d ame      -9.693  10.827  62.195  0.00  0.00     0.030 H 
ATOM     32  H9  non d ame      -7.947  10.980  61.883  0.00  0.00     0.030 H 
ENDBRANCH  13  29
ENDBRANCH  10  13
ENDBRANCH   7   9
BRANCH   7  33
ATOM     33  C11 non d ame     -12.060  12.901  64.670  0.00  0.00    -0.033 C 
ATOM     34  H12 non d ame     -12.201  12.063  65.352  0.00  0.00     0.042 H 
BRANCH  33  35
ATOM     35  C12 non d ame     -13.103  13.997  65.051  0.00  0.00    -0.071 C 
ATOM     36  H13 non d ame     -12.723  14.585  65.886  0.00  0.00     0.028 H 
ATOM     37  H14 non d ame     -13.273  14.650  64.195  0.00  0.00     0.028 H 
ATOM     38  H15 non d ame     -14.041  13.521  65.337  0.00  0.00     0.028 H 
ENDBRANCH  33  35
BRANCH  33  39
ATOM     39  C13 non d ame     -12.289  12.382  63.214  0.00  0.00    -0.071 C 
ATOM     40  H16 non d ame     -13.297  12.640  62.891  0.00  0.00     0.028 H 
ATOM     41  H17 non d ame     -11.564  12.846  62.544  0.00  0.00     0.028 H 
ATOM     42  H18 non d ame     -12.165  11.300  63.190  0.00  0.00     0.028 H 
ENDBRANCH  33  39
ENDBRANCH   7  33
ENDBRANCH   4   7
ENDBRANCH   1   3
BRANCH   1  43
ATOM     43  C15 non d ame     -10.708  11.267  69.183  0.00  0.00     0.240 C 
ATOM     44  O5  non d ame     -11.677  10.620  69.417  0.00  0.00    -0.271 OA
ATOM     45  N6  non d ame      -9.356  10.654  69.320  0.00  0.00    -0.355 N 
ATOM     46  H46 non d ame      -8.526  11.192  69.119  0.00  0.00     0.162 HD
BRANCH  45  47
ATOM     47  C20 non d ame      -9.231   9.245  69.754  0.00  0.00     0.013 C 
ATOM     48  H30 non d ame     -10.088   9.011  70.384  0.00  0.00     0.072 H 
BRANCH  47  49
ATOM     49  C21 non d ame      -7.950   9.076  70.539  0.00  0.00    -0.038 C 
ATOM     50  H31 non d ame      -7.173   8.888  69.798  0.00  0.00     0.036 H 
ATOM     51  H32 non d ame      -7.885   9.951  71.187  0.00  0.00     0.036 H 
BRANCH  49  52
ATOM     52  C22 non d ame      -7.975   7.844  71.469  0.00  0.00     0.018 C 
ATOM     53  H33 non d ame      -8.723   7.171  71.047  0.00  0.00     0.048 H 
ATOM     54  H34 non d ame      -6.938   7.519  71.557  0.00  0.00     0.048 H 
BRANCH  52  55
ATOM     55  C23 non d ame      -8.449   8.160  72.914  0.00  0.00     0.259 C 
ATOM     56  O7  non d ame      -7.712   8.674  73.692  0.00  0.00    -0.265 OA
BRANCH  55  57
ATOM     57  O8  non d ame      -9.773   7.815  73.305  0.00  0.00    -0.317 OA
BRANCH  57  58
ATOM     58  C29 non d ame     -10.436   6.930  72.397  0.00  0.00     0.052 C 
ATOM     59  H47 non d ame      -9.867   6.981  71.468  0.00  0.00     0.082 H 
ATOM     60  H48 non d ame     -10.533   5.983  72.925  0.00  0.00     0.082 H 
BRANCH  58  61
ATOM     61  C35 non d ame     -11.858   7.493  72.133  0.00  0.00    -0.034 A 
ATOM     62  C30 non d ame     -12.866   6.651  71.674  0.00  0.00    -0.075 A 
ATOM     63  C31 non d ame     -14.143   7.156  71.436  0.00  0.00    -0.082 A 
ATOM     64  H49 non d ame     -12.655   5.595  71.500  0.00  0.00     0.084 H 
ATOM     65  C32 non d ame     -14.411   8.509  71.658  0.00  0.00    -0.083 A 
ATOM     66  H50 non d ame     -14.932   6.493  71.079  0.00  0.00     0.083 H 
ATOM     67  C33 non d ame     -13.401   9.346  72.113  0.00  0.00    -0.082 A 
ATOM     68  H51 non d ame     -15.407   8.912  71.475  0.00  0.00     0.083 H 
ATOM     69  C34 non d ame     -12.123   8.846  72.353  0.00  0.00    -0.075 A 
ATOM     70  H52 non d ame     -13.612  10.403  72.282  0.00  0.00     0.083 H 
ATOM     71  H53 non d ame     -11.336   9.509  72.711  0.00  0.00     0.084 H 
ENDBRANCH  58  61
ENDBRANCH  57  58
ENDBRANCH  55  57
ENDBRANCH  52  55
ENDBRANCH  49  52
ENDBRANCH  47  49
BRANCH  47  72
ATOM     72  C24 non d ame      -9.205   8.329  68.532  0.00  0.00    -0.039 C 
ATOM     73  H35 non d ame      -9.267   8.993  67.670  0.00  0.00     0.036 H 
ATOM     74  H36 non d ame      -8.331   7.691  68.666  0.00  0.00     0.036 H 
BRANCH  72  75
ATOM     75  C25 non d ame     -10.487   7.370  68.483  0.00  0.00    -0.001 C 
ATOM     76  C26 non d ame     -10.047   5.829  68.852  0.00  0.00    -0.035 C 
ATOM     77  C27 non d ame     -10.517   4.999  67.890  0.00  0.00     0.085 C 
ATOM     78  H38 non d ame      -8.966   5.720  68.776  0.00  0.00     0.036 H 
ATOM     79  H39 non d ame     -10.567   5.497  69.751  0.00  0.00     0.036 H 
ATOM     80  N5  non d ame     -10.953   5.865  66.733  0.00  0.00    -0.049 N 
ATOM     81  H40 non d ame      -9.661   4.397  67.581  0.00  0.00     0.075 H 
ATOM     82  H41 non d ame     -11.394   4.518  68.323  0.00  0.00     0.075 H 
ATOM     83  C28 non d ame     -11.027   7.371  67.310  0.00  0.00     0.193 C 
ATOM     84  H42 non d ame     -10.213   5.820  66.047  0.00  0.00     0.280 HD
ATOM     85  H43 non d ame     -11.887   5.568  66.489  0.00  0.00     0.280 HD
ATOM     86  H44 non d ame     -11.990   7.830  67.537  0.00  0.00     0.129 H 
ATOM     87  H37 non d ame     -11.335   7.787  69.025  0.00  0.00     0.046 H 
BRANCH  83  88
ATOM     88  O6  non d ame     -10.374   8.275  66.417  0.00  0.00    -0.369 OA
ATOM     89  H45 non d ame     -10.305   7.871  65.549  0.00  0.00     0.212 HD
ENDBRANCH  83  88
ENDBRANCH  72  75
ENDBRANCH  47  72
ENDBRANCH  45  47
ENDBRANCH   1  43
BRANCH   1  90
ATOM     90  C16 non d ame     -11.984  13.409  69.503  0.00  0.00    -0.035 C 
ATOM     91  H21 non d ame     -12.807  13.503  68.794  0.00  0.00     0.037 H 
ATOM     92  H22 non d ame     -12.107  12.808  70.403  0.00  0.00     0.037 H 
BRANCH  90  93
ATOM     93  C17 non d ame     -11.647  14.857  69.982  0.00  0.00    -0.059 C 
ATOM     94  H23 non d ame     -10.649  14.837  70.419  0.00  0.00     0.038 H 
BRANCH  93  95
ATOM     95  C18 non d ame     -11.628  15.880  68.800  0.00  0.00    -0.073 C 
ATOM     96  H24 non d ame     -11.343  15.367  67.881  0.00  0.00     0.028 H 
ATOM     97  H25 non d ame     -12.620  16.315  68.681  0.00  0.00     0.028 H 
ATOM     98  H26 non d ame     -10.908  16.669  69.015  0.00  0.00     0.028 H 
ENDBRANCH  93  95
BRANCH  93  99
ATOM     99  C19 non d ame     -12.615  15.310  71.078  0.00  0.00    -0.073 C 
ATOM    100  H27 non d ame     -12.968  16.318  70.858  0.00  0.00     0.028 H 
ATOM    101  H28 non d ame     -13.465  14.627  71.116  0.00  0.00     0.028 H 
ATOM    102  H29 non d ame     -12.103  15.305  72.040  0.00  0.00     0.028 H 
ENDBRANCH  93  99
ENDBRANCH  90  93
ENDBRANCH   1  90
TORSDOF 26
ENDMDL
MODEL 6
REMARK VINA RESULT:      -6.4      2.609      5.136
REMARK  26 active torsions:
REMARK  status: ('A' for Active; 'I' for Inactive)
REMARK    1  A    between atoms: C2_2  and  C3_3 
REMARK    2  A    between atoms: C4_6  and  C5_7 
REMARK       I    between atoms: C5_7  and  N2_9 
REMARK    3  A    between atoms: N2_9  and  C6_10 
REMARK    4  A    between atoms: C6_10  and  C7_11 
REMARK    5  A    between atoms: C6_10  and  C8_13 
REMARK       I    between atoms: C7_11  and  N3_14 
REMARK    6  A    between atoms: N3_14  and  C9_15 
REMARK    7  A    between atoms: C9_15  and  C10_16 
REMARK    8  A    between atoms: C9_15  and  C11_18 
REMARK       I    between atoms: C10_16  and  N4_21 
REMARK    9  A    between atoms: C11_18  and  C12_19 
REMARK   10  A    between atoms: C11_18  and  C13_20 
REMARK   11  A    between atoms: N4_21  and  C14_22 
REMARK   12  A    between atoms: C14_22  and  C15_23 
REMARK   13  A    between atoms: C14_22  and  C16_25 
REMARK       I    between atoms: C15_23  and  N6_40 
REMARK   14  A    between atoms: C16_25  and  C17_26 
REMARK   15  A    between atoms: C17_26  and  C18_27 
REMARK   16  A    between atoms: C17_26  and  C19_28 
REMARK   17  A    between atoms: C20_29  and  C21_30 
REMARK   18  A    between atoms: C20_29  and  C24_33 
REMARK   19  A    between atoms: C20_29  and  N6_40 
REMARK   20  A    between atoms: C21_30  and  C22_31 
REMARK   21  A    between atoms: C22_31  and  C23_32 
REMARK   22  A    between atoms: C23_32  and  O8_43 
REMARK   23  A    between atoms: C24_33  and  C25_34 
REMARK   24  A    between atoms: C28_38  and  O6_39 
REMARK   25  A    between atoms: C29_42  and  O8_43 
REMARK   26  A    between atoms: C29_42  and  C35_49 
ROOT
ATOM      1  C14 non d ame      -8.433  10.420  64.948  0.00  0.00     0.089 C 
ATOM      2  H20 non d ame      -7.680  11.207  64.893  0.00  0.00     0.087 H 
ENDROOT
BRANCH   1   3
ATOM      3  N4  non d ame      -7.792   9.239  65.509  0.00  0.00    -0.346 N 
ATOM      4  C10 non d ame      -6.355   9.295  65.961  0.00  0.00     0.241 C 
ATOM      5  O4  non d ame      -5.733  10.301  65.861  0.00  0.00    -0.271 OA
ATOM      6  H19 non d ame      -8.338   8.393  65.584  0.00  0.00     0.163 HD
BRANCH   4   7
ATOM      7  C9  non d ame      -5.710   8.065  66.545  0.00  0.00     0.092 C 
ATOM      8  H11 non d ame      -5.465   8.251  67.591  0.00  0.00     0.088 H 
BRANCH   7   9
ATOM      9  N3  non d ame      -6.662   6.952  66.514  0.00  0.00    -0.346 N 
ATOM     10  C7  non d ame      -7.104   6.347  67.746  0.00  0.00     0.240 C 
ATOM     11  O3  non d ame      -6.702   6.743  68.772  0.00  0.00    -0.271 OA
ATOM     12  H10 non d ame      -7.017   6.598  65.637  0.00  0.00     0.163 HD
BRANCH  10  13
ATOM     13  C6  non d ame      -8.116   5.160  67.707  0.00  0.00     0.086 C 
ATOM     14  H6  non d ame      -9.101   5.432  68.087  0.00  0.00     0.086 H 
BRANCH  13  15
ATOM     15  N2  non d ame      -8.303   4.746  66.326  0.00  0.00    -0.343 N 
ATOM     16  C5  non d ame      -9.650   4.736  65.752  0.00  0.00     0.273 C 
ATOM     17  O2  non d ame     -10.577   5.061  66.410  0.00  0.00    -0.266 OA
ATOM     18  H5  non d ame      -7.505   4.467  65.772  0.00  0.00     0.163 HD
BRANCH  16  19
ATOM     19  C4  non d ame      -9.862   4.302  64.293  0.00  0.00     0.154 A 
ATOM     20  C1  non d ame     -10.831   3.372  63.800  0.00  0.00    -0.017 A 
ATOM     21  C2  non d ame     -10.613   3.325  62.405  0.00  0.00     0.077 A 
ATOM     22  H1  non d ame     -11.578   2.816  64.367  0.00  0.00     0.091 H 
ATOM     23  O1  non d ame      -9.633   4.138  62.139  0.00  0.00    -0.218 OA
ATOM     24  N1  non d ame      -9.178   4.719  63.224  0.00  0.00    -0.123 NA
BRANCH  21  25
ATOM     25  C3  non d ame     -11.384   2.480  61.400  0.00  0.00    -0.029 C 
ATOM     26  H2  non d ame     -10.708   1.765  60.931  0.00  0.00     0.036 H 
ATOM     27  H3  non d ame     -12.182   1.942  61.913  0.00  0.00     0.036 H 
ATOM     28  H4  non d ame     -11.816   3.127  60.636  0.00  0.00     0.036 H 
ENDBRANCH  21  25
ENDBRANCH  16  19
ENDBRANCH  13  15
BRANCH  13  29
ATOM     29  C8  non d ame      -7.580   4.011  68.523  0.00  0.00    -0.049 C 
ATOM     30  H7  non d ame      -6.853   3.454  67.932  0.00  0.00     0.030 H 
ATOM     31  H8  non d ame      -7.098   4.397  69.421  0.00  0.00     0.030 H 
ATOM     32  H9  non d ame      -8.400   3.352  68.804  0.00  0.00     0.030 H 
ENDBRANCH  13  29
ENDBRANCH  10  13
ENDBRANCH   7   9
BRANCH   7  33
ATOM     33  C11 non d ame      -4.452   7.692  65.706  0.00  0.00    -0.033 C 
ATOM     34  H12 non d ame      -3.780   8.550  65.722  0.00  0.00     0.042 H 
BRANCH  33  35
ATOM     35  C12 non d ame      -3.688   6.485  66.334  0.00  0.00    -0.071 C 
ATOM     36  H13 non d ame      -2.628   6.727  66.412  0.00  0.00     0.028 H 
ATOM     37  H14 non d ame      -4.087   6.280  67.328  0.00  0.00     0.028 H 
ATOM     38  H15 non d ame      -3.815   5.607  65.703  0.00  0.00     0.028 H 
ENDBRANCH  33  35
BRANCH  33  39
ATOM     39  C13 non d ame      -4.836   7.407  64.219  0.00  0.00    -0.071 C 
ATOM     40  H16 non d ame      -5.300   8.294  63.787  0.00  0.00     0.028 H 
ATOM     41  H17 non d ame      -3.939   7.154  63.654  0.00  0.00     0.028 H 
ATOM     42  H18 non d ame      -5.538   6.574  64.178  0.00  0.00     0.028 H 
ENDBRANCH  33  39
ENDBRANCH   7  33
ENDBRANCH   4   7
ENDBRANCH   1   3
BRANCH   1  43
ATOM     43  C15 non d ame      -9.629  10.815  65.861  0.00  0.00     0.240 C 
ATOM     44  O5  non d ame     -10.176   9.984  66.511  0.00  0.00    -0.271 OA
ATOM     45  N6  non d ame     -10.088  12.231  65.930  0.00  0.00    -0.355 N 
ATOM     46  H46 non d ame      -9.629  12.947  65.385  0.00  0.00     0.162 HD
BRANCH  45  47
ATOM     47  C20 non d ame     -11.226  12.591  66.803  0.00  0.00     0.013 C 
ATOM     48  H30 non d ame     -11.796  11.684  67.003  0.00  0.00     0.072 H 
BRANCH  47  49
ATOM     49  C21 non d ame     -12.099  13.603  66.096  0.00  0.00    -0.038 C 
ATOM     50  H31 non d ame     -13.040  13.092  65.894  0.00  0.00     0.036 H 
ATOM     51  H32 non d ame     -12.085  14.494  66.725  0.00  0.00     0.036 H 
BRANCH  49  52
ATOM     52  C22 non d ame     -11.531  14.029  64.724  0.00  0.00     0.018 C 
ATOM     53  H33 non d ame     -10.449  13.924  64.807  0.00  0.00     0.048 H 
ATOM     54  H34 non d ame     -12.080  13.448  63.984  0.00  0.00     0.048 H 
BRANCH  52  55
ATOM     55  C23 non d ame     -11.790  15.521  64.375  0.00  0.00     0.259 C 
ATOM     56  O7  non d ame     -12.825  15.858  63.898  0.00  0.00    -0.265 OA
BRANCH  55  57
ATOM     57  O8  non d ame     -10.770  16.482  64.621  0.00  0.00    -0.317 OA
BRANCH  57  58
ATOM     58  C29 non d ame     -10.048  16.266  65.837  0.00  0.00     0.052 C 
ATOM     59  H47 non d ame     -10.762  15.818  66.528  0.00  0.00     0.082 H 
ATOM     60  H48 non d ame      -9.148  15.722  65.553  0.00  0.00     0.082 H 
BRANCH  58  61
ATOM     61  C35 non d ame      -9.627  17.652  66.396  0.00  0.00    -0.034 A 
ATOM     62  C30 non d ame      -8.280  17.979  66.505  0.00  0.00    -0.075 A 
ATOM     63  C31 non d ame      -7.902  19.223  67.007  0.00  0.00    -0.082 A 
ATOM     64  H49 non d ame      -7.520  17.261  66.196  0.00  0.00     0.084 H 
ATOM     65  C32 non d ame      -8.877  20.141  67.404  0.00  0.00    -0.083 A 
ATOM     66  H50 non d ame      -6.845  19.477  67.089  0.00  0.00     0.083 H 
ATOM     67  C33 non d ame     -10.221  19.809  67.297  0.00  0.00    -0.082 A 
ATOM     68  H51 non d ame      -8.591  21.116  67.798  0.00  0.00     0.083 H 
ATOM     69  C34 non d ame     -10.604  18.567  66.794  0.00  0.00    -0.075 A 
ATOM     70  H52 non d ame     -10.980  20.527  67.610  0.00  0.00     0.083 H 
ATOM     71  H53 non d ame     -11.661  18.314  66.711  0.00  0.00     0.084 H 
ENDBRANCH  58  61
ENDBRANCH  57  58
ENDBRANCH  55  57
ENDBRANCH  52  55
ENDBRANCH  49  52
ENDBRANCH  47  49
BRANCH  47  72
ATOM     72  C24 non d ame     -10.707  13.189  68.109  0.00  0.00    -0.039 C 
ATOM     73  H35 non d ame     -10.423  12.336  68.726  0.00  0.00     0.036 H 
ATOM     74  H36 non d ame      -9.955  13.922  67.813  0.00  0.00     0.036 H 
BRANCH  72  75
ATOM     75  C25 non d ame     -11.855  13.981  68.896  0.00  0.00    -0.001 C 
ATOM     76  C26 non d ame     -11.365  15.521  69.203  0.00  0.00    -0.035 C 
ATOM     77  C27 non d ame     -11.541  15.780  70.521  0.00  0.00     0.085 C 
ATOM     78  H38 non d ame     -10.286  15.603  69.069  0.00  0.00     0.036 H 
ATOM     79  H39 non d ame     -12.031  16.230  68.712  0.00  0.00     0.036 H 
ATOM     80  N5  non d ame     -11.798  14.457  71.201  0.00  0.00    -0.049 N 
ATOM     81  H40 non d ame     -10.587  16.179  70.869  0.00  0.00     0.075 H 
ATOM     82  H41 non d ame     -12.441  16.390  70.579  0.00  0.00     0.075 H 
ATOM     83  C28 non d ame     -12.132  13.408  70.020  0.00  0.00     0.193 C 
ATOM     84  H42 non d ame     -10.928  14.185  71.636  0.00  0.00     0.280 HD
ATOM     85  H43 non d ame     -12.627  14.581  71.764  0.00  0.00     0.280 HD
ATOM     86  H44 non d ame     -13.158  13.092  69.834  0.00  0.00     0.129 H 
ATOM     87  H37 non d ame     -12.835  13.856  68.434  0.00  0.00     0.046 H 
BRANCH  83  88
ATOM     88  O6  non d ame     -11.389  12.202  70.207  0.00  0.00    -0.369 OA
ATOM     89  H45 non d ame     -10.822  12.292  70.976  0.00  0.00     0.212 HD
ENDBRANCH  83  88
ENDBRANCH  72  75
ENDBRANCH  47  72
ENDBRANCH  45  47
ENDBRANCH   1  43
BRANCH   1  90
ATOM     90  C16 non d ame      -8.940  10.093  63.553  0.00  0.00    -0.035 C 
ATOM     91  H21 non d ame      -9.556   9.201  63.671  0.00  0.00     0.037 H 
ATOM     92  H22 non d ame      -9.385  11.017  63.184  0.00  0.00     0.037 H 
BRANCH  90  93
ATOM     93  C17 non d ame      -7.807   9.716  62.547  0.00  0.00    -0.059 C 
ATOM     94  H23 non d ame      -6.852   9.889  63.043  0.00  0.00     0.038 H 
BRANCH  93  95
ATOM     95  C18 non d ame      -7.862   8.210  62.134  0.00  0.00    -0.073 C 
ATOM     96  H24 non d ame      -8.481   8.101  61.243  0.00  0.00     0.028 H 
ATOM     97  H25 non d ame      -6.854   7.854  61.922  0.00  0.00     0.028 H 
ATOM     98  H26 non d ame      -8.290   7.626  62.949  0.00  0.00     0.028 H 
ENDBRANCH  93  95
BRANCH  93  99
ATOM     99  C19 non d ame      -7.848  10.621  61.313  0.00  0.00    -0.073 C 
ATOM    100  H27 non d ame      -8.821  10.531  60.828  0.00  0.00     0.028 H 
ATOM    101  H28 non d ame      -7.686  11.656  61.616  0.00  0.00     0.028 H 
ATOM    102  H29 non d ame      -7.066  10.321  60.616  0.00  0.00     0.028 H 
ENDBRANCH  93  99
ENDBRANCH  90  93
ENDBRANCH   1  90
TORSDOF 26
ENDMDL
MODEL 7
REMARK VINA RESULT:      -6.3      2.628      6.243
REMARK  26 active torsions:
REMARK  status: ('A' for Active; 'I' for Inactive)
REMARK    1  A    between atoms: C2_2  and  C3_3 
REMARK    2  A    between atoms: C4_6  and  C5_7 
REMARK       I    between atoms: C5_7  and  N2_9 
REMARK    3  A    between atoms: N2_9  and  C6_10 
REMARK    4  A    between atoms: C6_10  and  C7_11 
REMARK    5  A    between atoms: C6_10  and  C8_13 
REMARK       I    between atoms: C7_11  and  N3_14 
REMARK    6  A    between atoms: N3_14  and  C9_15 
REMARK    7  A    between atoms: C9_15  and  C10_16 
REMARK    8  A    between atoms: C9_15  and  C11_18 
REMARK       I    between atoms: C10_16  and  N4_21 
REMARK    9  A    between atoms: C11_18  and  C12_19 
REMARK   10  A    between atoms: C11_18  and  C13_20 
REMARK   11  A    between atoms: N4_21  and  C14_22 
REMARK   12  A    between atoms: C14_22  and  C15_23 
REMARK   13  A    between atoms: C14_22  and  C16_25 
REMARK       I    between atoms: C15_23  and  N6_40 
REMARK   14  A    between atoms: C16_25  and  C17_26 
REMARK   15  A    between atoms: C17_26  and  C18_27 
REMARK   16  A    between atoms: C17_26  and  C19_28 
REMARK   17  A    between atoms: C20_29  and  C21_30 
REMARK   18  A    between atoms: C20_29  and  C24_33 
REMARK   19  A    between atoms: C20_29  and  N6_40 
REMARK   20  A    between atoms: C21_30  and  C22_31 
REMARK   21  A    between atoms: C22_31  and  C23_32 
REMARK   22  A    between atoms: C23_32  and  O8_43 
REMARK   23  A    between atoms: C24_33  and  C25_34 
REMARK   24  A    between atoms: C28_38  and  O6_39 
REMARK   25  A    between atoms: C29_42  and  O8_43 
REMARK   26  A    between atoms: C29_42  and  C35_49 
ROOT
ATOM      1  C14 non d ame      -8.199  10.147  64.879  0.00  0.00     0.089 C 
ATOM      2  H20 non d ame      -7.683  10.977  64.395  0.00  0.00     0.087 H 
ENDROOT
BRANCH   1   3
ATOM      3  N4  non d ame      -7.301   9.599  65.885  0.00  0.00    -0.346 N 
ATOM      4  C10 non d ame      -6.436  10.516  66.714  0.00  0.00     0.241 C 
ATOM      5  O4  non d ame      -6.478  11.690  66.550  0.00  0.00    -0.271 OA
ATOM      6  H19 non d ame      -7.279   8.597  66.007  0.00  0.00     0.163 HD
BRANCH   4   7
ATOM      7  C9  non d ame      -5.517   9.932  67.754  0.00  0.00     0.092 C 
ATOM      8  H11 non d ame      -5.308  10.688  68.512  0.00  0.00     0.088 H 
BRANCH   7   9
ATOM      9  N3  non d ame      -6.188   8.817  68.429  0.00  0.00    -0.346 N 
ATOM     10  C7  non d ame      -6.887   9.041  69.671  0.00  0.00     0.240 C 
ATOM     11  O3  non d ame      -6.919  10.113  70.141  0.00  0.00    -0.271 OA
ATOM     12  H10 non d ame      -6.168   7.887  68.036  0.00  0.00     0.163 HD
BRANCH  10  13
ATOM     13  C6  non d ame      -7.596   7.850  70.386  0.00  0.00     0.086 C 
ATOM     14  H6  non d ame      -7.296   7.744  71.428  0.00  0.00     0.086 H 
BRANCH  13  15
ATOM     15  N2  non d ame      -9.030   8.088  70.389  0.00  0.00    -0.343 N 
ATOM     16  C5  non d ame      -9.687   8.517  71.625  0.00  0.00     0.273 C 
ATOM     17  O2  non d ame      -9.054   8.665  72.612  0.00  0.00    -0.266 OA
ATOM     18  H5  non d ame      -9.564   7.956  69.541  0.00  0.00     0.163 HD
BRANCH  16  19
ATOM     19  C4  non d ame     -11.202   8.774  71.643  0.00  0.00     0.154 A 
ATOM     20  C1  non d ame     -12.241   7.809  71.841  0.00  0.00    -0.017 A 
ATOM     21  C2  non d ame     -13.442   8.549  71.768  0.00  0.00     0.077 A 
ATOM     22  H1  non d ame     -12.138   6.738  72.013  0.00  0.00     0.091 H 
ATOM     23  O1  non d ame     -13.121   9.791  71.553  0.00  0.00    -0.218 OA
ATOM     24  N1  non d ame     -11.819   9.947  71.476  0.00  0.00    -0.123 NA
BRANCH  21  25
ATOM     25  C3  non d ame     -14.853   7.993  71.914  0.00  0.00    -0.029 C 
ATOM     26  H2  non d ame     -15.563   8.676  71.447  0.00  0.00     0.036 H 
ATOM     27  H3  non d ame     -14.912   7.019  71.429  0.00  0.00     0.036 H 
ATOM     28  H4  non d ame     -15.094   7.887  72.973  0.00  0.00     0.036 H 
ENDBRANCH  21  25
ENDBRANCH  16  19
ENDBRANCH  13  15
BRANCH  13  29
ATOM     29  C8  non d ame      -7.287   6.567  69.657  0.00  0.00    -0.049 C 
ATOM     30  H7  non d ame      -8.178   5.939  69.632  0.00  0.00     0.030 H 
ATOM     31  H8  non d ame      -6.975   6.794  68.637  0.00  0.00     0.030 H 
ATOM     32  H9  non d ame      -6.486   6.039  70.174  0.00  0.00     0.030 H 
ENDBRANCH  13  29
ENDBRANCH  10  13
ENDBRANCH   7   9
BRANCH   7  33
ATOM     33  C11 non d ame      -4.219   9.415  67.069  0.00  0.00    -0.033 C 
ATOM     34  H12 non d ame      -4.042  10.035  66.190  0.00  0.00     0.042 H 
BRANCH  33  35
ATOM     35  C12 non d ame      -2.981   9.566  68.007  0.00  0.00    -0.071 C 
ATOM     36  H13 non d ame      -2.788   8.617  68.509  0.00  0.00     0.028 H 
ATOM     37  H14 non d ame      -2.110   9.847  67.416  0.00  0.00     0.028 H 
ATOM     38  H15 non d ame      -3.182  10.337  68.750  0.00  0.00     0.028 H 
ENDBRANCH  33  35
BRANCH  33  39
ATOM     39  C13 non d ame      -4.390   7.937  66.590  0.00  0.00    -0.071 C 
ATOM     40  H16 non d ame      -5.302   7.850  66.000  0.00  0.00     0.028 H 
ATOM     41  H17 non d ame      -3.533   7.652  65.979  0.00  0.00     0.028 H 
ATOM     42  H18 non d ame      -4.453   7.280  67.457  0.00  0.00     0.028 H 
ENDBRANCH  33  39
ENDBRANCH   7  33
ENDBRANCH   4   7
ENDBRANCH   1   3
BRANCH   1  43
ATOM     43  C15 non d ame      -9.512  10.600  65.580  0.00  0.00     0.240 C 
ATOM     44  O5  non d ame     -10.409   9.831  65.709  0.00  0.00    -0.271 OA
ATOM     45  N6  non d ame      -9.647  11.991  66.099  0.00  0.00    -0.355 N 
ATOM     46  H46 non d ame      -8.890  12.651  66.000  0.00  0.00     0.162 HD
BRANCH  45  47
ATOM     47  C20 non d ame     -10.901  12.406  66.765  0.00  0.00     0.013 C 
ATOM     48  H30 non d ame     -11.379  11.513  67.166  0.00  0.00     0.072 H 
BRANCH  47  49
ATOM     49  C21 non d ame     -11.808  13.068  65.753  0.00  0.00    -0.038 C 
ATOM     50  H31 non d ame     -12.318  12.254  65.237  0.00  0.00     0.036 H 
ATOM     51  H32 non d ame     -12.384  13.805  66.312  0.00  0.00     0.036 H 
BRANCH  49  52
ATOM     52  C22 non d ame     -11.031  13.850  64.672  0.00  0.00     0.018 C 
ATOM     53  H33 non d ame     -10.035  14.012  65.084  0.00  0.00     0.048 H 
ATOM     54  H34 non d ame     -11.153  13.280  63.750  0.00  0.00     0.048 H 
BRANCH  52  55
ATOM     55  C23 non d ame     -11.610  15.262  64.382  0.00  0.00     0.259 C 
ATOM     56  O7  non d ame     -12.693  15.384  63.907  0.00  0.00    -0.265 OA
BRANCH  55  57
ATOM     57  O8  non d ame     -10.827  16.411  64.679  0.00  0.00    -0.317 OA
BRANCH  57  58
ATOM     58  C29 non d ame      -9.912  16.227  65.763  0.00  0.00     0.052 C 
ATOM     59  H47 non d ame     -10.339  15.436  66.379  0.00  0.00     0.082 H 
ATOM     60  H48 non d ame      -8.933  16.092  65.304  0.00  0.00     0.082 H 
BRANCH  58  61
ATOM     61  C35 non d ame      -9.886  17.537  66.595  0.00  0.00    -0.034 A 
ATOM     62  C30 non d ame     -10.489  18.689  66.100  0.00  0.00    -0.075 A 
ATOM     63  C31 non d ame     -10.466  19.866  66.847  0.00  0.00    -0.082 A 
ATOM     64  H49 non d ame     -10.980  18.670  65.127  0.00  0.00     0.084 H 
ATOM     65  C32 non d ame      -9.834  19.889  68.094  0.00  0.00    -0.083 A 
ATOM     66  H50 non d ame     -10.941  20.766  66.458  0.00  0.00     0.083 H 
ATOM     67  C33 non d ame      -9.231  18.738  68.582  0.00  0.00    -0.082 A 
ATOM     68  H51 non d ame      -9.812  20.804  68.685  0.00  0.00     0.083 H 
ATOM     69  C34 non d ame      -9.253  17.559  67.840  0.00  0.00    -0.075 A 
ATOM     70  H52 non d ame      -8.736  18.759  69.554  0.00  0.00     0.083 H 
ATOM     71  H53 non d ame      -8.778  16.659  68.230  0.00  0.00     0.084 H 
ENDBRANCH  58  61
ENDBRANCH  57  58
ENDBRANCH  55  57
ENDBRANCH  52  55
ENDBRANCH  49  52
ENDBRANCH  47  49
BRANCH  47  72
ATOM     72  C24 non d ame     -10.587  13.391  67.889  0.00  0.00    -0.039 C 
ATOM     73  H35 non d ame      -9.959  12.840  68.590  0.00  0.00     0.036 H 
ATOM     74  H36 non d ame     -10.200  14.282  67.395  0.00  0.00     0.036 H 
BRANCH  72  75
ATOM     75  C25 non d ame     -11.910  13.826  68.681  0.00  0.00    -0.001 C 
ATOM     76  C26 non d ame     -11.832  15.423  69.066  0.00  0.00    -0.035 C 
ATOM     77  C27 non d ame     -12.085  15.567  70.389  0.00  0.00     0.085 C 
ATOM     78  H38 non d ame     -10.809  15.783  68.962  0.00  0.00     0.036 H 
ATOM     79  H39 non d ame     -12.651  15.963  68.589  0.00  0.00     0.036 H 
ATOM     80  N5  non d ame     -12.006  14.191  71.005  0.00  0.00    -0.049 N 
ATOM     81  H40 non d ame     -11.270  16.178  70.777  0.00  0.00     0.075 H 
ATOM     82  H41 non d ame     -13.112  15.925  70.451  0.00  0.00     0.075 H 
ATOM     83  C28 non d ame     -12.046  13.149  69.772  0.00  0.00     0.193 C 
ATOM     84  H42 non d ame     -11.101  14.128  71.449  0.00  0.00     0.280 HD
ATOM     85  H43 non d ame     -12.847  14.074  71.552  0.00  0.00     0.280 HD
ATOM     86  H44 non d ame     -12.956  12.592  69.548  0.00  0.00     0.129 H 
ATOM     87  H37 non d ame     -12.819  13.478  68.190  0.00  0.00     0.046 H 
BRANCH  83  88
ATOM     88  O6  non d ame     -11.023  12.164  69.926  0.00  0.00    -0.369 OA
ATOM     89  H45 non d ame     -11.379  11.297  69.718  0.00  0.00     0.212 HD
ENDBRANCH  83  88
ENDBRANCH  72  75
ENDBRANCH  47  72
ENDBRANCH  45  47
ENDBRANCH   1  43
BRANCH   1  90
ATOM     90  C16 non d ame      -8.513   9.068  63.855  0.00  0.00    -0.035 C 
ATOM     91  H21 non d ame      -9.269   8.437  64.322  0.00  0.00     0.037 H 
ATOM     92  H22 non d ame      -8.743   9.604  62.933  0.00  0.00     0.037 H 
BRANCH  90  93
ATOM     93  C17 non d ame      -7.300   8.138  63.533  0.00  0.00    -0.059 C 
ATOM     94  H23 non d ame      -6.727   8.012  64.451  0.00  0.00     0.038 H 
BRANCH  93  95
ATOM     95  C18 non d ame      -7.754   6.721  63.056  0.00  0.00    -0.073 C 
ATOM     96  H24 non d ame      -6.927   6.020  63.164  0.00  0.00     0.028 H 
ATOM     97  H25 non d ame      -8.597   6.387  63.663  0.00  0.00     0.028 H 
ATOM     98  H26 non d ame      -8.057   6.770  62.010  0.00  0.00     0.028 H 
ENDBRANCH  93  95
BRANCH  93  99
ATOM     99  C19 non d ame      -6.372   8.787  62.503  0.00  0.00    -0.073 C 
ATOM    100  H27 non d ame      -5.610   8.069  62.196  0.00  0.00     0.028 H 
ATOM    101  H28 non d ame      -6.953   9.095  61.633  0.00  0.00     0.028 H 
ATOM    102  H29 non d ame      -5.891   9.660  62.946  0.00  0.00     0.028 H 
ENDBRANCH  93  99
ENDBRANCH  90  93
ENDBRANCH   1  90
TORSDOF 26
ENDMDL
MODEL 8
REMARK VINA RESULT:      -6.3      2.587      6.148
REMARK  26 active torsions:
REMARK  status: ('A' for Active; 'I' for Inactive)
REMARK    1  A    between atoms: C2_2  and  C3_3 
REMARK    2  A    between atoms: C4_6  and  C5_7 
REMARK       I    between atoms: C5_7  and  N2_9 
REMARK    3  A    between atoms: N2_9  and  C6_10 
REMARK    4  A    between atoms: C6_10  and  C7_11 
REMARK    5  A    between atoms: C6_10  and  C8_13 
REMARK       I    between atoms: C7_11  and  N3_14 
REMARK    6  A    between atoms: N3_14  and  C9_15 
REMARK    7  A    between atoms: C9_15  and  C10_16 
REMARK    8  A    between atoms: C9_15  and  C11_18 
REMARK       I    between atoms: C10_16  and  N4_21 
REMARK    9  A    between atoms: C11_18  and  C12_19 
REMARK   10  A    between atoms: C11_18  and  C13_20 
REMARK   11  A    between atoms: N4_21  and  C14_22 
REMARK   12  A    between atoms: C14_22  and  C15_23 
REMARK   13  A    between atoms: C14_22  and  C16_25 
REMARK       I    between atoms: C15_23  and  N6_40 
REMARK   14  A    between atoms: C16_25  and  C17_26 
REMARK   15  A    between atoms: C17_26  and  C18_27 
REMARK   16  A    between atoms: C17_26  and  C19_28 
REMARK   17  A    between atoms: C20_29  and  C21_30 
REMARK   18  A    between atoms: C20_29  and  C24_33 
REMARK   19  A    between atoms: C20_29  and  N6_40 
REMARK   20  A    between atoms: C21_30  and  C22_31 
REMARK   21  A    between atoms: C22_31  and  C23_32 
REMARK   22  A    between atoms: C23_32  and  O8_43 
REMARK   23  A    between atoms: C24_33  and  C25_34 
REMARK   24  A    between atoms: C28_38  and  O6_39 
REMARK   25  A    between atoms: C29_42  and  O8_43 
REMARK   26  A    between atoms: C29_42  and  C35_49 
ROOT
ATOM      1  C14 non d ame      -7.968   8.056  65.300  0.00  0.00     0.089 C 
ATOM      2  H20 non d ame      -7.028   8.556  65.535  0.00  0.00     0.087 H 
ENDROOT
BRANCH   1   3
ATOM      3  N4  non d ame      -8.065   6.883  66.156  0.00  0.00    -0.346 N 
ATOM      4  C10 non d ame      -7.127   6.713  67.325  0.00  0.00     0.241 C 
ATOM      5  O4  non d ame      -6.299   7.532  67.554  0.00  0.00    -0.271 OA
ATOM      6  H19 non d ame      -8.775   6.196  65.943  0.00  0.00     0.163 HD
BRANCH   4   7
ATOM      7  C9  non d ame      -7.246   5.495  68.204  0.00  0.00     0.092 C 
ATOM      8  H11 non d ame      -6.250   5.098  68.402  0.00  0.00     0.088 H 
BRANCH   7   9
ATOM      9  N3  non d ame      -7.824   5.879  69.495  0.00  0.00    -0.346 N 
ATOM     10  C7  non d ame      -7.029   5.790  70.695  0.00  0.00     0.240 C 
ATOM     11  O3  non d ame      -5.923   5.410  70.640  0.00  0.00    -0.271 OA
ATOM     12  H10 non d ame      -8.777   6.208  69.559  0.00  0.00     0.163 HD
BRANCH  10  13
ATOM     13  C6  non d ame      -7.650   6.197  72.067  0.00  0.00     0.086 C 
ATOM     14  H6  non d ame      -7.142   7.045  72.526  0.00  0.00     0.086 H 
BRANCH  13  15
ATOM     15  N2  non d ame      -9.030   6.603  71.858  0.00  0.00    -0.343 N 
ATOM     16  C5  non d ame      -9.417   7.994  72.103  0.00  0.00     0.273 C 
ATOM     17  O2  non d ame      -8.612   8.778  72.471  0.00  0.00    -0.266 OA
ATOM     18  H5  non d ame      -9.712   5.927  71.545  0.00  0.00     0.163 HD
BRANCH  16  19
ATOM     19  C4  non d ame     -10.872   8.438  71.884  0.00  0.00     0.154 A 
ATOM     20  C1  non d ame     -12.056   7.669  72.120  0.00  0.00    -0.017 A 
ATOM     21  C2  non d ame     -13.122   8.526  71.765  0.00  0.00     0.077 A 
ATOM     22  H1  non d ame     -12.129   6.647  72.491  0.00  0.00     0.091 H 
ATOM     23  O1  non d ame     -12.601   9.652  71.375  0.00  0.00    -0.218 OA
ATOM     24  N1  non d ame     -11.290   9.625  71.435  0.00  0.00    -0.123 NA
BRANCH  21  25
ATOM     25  C3  non d ame     -14.606   8.191  71.830  0.00  0.00    -0.029 C 
ATOM     26  H2  non d ame     -14.738   7.207  72.280  0.00  0.00     0.036 H 
ATOM     27  H3  non d ame     -15.121   8.939  72.434  0.00  0.00     0.036 H 
ATOM     28  H4  non d ame     -15.023   8.189  70.823  0.00  0.00     0.036 H 
ENDBRANCH  21  25
ENDBRANCH  16  19
ENDBRANCH  13  15
BRANCH  13  29
ATOM     29  C8  non d ame      -7.595   5.026  73.015  0.00  0.00    -0.049 C 
ATOM     30  H7  non d ame      -7.966   4.133  72.511  0.00  0.00     0.030 H 
ATOM     31  H8  non d ame      -6.565   4.863  73.331  0.00  0.00     0.030 H 
ATOM     32  H9  non d ame      -8.215   5.234  73.886  0.00  0.00     0.030 H 
ENDBRANCH  13  29
ENDBRANCH  10  13
ENDBRANCH   7   9
BRANCH   7  33
ATOM     33  C11 non d ame      -8.169   4.447  67.516  0.00  0.00    -0.033 C 
ATOM     34  H12 non d ame      -8.414   4.826  66.524  0.00  0.00     0.042 H 
BRANCH  33  35
ATOM     35  C12 non d ame      -7.438   3.081  67.330  0.00  0.00    -0.071 C 
ATOM     36  H13 non d ame      -7.055   2.740  68.292  0.00  0.00     0.028 H 
ATOM     37  H14 non d ame      -8.139   2.345  66.937  0.00  0.00     0.028 H 
ATOM     38  H15 non d ame      -6.611   3.205  66.632  0.00  0.00     0.028 H 
ENDBRANCH  33  35
BRANCH  33  39
ATOM     39  C13 non d ame      -9.504   4.272  68.310  0.00  0.00    -0.071 C 
ATOM     40  H16 non d ame     -10.090   5.188  68.242  0.00  0.00     0.028 H 
ATOM     41  H17 non d ame     -10.073   3.445  67.885  0.00  0.00     0.028 H 
ATOM     42  H18 non d ame      -9.279   4.060  69.355  0.00  0.00     0.028 H 
ENDBRANCH  33  39
ENDBRANCH   7  33
ENDBRANCH   4   7
ENDBRANCH   1   3
BRANCH   1  43
ATOM     43  C15 non d ame      -9.201   8.966  65.565  0.00  0.00     0.240 C 
ATOM     44  O5  non d ame     -10.108   8.558  66.214  0.00  0.00    -0.271 OA
ATOM     45  N6  non d ame      -9.245  10.352  65.017  0.00  0.00    -0.355 N 
ATOM     46  H46 non d ame      -8.478  10.712  64.468  0.00  0.00     0.162 HD
BRANCH  45  47
ATOM     47  C20 non d ame     -10.424  11.206  65.279  0.00  0.00     0.013 C 
ATOM     48  H30 non d ame     -11.293  10.556  65.384  0.00  0.00     0.072 H 
BRANCH  47  49
ATOM     49  C21 non d ame     -10.624  12.152  64.116  0.00  0.00    -0.038 C 
ATOM     50  H31 non d ame      -9.855  12.916  64.223  0.00  0.00     0.036 H 
ATOM     51  H32 non d ame     -10.649  11.522  63.226  0.00  0.00     0.036 H 
BRANCH  49  52
ATOM     52  C22 non d ame     -11.981  12.887  64.169  0.00  0.00     0.018 C 
ATOM     53  H33 non d ame     -12.464  12.684  63.213  0.00  0.00     0.048 H 
ATOM     54  H34 non d ame     -12.455  12.567  65.097  0.00  0.00     0.048 H 
BRANCH  52  55
ATOM     55  C23 non d ame     -11.852  14.433  64.265  0.00  0.00     0.259 C 
ATOM     56  O7  non d ame     -12.761  15.134  63.955  0.00  0.00    -0.265 OA
BRANCH  55  57
ATOM     57  O8  non d ame     -10.630  15.003  64.715  0.00  0.00    -0.317 OA
BRANCH  57  58
ATOM     58  C29 non d ame     -10.770  16.312  65.276  0.00  0.00     0.052 C 
ATOM     59  H47 non d ame     -10.463  17.003  64.491  0.00  0.00     0.082 H 
ATOM     60  H48 non d ame     -11.783  16.355  65.674  0.00  0.00     0.082 H 
BRANCH  58  61
ATOM     61  C35 non d ame      -9.772  16.436  66.458  0.00  0.00    -0.034 A 
ATOM     62  C30 non d ame      -9.923  17.455  67.393  0.00  0.00    -0.075 A 
ATOM     63  C31 non d ame      -9.027  17.566  68.455  0.00  0.00    -0.082 A 
ATOM     64  H49 non d ame     -10.744  18.165  67.295  0.00  0.00     0.084 H 
ATOM     65  C32 non d ame      -7.975  16.655  68.579  0.00  0.00    -0.083 A 
ATOM     66  H50 non d ame      -9.150  18.364  69.188  0.00  0.00     0.083 H 
ATOM     67  C33 non d ame      -7.826  15.642  67.641  0.00  0.00    -0.082 A 
ATOM     68  H51 non d ame      -7.270  16.735  69.406  0.00  0.00     0.083 H 
ATOM     69  C34 non d ame      -8.721  15.526  66.580  0.00  0.00    -0.075 A 
ATOM     70  H52 non d ame      -7.002  14.935  67.739  0.00  0.00     0.083 H 
ATOM     71  H53 non d ame      -8.598  14.727  65.848  0.00  0.00     0.084 H 
ENDBRANCH  58  61
ENDBRANCH  57  58
ENDBRANCH  55  57
ENDBRANCH  52  55
ENDBRANCH  49  52
ENDBRANCH  47  49
BRANCH  47  72
ATOM     72  C24 non d ame     -10.205  12.010  66.559  0.00  0.00    -0.039 C 
ATOM     73  H35 non d ame      -9.493  11.431  67.147  0.00  0.00     0.036 H 
ATOM     74  H36 non d ame      -9.948  13.016  66.228  0.00  0.00     0.036 H 
BRANCH  72  75
ATOM     75  C25 non d ame     -11.549  12.125  67.424  0.00  0.00    -0.001 C 
ATOM     76  C26 non d ame     -11.742  13.669  67.955  0.00  0.00    -0.035 C 
ATOM     77  C27 non d ame     -11.959  13.647  69.291  0.00  0.00     0.085 C 
ATOM     78  H38 non d ame     -10.806  14.218  67.858  0.00  0.00     0.036 H 
ATOM     79  H39 non d ame     -12.664  14.090  67.554  0.00  0.00     0.036 H 
ATOM     80  N5  non d ame     -11.607  12.260  69.773  0.00  0.00    -0.049 N 
ATOM     81  H40 non d ame     -11.251  14.361  69.714  0.00  0.00     0.075 H 
ATOM     82  H41 non d ame     -13.030  13.804  69.415  0.00  0.00     0.075 H 
ATOM     83  C28 non d ame     -11.513  11.341  68.449  0.00  0.00     0.193 C 
ATOM     84  H42 non d ame     -10.687  12.325  70.185  0.00  0.00     0.280 HD
ATOM     85  H43 non d ame     -12.388  11.943  70.329  0.00  0.00     0.280 HD
ATOM     86  H44 non d ame     -12.317  10.649  68.197  0.00  0.00     0.129 H 
ATOM     87  H37 non d ame     -12.401  11.661  66.926  0.00  0.00     0.046 H 
BRANCH  83  88
ATOM     88  O6  non d ame     -10.324  10.550  68.482  0.00  0.00    -0.369 OA
ATOM     89  H45 non d ame     -10.529   9.680  68.830  0.00  0.00     0.212 HD
ENDBRANCH  83  88
ENDBRANCH  72  75
ENDBRANCH  47  72
ENDBRANCH  45  47
ENDBRANCH   1  43
BRANCH   1  90
ATOM     90  C16 non d ame      -7.964   7.610  63.847  0.00  0.00    -0.035 C 
ATOM     91  H21 non d ame      -9.012   7.605  63.544  0.00  0.00     0.037 H 
ATOM     92  H22 non d ame      -7.255   8.268  63.344  0.00  0.00     0.037 H 
BRANCH  90  93
ATOM     93  C17 non d ame      -7.439   6.154  63.639  0.00  0.00    -0.059 C 
ATOM     94  H23 non d ame      -7.579   5.615  64.576  0.00  0.00     0.038 H 
BRANCH  93  95
ATOM     95  C18 non d ame      -8.232   5.394  62.528  0.00  0.00    -0.073 C 
ATOM     96  H24 non d ame      -7.535   4.841  61.899  0.00  0.00     0.028 H 
ATOM     97  H25 non d ame      -8.932   4.699  62.993  0.00  0.00     0.028 H 
ATOM     98  H26 non d ame      -8.782   6.111  61.919  0.00  0.00     0.028 H 
ENDBRANCH  93  95
BRANCH  93  99
ATOM     99  C19 non d ame      -5.939   6.152  63.334  0.00  0.00    -0.073 C 
ATOM    100  H27 non d ame      -5.751   6.729  62.428  0.00  0.00     0.028 H 
ATOM    101  H28 non d ame      -5.398   6.601  64.169  0.00  0.00     0.028 H 
ATOM    102  H29 non d ame      -5.598   5.127  63.190  0.00  0.00     0.028 H 
ENDBRANCH  93  99
ENDBRANCH  90  93
ENDBRANCH   1  90
TORSDOF 26
ENDMDL
MODEL 9
REMARK VINA RESULT:      -6.2      2.440     10.068
REMARK  26 active torsions:
REMARK  status: ('A' for Active; 'I' for Inactive)
REMARK    1  A    between atoms: C2_2  and  C3_3 
REMARK    2  A    between atoms: C4_6  and  C5_7 
REMARK       I    between atoms: C5_7  and  N2_9 
REMARK    3  A    between atoms: N2_9  and  C6_10 
REMARK    4  A    between atoms: C6_10  and  C7_11 
REMARK    5  A    between atoms: C6_10  and  C8_13 
REMARK       I    between atoms: C7_11  and  N3_14 
REMARK    6  A    between atoms: N3_14  and  C9_15 
REMARK    7  A    between atoms: C9_15  and  C10_16 
REMARK    8  A    between atoms: C9_15  and  C11_18 
REMARK       I    between atoms: C10_16  and  N4_21 
REMARK    9  A    between atoms: C11_18  and  C12_19 
REMARK   10  A    between atoms: C11_18  and  C13_20 
REMARK   11  A    between atoms: N4_21  and  C14_22 
REMARK   12  A    between atoms: C14_22  and  C15_23 
REMARK   13  A    between atoms: C14_22  and  C16_25 
REMARK       I    between atoms: C15_23  and  N6_40 
REMARK   14  A    between atoms: C16_25  and  C17_26 
REMARK   15  A    between atoms: C17_26  and  C18_27 
REMARK   16  A    between atoms: C17_26  and  C19_28 
REMARK   17  A    between atoms: C20_29  and  C21_30 
REMARK   18  A    between atoms: C20_29  and  C24_33 
REMARK   19  A    between atoms: C20_29  and  N6_40 
REMARK   20  A    between atoms: C21_30  and  C22_31 
REMARK   21  A    between atoms: C22_31  and  C23_32 
REMARK   22  A    between atoms: C23_32  and  O8_43 
REMARK   23  A    between atoms: C24_33  and  C25_34 
REMARK   24  A    between atoms: C28_38  and  O6_39 
REMARK   25  A    between atoms: C29_42  and  O8_43 
REMARK   26  A    between atoms: C29_42  and  C35_49 
ROOT
ATOM      1  C14 non d ame      -8.229   8.230  63.294  0.00  0.00     0.089 C 
ATOM      2  H20 non d ame      -9.168   8.355  62.755  0.00  0.00     0.087 H 
ENDROOT
BRANCH   1   3
ATOM      3  N4  non d ame      -8.317   9.018  64.515  0.00  0.00    -0.346 N 
ATOM      4  C10 non d ame      -9.331  10.128  64.634  0.00  0.00     0.241 C 
ATOM      5  O4  non d ame     -10.064  10.371  63.732  0.00  0.00    -0.271 OA
ATOM      6  H19 non d ame      -7.683   8.798  65.269  0.00  0.00     0.163 HD
BRANCH   4   7
ATOM      7  C9  non d ame      -9.411  10.930  65.906  0.00  0.00     0.092 C 
ATOM      8  H11 non d ame      -8.651  11.711  65.886  0.00  0.00     0.088 H 
BRANCH   7   9
ATOM      9  N3  non d ame     -10.715  11.596  65.983  0.00  0.00    -0.346 N 
ATOM     10  C7  non d ame     -10.788  13.036  66.013  0.00  0.00     0.240 C 
ATOM     11  O3  non d ame      -9.807  13.674  65.977  0.00  0.00    -0.271 OA
ATOM     12  H10 non d ame     -11.570  11.059  66.016  0.00  0.00     0.163 HD
BRANCH  10  13
ATOM     13  C6  non d ame     -12.178  13.739  66.097  0.00  0.00     0.086 C 
ATOM     14  H6  non d ame     -13.007  13.032  66.127  0.00  0.00     0.086 H 
BRANCH  13  15
ATOM     15  N2  non d ame     -12.243  14.508  67.329  0.00  0.00    -0.343 N 
ATOM     16  C5  non d ame     -12.087  13.825  68.615  0.00  0.00     0.273 C 
ATOM     17  O2  non d ame     -11.912  12.656  68.648  0.00  0.00    -0.266 OA
ATOM     18  H5  non d ame     -12.396  15.506  67.292  0.00  0.00     0.163 HD
BRANCH  16  19
ATOM     19  C4  non d ame     -12.152  14.625  69.925  0.00  0.00     0.154 A 
ATOM     20  C1  non d ame     -12.518  14.137  71.219  0.00  0.00    -0.017 A 
ATOM     21  C2  non d ame     -12.418  15.259  72.072  0.00  0.00     0.077 A 
ATOM     22  H1  non d ame     -12.812  13.125  71.497  0.00  0.00     0.091 H 
ATOM     23  O1  non d ame     -12.037  16.267  71.344  0.00  0.00    -0.218 OA
ATOM     24  N1  non d ame     -11.876  15.922  70.087  0.00  0.00    -0.123 NA
BRANCH  21  25
ATOM     25  C3  non d ame     -12.703  15.282  73.568  0.00  0.00    -0.029 C 
ATOM     26  H2  non d ame     -11.766  15.389  74.116  0.00  0.00     0.036 H 
ATOM     27  H3  non d ame     -13.357  16.123  73.801  0.00  0.00     0.036 H 
ATOM     28  H4  non d ame     -13.191  14.352  73.860  0.00  0.00     0.036 H 
ENDBRANCH  21  25
ENDBRANCH  16  19
ENDBRANCH  13  15
BRANCH  13  29
ATOM     29  C8  non d ame     -12.357  14.650  64.910  0.00  0.00    -0.049 C 
ATOM     30  H7  non d ame     -13.374  15.043  64.903  0.00  0.00     0.030 H 
ATOM     31  H8  non d ame     -11.648  15.476  64.975  0.00  0.00     0.030 H 
ATOM     32  H9  non d ame     -12.179  14.090  63.992  0.00  0.00     0.030 H 
ENDBRANCH  13  29
ENDBRANCH  10  13
ENDBRANCH   7   9
BRANCH   7  33
ATOM     33  C11 non d ame      -9.244   9.981  67.129  0.00  0.00    -0.033 C 
ATOM     34  H12 non d ame      -8.601   9.157  66.819  0.00  0.00     0.042 H 
BRANCH  33  35
ATOM     35  C12 non d ame      -8.539  10.704  68.318  0.00  0.00    -0.071 C 
ATOM     36  H13 non d ame      -9.267  11.314  68.855  0.00  0.00     0.028 H 
ATOM     37  H14 non d ame      -8.118   9.962  68.996  0.00  0.00     0.028 H 
ATOM     38  H15 non d ame      -7.743  11.342  67.935  0.00  0.00     0.028 H 
ENDBRANCH  33  35
BRANCH  33  39
ATOM     39  C13 non d ame     -10.620   9.383  67.565  0.00  0.00    -0.071 C 
ATOM     40  H16 non d ame     -11.128  10.084  68.226  0.00  0.00     0.028 H 
ATOM     41  H17 non d ame     -11.235   9.204  66.682  0.00  0.00     0.028 H 
ATOM     42  H18 non d ame     -10.457   8.441  68.090  0.00  0.00     0.028 H 
ENDBRANCH  33  39
ENDBRANCH   7  33
ENDBRANCH   4   7
ENDBRANCH   1   3
BRANCH   1  43
ATOM     43  C15 non d ame      -7.966   6.746  63.681  0.00  0.00     0.240 C 
ATOM     44  O5  non d ame      -7.698   5.954  62.836  0.00  0.00    -0.271 OA
ATOM     45  N6  non d ame      -8.041   6.314  65.106  0.00  0.00    -0.355 N 
ATOM     46  H46 non d ame      -8.263   6.979  65.832  0.00  0.00     0.162 HD
BRANCH  45  47
ATOM     47  C20 non d ame      -7.787   4.900  65.457  0.00  0.00     0.013 C 
ATOM     48  H30 non d ame      -7.665   4.341  64.529  0.00  0.00     0.072 H 
BRANCH  47  49
ATOM     49  C21 non d ame      -8.965   4.360  66.235  0.00  0.00    -0.038 C 
ATOM     50  H31 non d ame      -9.445   5.229  66.685  0.00  0.00     0.036 H 
ATOM     51  H32 non d ame      -9.517   3.732  65.535  0.00  0.00     0.036 H 
BRANCH  49  52
ATOM     52  C22 non d ame      -8.541   3.442  67.403  0.00  0.00     0.018 C 
ATOM     53  H33 non d ame      -9.179   2.561  67.333  0.00  0.00     0.048 H 
ATOM     54  H34 non d ame      -7.459   3.340  67.320  0.00  0.00     0.048 H 
BRANCH  52  55
ATOM     55  C23 non d ame      -8.807   4.053  68.807  0.00  0.00     0.259 C 
ATOM     56  O7  non d ame      -8.204   3.668  69.756  0.00  0.00    -0.265 OA
BRANCH  55  57
ATOM     57  O8  non d ame      -9.790   5.071  68.950  0.00  0.00    -0.317 OA
BRANCH  57  58
ATOM     58  C29 non d ame     -10.477   5.046  70.204  0.00  0.00     0.052 C 
ATOM     59  H47 non d ame     -11.446   4.591  70.000  0.00  0.00     0.082 H 
ATOM     60  H48 non d ame      -9.791   4.575  70.907  0.00  0.00     0.082 H 
BRANCH  58  61
ATOM     61  C35 non d ame     -10.708   6.514  70.653  0.00  0.00    -0.034 A 
ATOM     62  C30 non d ame     -11.987   6.945  70.992  0.00  0.00    -0.075 A 
ATOM     63  C31 non d ame     -12.195   8.263  71.395  0.00  0.00    -0.082 A 
ATOM     64  H49 non d ame     -12.825   6.250  70.943  0.00  0.00     0.084 H 
ATOM     65  C32 non d ame     -11.119   9.153  71.456  0.00  0.00    -0.083 A 
ATOM     66  H50 non d ame     -13.197   8.597  71.663  0.00  0.00     0.083 H 
ATOM     67  C33 non d ame      -9.845   8.719  71.113  0.00  0.00    -0.082 A 
ATOM     68  H51 non d ame     -11.272  10.185  71.770  0.00  0.00     0.083 H 
ATOM     69  C34 non d ame      -9.632   7.401  70.711  0.00  0.00    -0.075 A 
ATOM     70  H52 non d ame      -9.008   9.416  71.159  0.00  0.00     0.083 H 
ATOM     71  H53 non d ame      -8.629   7.068  70.445  0.00  0.00     0.084 H 
ENDBRANCH  58  61
ENDBRANCH  57  58
ENDBRANCH  55  57
ENDBRANCH  52  55
ENDBRANCH  49  52
ENDBRANCH  47  49
BRANCH  47  72
ATOM     72  C24 non d ame      -6.523   4.798  66.308  0.00  0.00    -0.039 C 
ATOM     73  H35 non d ame      -6.499   5.712  66.903  0.00  0.00     0.036 H 
ATOM     74  H36 non d ame      -6.583   3.829  66.801  0.00  0.00     0.036 H 
BRANCH  72  75
ATOM     75  C25 non d ame      -5.200   4.788  65.405  0.00  0.00    -0.001 C 
ATOM     76  C26 non d ame      -4.238   3.526  65.835  0.00  0.00    -0.035 C 
ATOM     77  C27 non d ame      -2.986   3.990  66.064  0.00  0.00     0.085 C 
ATOM     78  H38 non d ame      -4.546   3.135  66.805  0.00  0.00     0.036 H 
ATOM     79  H39 non d ame      -4.108   2.849  64.991  0.00  0.00     0.036 H 
ATOM     80  N5  non d ame      -3.081   5.494  66.148  0.00  0.00    -0.049 N 
ATOM     81  H40 non d ame      -2.703   3.597  67.041  0.00  0.00     0.075 H 
ATOM     82  H41 non d ame      -2.409   3.719  65.180  0.00  0.00     0.075 H 
ATOM     83  C28 non d ame      -4.528   5.882  65.547  0.00  0.00     0.193 C 
ATOM     84  H42 non d ame      -3.067   5.728  67.130  0.00  0.00     0.280 HD
ATOM     85  H43 non d ame      -2.369   5.861  65.532  0.00  0.00     0.280 HD
ATOM     86  H44 non d ame      -4.618   6.301  64.545  0.00  0.00     0.129 H 
ATOM     87  H37 non d ame      -5.423   4.902  64.344  0.00  0.00     0.046 H 
BRANCH  83  88
ATOM     88  O6  non d ame      -5.187   6.811  66.410  0.00  0.00    -0.369 OA
ATOM     89  H45 non d ame      -6.127   6.818  66.214  0.00  0.00     0.212 HD
ENDBRANCH  83  88
ENDBRANCH  72  75
ENDBRANCH  47  72
ENDBRANCH  45  47
ENDBRANCH   1  43
BRANCH   1  90
ATOM     90  C16 non d ame      -7.077   8.750  62.450  0.00  0.00    -0.035 C 
ATOM     91  H21 non d ame      -6.812   7.928  61.785  0.00  0.00     0.037 H 
ATOM     92  H22 non d ame      -7.428   9.695  62.034  0.00  0.00     0.037 H 
BRANCH  90  93
ATOM     93  C17 non d ame      -5.794   9.081  63.276  0.00  0.00    -0.059 C 
ATOM     94  H23 non d ame      -6.003   8.848  64.320  0.00  0.00     0.038 H 
BRANCH  93  95
ATOM     95  C18 non d ame      -4.569   8.218  62.832  0.00  0.00    -0.073 C 
ATOM     96  H24 non d ame      -4.744   7.828  61.830  0.00  0.00     0.028 H 
ATOM     97  H25 non d ame      -3.671   8.837  62.830  0.00  0.00     0.028 H 
ATOM     98  H26 non d ame      -4.437   7.389  63.528  0.00  0.00     0.028 H 
ENDBRANCH  93  95
BRANCH  93  99
ATOM     99  C19 non d ame      -5.464  10.574  63.201  0.00  0.00    -0.073 C 
ATOM    100  H27 non d ame      -5.163  10.829  62.185  0.00  0.00     0.028 H 
ATOM    101  H28 non d ame      -6.346  11.154  63.475  0.00  0.00     0.028 H 
ATOM    102  H29 non d ame      -4.651  10.802  63.890  0.00  0.00     0.028 H 
ENDBRANCH  93  99
ENDBRANCH  90  93
ENDBRANCH   1  90
TORSDOF 26
ENDMDL
MODEL 10
REMARK VINA RESULT:      -6.1      2.549      4.649
REMARK  26 active torsions:
REMARK  status: ('A' for Active; 'I' for Inactive)
REMARK    1  A    between atoms: C2_2  and  C3_3 
REMARK    2  A    between atoms: C4_6  and  C5_7 
REMARK       I    between atoms: C5_7  and  N2_9 
REMARK    3  A    between atoms: N2_9  and  C6_10 
REMARK    4  A    between atoms: C6_10  and  C7_11 
REMARK    5  A    between atoms: C6_10  and  C8_13 
REMARK       I    between atoms: C7_11  and  N3_14 
REMARK    6  A    between atoms: N3_14  and  C9_15 
REMARK    7  A    between atoms: C9_15  and  C10_16 
REMARK    8  A    between atoms: C9_15  and  C11_18 
REMARK       I    between atoms: C10_16  and  N4_21 
REMARK    9  A    between atoms: C11_18  and  C12_19 
REMARK   10  A    between atoms: C11_18  and  C13_20 
REMARK   11  A    between atoms: N4_21  and  C14_22 
REMARK   12  A    between atoms: C14_22  and  C15_23 
REMARK   13  A    between atoms: C14_22  and  C16_25 
REMARK       I    between atoms: C15_23  and  N6_40 
REMARK   14  A    between atoms: C16_25  and  C17_26 
REMARK   15  A    between atoms: C17_26  and  C18_27 
REMARK   16  A    between atoms: C17_26  and  C19_28 
REMARK   17  A    between atoms: C20_29  and  C21_30 
REMARK   18  A    between atoms: C20_29  and  C24_33 
REMARK   19  A    between atoms: C20_29  and  N6_40 
REMARK   20  A    between atoms: C21_30  and  C22_31 
REMARK   21  A    between atoms: C22_31  and  C23_32 
REMARK   22  A    between atoms: C23_32  and  O8_43 
REMARK   23  A    between atoms: C24_33  and  C25_34 
REMARK   24  A    between atoms: C28_38  and  O6_39 
REMARK   25  A    between atoms: C29_42  and  O8_43 
REMARK   26  A    between atoms: C29_42  and  C35_49 
ROOT
ATOM      1  C14 non d ame     -10.835   9.585  69.430  0.00  0.00     0.089 C 
ATOM      2  H20 non d ame     -11.255   8.660  69.034  0.00  0.00     0.087 H 
ENDROOT
BRANCH   1   3
ATOM      3  N4  non d ame      -9.386   9.450  69.413  0.00  0.00    -0.346 N 
ATOM      4  C10 non d ame      -8.748   8.085  69.351  0.00  0.00     0.241 C 
ATOM      5  O4  non d ame      -9.422   7.109  69.318  0.00  0.00    -0.271 OA
ATOM      6  H19 non d ame      -8.830  10.293  69.444  0.00  0.00     0.163 HD
BRANCH   4   7
ATOM      7  C9  non d ame      -7.247   7.965  69.329  0.00  0.00     0.092 C 
ATOM      8  H11 non d ame      -6.970   6.918  69.452  0.00  0.00     0.088 H 
BRANCH   7   9
ATOM      9  N3  non d ame      -6.741   8.398  68.023  0.00  0.00    -0.346 N 
ATOM     10  C7  non d ame      -6.497   7.425  66.987  0.00  0.00     0.240 C 
ATOM     11  O3  non d ame      -6.701   6.290  67.187  0.00  0.00    -0.271 OA
ATOM     12  H10 non d ame      -6.559   9.374  67.836  0.00  0.00     0.163 HD
BRANCH  10  13
ATOM     13  C6  non d ame      -5.955   7.892  65.600  0.00  0.00     0.086 C 
ATOM     14  H6  non d ame      -5.970   7.098  64.853  0.00  0.00     0.086 H 
BRANCH  13  15
ATOM     15  N2  non d ame      -6.807   8.955  65.094  0.00  0.00    -0.343 N 
ATOM     16  C5  non d ame      -7.994   8.615  64.307  0.00  0.00     0.273 C 
ATOM     17  O2  non d ame      -8.253   7.483  64.083  0.00  0.00    -0.266 OA
ATOM     18  H5  non d ame      -6.577   9.919  65.288  0.00  0.00     0.163 HD
BRANCH  16  19
ATOM     19  C4  non d ame      -8.905   9.729  63.767  0.00  0.00     0.154 A 
ATOM     20  C1  non d ame     -10.079  10.263  64.388  0.00  0.00    -0.017 A 
ATOM     21  C2  non d ame     -10.543  11.254  63.496  0.00  0.00     0.077 A 
ATOM     22  H1  non d ame     -10.525   9.975  65.340  0.00  0.00     0.091 H 
ATOM     23  O1  non d ame      -9.725  11.280  62.485  0.00  0.00    -0.218 OA
ATOM     24  N1  non d ame      -8.761  10.398  62.621  0.00  0.00    -0.123 NA
BRANCH  21  25
ATOM     25  C3  non d ame     -11.774  12.131  63.683  0.00  0.00    -0.029 C 
ATOM     26  H2  non d ame     -12.628  11.508  63.951  0.00  0.00     0.036 H 
ATOM     27  H3  non d ame     -11.588  12.853  64.478  0.00  0.00     0.036 H 
ATOM     28  H4  non d ame     -11.988  12.661  62.755  0.00  0.00     0.036 H 
ENDBRANCH  21  25
ENDBRANCH  16  19
ENDBRANCH  13  15
BRANCH  13  29
ATOM     29  C8  non d ame      -4.541   8.391  65.752  0.00  0.00    -0.049 C 
ATOM     30  H7  non d ame      -4.011   8.276  64.806  0.00  0.00     0.030 H 
ATOM     31  H8  non d ame      -4.556   9.444  66.034  0.00  0.00     0.030 H 
ATOM     32  H9  non d ame      -4.033   7.815  66.525  0.00  0.00     0.030 H 
ENDBRANCH  13  29
ENDBRANCH  10  13
ENDBRANCH   7   9
BRANCH   7  33
ATOM     33  C11 non d ame      -6.638   8.866  70.443  0.00  0.00    -0.033 C 
ATOM     34  H12 non d ame      -7.466   9.321  70.987  0.00  0.00     0.042 H 
BRANCH  33  35
ATOM     35  C12 non d ame      -5.811   8.026  71.465  0.00  0.00    -0.071 C 
ATOM     36  H13 non d ame      -4.794   8.415  71.517  0.00  0.00     0.028 H 
ATOM     37  H14 non d ame      -6.275   8.092  72.449  0.00  0.00     0.028 H 
ATOM     38  H15 non d ame      -5.787   6.985  71.144  0.00  0.00     0.028 H 
ENDBRANCH  33  35
BRANCH  33  39
ATOM     39  C13 non d ame      -5.777  10.014  69.825  0.00  0.00    -0.071 C 
ATOM     40  H16 non d ame      -4.929  10.223  70.477  0.00  0.00     0.028 H 
ATOM     41  H17 non d ame      -5.415   9.709  68.843  0.00  0.00     0.028 H 
ATOM     42  H18 non d ame      -6.388  10.912  69.724  0.00  0.00     0.028 H 
ENDBRANCH  33  39
ENDBRANCH   7  33
ENDBRANCH   4   7
ENDBRANCH   1   3
BRANCH   1  43
ATOM     43  C15 non d ame     -11.228  10.822  68.572  0.00  0.00     0.240 C 
ATOM     44  O5  non d ame     -11.753  10.667  67.517  0.00  0.00    -0.271 OA
ATOM     45  N6  non d ame     -10.956  12.200  69.070  0.00  0.00    -0.355 N 
ATOM     46  H46 non d ame     -10.515  12.345  69.966  0.00  0.00     0.162 HD
BRANCH  45  47
ATOM     47  C20 non d ame     -11.337  13.366  68.243  0.00  0.00     0.013 C 
ATOM     48  H30 non d ame     -12.039  13.023  67.483  0.00  0.00     0.072 H 
BRANCH  47  49
ATOM     49  C21 non d ame     -10.101  13.937  67.585  0.00  0.00    -0.038 C 
ATOM     50  H31 non d ame      -9.272  13.686  68.247  0.00  0.00     0.036 H 
ATOM     51  H32 non d ame     -10.114  13.564  66.561  0.00  0.00     0.036 H 
BRANCH  49  52
ATOM     52  C22 non d ame     -10.131  15.478  67.489  0.00  0.00     0.018 C 
ATOM     53  H33 non d ame     -10.953  15.798  68.129  0.00  0.00     0.048 H 
ATOM     54  H34 non d ame      -9.114  15.807  67.703  0.00  0.00     0.048 H 
BRANCH  52  55
ATOM     55  C23 non d ame     -10.462  16.010  66.067  0.00  0.00     0.259 C 
ATOM     56  O7  non d ame     -11.001  15.311  65.271  0.00  0.00    -0.265 OA
BRANCH  55  57
ATOM     57  O8  non d ame     -10.101  17.341  65.719  0.00  0.00    -0.317 OA
BRANCH  57  58
ATOM     58  C29 non d ame     -10.393  18.307  66.734  0.00  0.00     0.052 C 
ATOM     59  H47 non d ame     -11.005  19.067  66.250  0.00  0.00     0.082 H 
ATOM     60  H48 non d ame     -10.792  17.740  67.575  0.00  0.00     0.082 H 
BRANCH  58  61
ATOM     61  C35 non d ame      -9.055  18.959  67.173  0.00  0.00    -0.034 A 
ATOM     62  C30 non d ame      -8.195  19.494  66.219  0.00  0.00    -0.075 A 
ATOM     63  C31 non d ame      -6.993  20.080  66.613  0.00  0.00    -0.082 A 
ATOM     64  H49 non d ame      -8.463  19.455  65.163  0.00  0.00     0.084 H 
ATOM     65  C32 non d ame      -6.651  20.128  67.967  0.00  0.00    -0.083 A 
ATOM     66  H50 non d ame      -6.322  20.501  65.863  0.00  0.00     0.083 H 
ATOM     67  C33 non d ame      -7.510  19.590  68.915  0.00  0.00    -0.082 A 
ATOM     68  H51 non d ame      -5.713  20.585  68.284  0.00  0.00     0.083 H 
ATOM     69  C34 non d ame      -8.714  19.005  68.526  0.00  0.00    -0.075 A 
ATOM     70  H52 non d ame      -7.239  19.626  69.970  0.00  0.00     0.083 H 
ATOM     71  H53 non d ame      -9.384  18.586  69.276  0.00  0.00     0.084 H 
ENDBRANCH  58  61
ENDBRANCH  57  58
ENDBRANCH  55  57
ENDBRANCH  52  55
ENDBRANCH  49  52
ENDBRANCH  47  49
BRANCH  47  72
ATOM     72  C24 non d ame     -11.986  14.433  69.122  0.00  0.00    -0.039 C 
ATOM     73  H35 non d ame     -11.446  15.355  68.905  0.00  0.00     0.036 H 
ATOM     74  H36 non d ame     -13.054  14.366  68.918  0.00  0.00     0.036 H 
BRANCH  72  75
ATOM     75  C25 non d ame     -11.781  14.122  70.680  0.00  0.00    -0.001 C 
ATOM     76  C26 non d ame     -13.091  13.320  71.268  0.00  0.00    -0.035 C 
ATOM     77  C27 non d ame     -13.530  13.957  72.380  0.00  0.00     0.085 C 
ATOM     78  H38 non d ame     -13.927  13.413  70.575  0.00  0.00     0.036 H 
ATOM     79  H39 non d ame     -12.794  12.338  71.637  0.00  0.00     0.036 H 
ATOM     80  N5  non d ame     -12.843  15.301  72.419  0.00  0.00    -0.049 N 
ATOM     81  H40 non d ame     -14.599  14.109  72.227  0.00  0.00     0.075 H 
ATOM     82  H41 non d ame     -13.179  13.355  73.218  0.00  0.00     0.075 H 
ATOM     83  C28 non d ame     -11.629  15.210  71.358  0.00  0.00     0.193 C 
ATOM     84  H42 non d ame     -13.515  15.976  72.083  0.00  0.00     0.280 HD
ATOM     85  H43 non d ame     -12.453  15.396  73.346  0.00  0.00     0.280 HD
ATOM     86  H44 non d ame     -10.602  15.088  71.702  0.00  0.00     0.129 H 
ATOM     87  H37 non d ame     -10.801  13.692  70.891  0.00  0.00     0.046 H 
BRANCH  83  88
ATOM     88  O6  non d ame     -11.618  16.369  70.523  0.00  0.00    -0.369 OA
ATOM     89  H45 non d ame     -11.624  17.158  71.069  0.00  0.00     0.212 HD
ENDBRANCH  83  88
ENDBRANCH  72  75
ENDBRANCH  47  72
ENDBRANCH  45  47
ENDBRANCH   1  43
BRANCH   1  90
ATOM     90  C16 non d ame     -11.298   9.789  70.863  0.00  0.00    -0.035 C 
ATOM     91  H21 non d ame     -10.443   9.521  71.484  0.00  0.00     0.037 H 
ATOM     92  H22 non d ame     -11.698  10.803  70.896  0.00  0.00     0.037 H 
BRANCH  90  93
ATOM     93  C17 non d ame     -12.464   8.840  71.286  0.00  0.00    -0.059 C 
ATOM     94  H23 non d ame     -12.941   8.476  70.376  0.00  0.00     0.038 H 
BRANCH  93  95
ATOM     95  C18 non d ame     -11.954   7.599  72.086  0.00  0.00    -0.073 C 
ATOM     96  H24 non d ame     -11.106   7.154  71.564  0.00  0.00     0.028 H 
ATOM     97  H25 non d ame     -11.643   7.912  73.083  0.00  0.00     0.028 H 
ATOM     98  H26 non d ame     -12.756   6.865  72.170  0.00  0.00     0.028 H 
ENDBRANCH  93  95
BRANCH  93  99
ATOM     99  C19 non d ame     -13.527   9.602  72.083  0.00  0.00    -0.073 C 
ATOM    100  H27 non d ame     -13.040  10.279  72.785  0.00  0.00     0.028 H 
ATOM    101  H28 non d ame     -14.152  10.176  71.398  0.00  0.00     0.028 H 
ATOM    102  H29 non d ame     -14.147   8.893  72.632  0.00  0.00     0.028 H 
ENDBRANCH  93  99
ENDBRANCH  90  93
ENDBRANCH   1  90
TORSDOF 26
ENDMDL
MODEL 11
REMARK VINA RESULT:      -6.1      2.588      9.188
REMARK  26 active torsions:
REMARK  status: ('A' for Active; 'I' for Inactive)
REMARK    1  A    between atoms: C2_2  and  C3_3 
REMARK    2  A    between atoms: C4_6  and  C5_7 
REMARK       I    between atoms: C5_7  and  N2_9 
REMARK    3  A    between atoms: N2_9  and  C6_10 
REMARK    4  A    between atoms: C6_10  and  C7_11 
REMARK    5  A    between atoms: C6_10  and  C8_13 
REMARK       I    between atoms: C7_11  and  N3_14 
REMARK    6  A    between atoms: N3_14  and  C9_15 
REMARK    7  A    between atoms: C9_15  and  C10_16 
REMARK    8  A    between atoms: C9_15  and  C11_18 
REMARK       I    between atoms: C10_16  and  N4_21 
REMARK    9  A    between atoms: C11_18  and  C12_19 
REMARK   10  A    between atoms: C11_18  and  C13_20 
REMARK   11  A    between atoms: N4_21  and  C14_22 
REMARK   12  A    between atoms: C14_22  and  C15_23 
REMARK   13  A    between atoms: C14_22  and  C16_25 
REMARK       I    between atoms: C15_23  and  N6_40 
REMARK   14  A    between atoms: C16_25  and  C17_26 
REMARK   15  A    between atoms: C17_26  and  C18_27 
REMARK   16  A    between atoms: C17_26  and  C19_28 
REMARK   17  A    between atoms: C20_29  and  C21_30 
REMARK   18  A    between atoms: C20_29  and  C24_33 
REMARK   19  A    between atoms: C20_29  and  N6_40 
REMARK   20  A    between atoms: C21_30  and  C22_31 
REMARK   21  A    between atoms: C22_31  and  C23_32 
REMARK   22  A    between atoms: C23_32  and  O8_43 
REMARK   23  A    between atoms: C24_33  and  C25_34 
REMARK   24  A    between atoms: C28_38  and  O6_39 
REMARK   25  A    between atoms: C29_42  and  O8_43 
REMARK   26  A    between atoms: C29_42  and  C35_49 
ROOT
ATOM      1  C14 non d ame      -8.889   6.547  66.180  0.00  0.00     0.089 C 
ATOM      2  H20 non d ame      -9.749   6.234  66.772  0.00  0.00     0.087 H 
ENDROOT
BRANCH   1   3
ATOM      3  N4  non d ame      -9.244   7.790  65.513  0.00  0.00    -0.346 N 
ATOM      4  C10 non d ame     -10.069   8.830  66.230  0.00  0.00     0.241 C 
ATOM      5  O4  non d ame     -10.437   8.642  67.342  0.00  0.00    -0.271 OA
ATOM      6  H19 non d ame      -8.923   7.930  64.566  0.00  0.00     0.163 HD
BRANCH   4   7
ATOM      7  C9  non d ame     -10.423  10.114  65.527  0.00  0.00     0.092 C 
ATOM      8  H11 non d ame     -11.505  10.243  65.539  0.00  0.00     0.088 H 
BRANCH   7   9
ATOM      9  N3  non d ame      -9.843  11.246  66.255  0.00  0.00    -0.346 N 
ATOM     10  C7  non d ame     -10.702  12.164  66.962  0.00  0.00     0.240 C 
ATOM     11  O3  non d ame     -11.862  12.007  66.954  0.00  0.00    -0.271 OA
ATOM     12  H10 non d ame      -8.844  11.396  66.270  0.00  0.00     0.163 HD
BRANCH  10  13
ATOM     13  C6  non d ame     -10.080  13.369  67.733  0.00  0.00     0.086 C 
ATOM     14  H6  non d ame     -10.326  14.331  67.282  0.00  0.00     0.086 H 
BRANCH  13  15
ATOM     15  N2  non d ame     -10.616  13.393  69.083  0.00  0.00    -0.343 N 
ATOM     16  C5  non d ame     -11.541  14.460  69.473  0.00  0.00     0.273 C 
ATOM     17  O2  non d ame     -11.845  15.295  68.694  0.00  0.00    -0.266 OA
ATOM     18  H5  non d ame     -10.350  12.677  69.744  0.00  0.00     0.163 HD
BRANCH  16  19
ATOM     19  C4  non d ame     -12.118  14.497  70.897  0.00  0.00     0.154 A 
ATOM     20  C1  non d ame     -11.665  15.298  71.993  0.00  0.00    -0.017 A 
ATOM     21  C2  non d ame     -12.521  14.963  73.066  0.00  0.00     0.077 A 
ATOM     22  H1  non d ame     -10.842  16.012  72.007  0.00  0.00     0.091 H 
ATOM     23  O1  non d ame     -13.363  14.075  72.627  0.00  0.00    -0.218 OA
ATOM     24  N1  non d ame     -13.148  13.786  71.364  0.00  0.00    -0.123 NA
BRANCH  21  25
ATOM     25  C3  non d ame     -12.467  15.538  74.475  0.00  0.00    -0.029 C 
ATOM     26  H2  non d ame     -13.144  14.980  75.122  0.00  0.00     0.036 H 
ATOM     27  H3  non d ame     -11.450  15.460  74.860  0.00  0.00     0.036 H 
ATOM     28  H4  non d ame     -12.768  16.586  74.453  0.00  0.00     0.036 H 
ENDBRANCH  21  25
ENDBRANCH  16  19
ENDBRANCH  13  15
BRANCH  13  29
ATOM     29  C8  non d ame      -8.580  13.221  67.776  0.00  0.00    -0.049 C 
ATOM     30  H7  non d ame      -8.228  12.809  66.830  0.00  0.00     0.030 H 
ATOM     31  H8  non d ame      -8.123  14.197  67.940  0.00  0.00     0.030 H 
ATOM     32  H9  non d ame      -8.305  12.550  68.589  0.00  0.00     0.030 H 
ENDBRANCH  13  29
ENDBRANCH  10  13
ENDBRANCH   7   9
BRANCH   7  33
ATOM     33  C11 non d ame      -9.853  10.086  64.078  0.00  0.00    -0.033 C 
ATOM     34  H12 non d ame     -10.137   9.133  63.632  0.00  0.00     0.042 H 
BRANCH  33  35
ATOM     35  C12 non d ame     -10.473  11.218  63.202  0.00  0.00    -0.071 C 
ATOM     36  H13 non d ame      -9.692  11.921  62.910  0.00  0.00     0.028 H 
ATOM     37  H14 non d ame     -10.920  10.782  62.308  0.00  0.00     0.028 H 
ATOM     38  H15 non d ame     -11.239  11.742  63.773  0.00  0.00     0.028 H 
ENDBRANCH  33  35
BRANCH  33  39
ATOM     39  C13 non d ame      -8.293  10.169  64.089  0.00  0.00    -0.071 C 
ATOM     40  H16 non d ame      -7.955  10.768  63.245  0.00  0.00     0.028 H 
ATOM     41  H17 non d ame      -7.960  10.630  65.019  0.00  0.00     0.028 H 
ATOM     42  H18 non d ame      -7.876   9.164  64.012  0.00  0.00     0.028 H 
ENDBRANCH  33  39
ENDBRANCH   7  33
ENDBRANCH   4   7
ENDBRANCH   1   3
BRANCH   1  43
ATOM     43  C15 non d ame      -7.630   6.798  67.059  0.00  0.00     0.240 C 
ATOM     44  O5  non d ame      -7.376   6.057  67.953  0.00  0.00    -0.271 OA
ATOM     45  N6  non d ame      -6.737   7.959  66.781  0.00  0.00    -0.355 N 
ATOM     46  H46 non d ame      -6.940   8.592  66.022  0.00  0.00     0.162 HD
BRANCH  45  47
ATOM     47  C20 non d ame      -5.544   8.183  67.626  0.00  0.00     0.013 C 
ATOM     48  H30 non d ame      -5.210   7.215  67.999  0.00  0.00     0.072 H 
BRANCH  47  49
ATOM     49  C21 non d ame      -5.913   9.084  68.783  0.00  0.00    -0.038 C 
ATOM     50  H31 non d ame      -5.144   9.856  68.812  0.00  0.00     0.036 H 
ATOM     51  H32 non d ame      -6.955   9.358  68.621  0.00  0.00     0.036 H 
BRANCH  49  52
ATOM     52  C22 non d ame      -5.858   8.360  70.146  0.00  0.00     0.018 C 
ATOM     53  H33 non d ame      -6.405   7.427  70.008  0.00  0.00     0.048 H 
ATOM     54  H34 non d ame      -4.804   8.338  70.427  0.00  0.00     0.048 H 
BRANCH  52  55
ATOM     55  C23 non d ame      -6.589   9.120  71.288  0.00  0.00     0.259 C 
ATOM     56  O7  non d ame      -6.012   9.411  72.285  0.00  0.00    -0.265 OA
BRANCH  55  57
ATOM     57  O8  non d ame      -7.963   9.455  71.134  0.00  0.00    -0.317 OA
BRANCH  57  58
ATOM     58  C29 non d ame      -8.854   8.350  71.312  0.00  0.00     0.052 C 
ATOM     59  H47 non d ame      -8.726   7.723  70.430  0.00  0.00     0.082 H 
ATOM     60  H48 non d ame      -8.635   7.951  72.302  0.00  0.00     0.082 H 
BRANCH  58  61
ATOM     61  C35 non d ame     -10.305   8.902  71.316  0.00  0.00    -0.034 A 
ATOM     62  C30 non d ame     -11.243   8.388  72.206  0.00  0.00    -0.075 A 
ATOM     63  C31 non d ame     -12.546   8.883  72.209  0.00  0.00    -0.082 A 
ATOM     64  H49 non d ame     -10.957   7.599  72.901  0.00  0.00     0.084 H 
ATOM     65  C32 non d ame     -12.911   9.895  71.316  0.00  0.00    -0.083 A 
ATOM     66  H50 non d ame     -13.278   8.481  72.910  0.00  0.00     0.083 H 
ATOM     67  C33 non d ame     -11.972  10.401  70.428  0.00  0.00    -0.082 A 
ATOM     68  H51 non d ame     -13.928  10.288  71.313  0.00  0.00     0.083 H 
ATOM     69  C34 non d ame     -10.668   9.911  70.422  0.00  0.00    -0.075 A 
ATOM     70  H52 non d ame     -12.261  11.189  69.731  0.00  0.00     0.083 H 
ATOM     71  H53 non d ame      -9.936  10.315  69.722  0.00  0.00     0.084 H 
ENDBRANCH  58  61
ENDBRANCH  57  58
ENDBRANCH  55  57
ENDBRANCH  52  55
ENDBRANCH  49  52
ENDBRANCH  47  49
BRANCH  47  72
ATOM     72  C24 non d ame      -4.442   8.842  66.798  0.00  0.00    -0.039 C 
ATOM     73  H35 non d ame      -4.147   9.728  67.361  0.00  0.00     0.036 H 
ATOM     74  H36 non d ame      -3.714   8.054  66.604  0.00  0.00     0.036 H 
BRANCH  72  75
ATOM     75  C25 non d ame      -4.987   9.343  65.378  0.00  0.00    -0.001 C 
ATOM     76  C26 non d ame      -4.149   8.611  64.167  0.00  0.00    -0.035 C 
ATOM     77  C27 non d ame      -3.699   9.560  63.311  0.00  0.00     0.085 C 
ATOM     78  H38 non d ame      -3.235   8.168  64.560  0.00  0.00     0.036 H 
ATOM     79  H39 non d ame      -4.824   8.014  63.553  0.00  0.00     0.036 H 
ATOM     80  N5  non d ame      -3.872  10.892  64.000  0.00  0.00    -0.049 N 
ATOM     81  H40 non d ame      -2.634   9.359  63.187  0.00  0.00     0.075 H 
ATOM     82  H41 non d ame      -4.366   9.516  62.451  0.00  0.00     0.075 H 
ATOM     83  C28 non d ame      -4.855  10.621  65.251  0.00  0.00     0.193 C 
ATOM     84  H42 non d ame      -2.962  11.150  64.356  0.00  0.00     0.280 HD
ATOM     85  H43 non d ame      -4.346  11.495  63.343  0.00  0.00     0.280 HD
ATOM     86  H44 non d ame      -5.902  10.925  65.209  0.00  0.00     0.129 H 
ATOM     87  H37 non d ame      -6.075   9.311  65.318  0.00  0.00     0.046 H 
BRANCH  83  88
ATOM     88  O6  non d ame      -4.329  11.229  66.432  0.00  0.00    -0.369 OA
ATOM     89  H45 non d ame      -3.658  11.870  66.190  0.00  0.00     0.212 HD
ENDBRANCH  83  88
ENDBRANCH  72  75
ENDBRANCH  47  72
ENDBRANCH  45  47
ENDBRANCH   1  43
BRANCH   1  90
ATOM     90  C16 non d ame      -8.576   5.493  65.130  0.00  0.00    -0.035 C 
ATOM     91  H21 non d ame      -7.868   4.813  65.604  0.00  0.00     0.037 H 
ATOM     92  H22 non d ame      -9.545   5.123  64.794  0.00  0.00     0.037 H 
BRANCH  90  93
ATOM     93  C17 non d ame      -7.859   6.063  63.864  0.00  0.00    -0.059 C 
ATOM     94  H23 non d ame      -8.024   7.140  63.848  0.00  0.00     0.038 H 
BRANCH  93  95
ATOM     95  C18 non d ame      -6.317   5.817  63.900  0.00  0.00    -0.073 C 
ATOM     96  H24 non d ame      -5.857   6.266  63.019  0.00  0.00     0.028 H 
ATOM     97  H25 non d ame      -5.898   6.269  64.799  0.00  0.00     0.028 H 
ATOM     98  H26 non d ame      -6.120   4.745  63.906  0.00  0.00     0.028 H 
ENDBRANCH  93  95
BRANCH  93  99
ATOM     99  C19 non d ame      -8.473   5.489  62.584  0.00  0.00    -0.073 C 
ATOM    100  H27 non d ame      -8.373   4.403  62.588  0.00  0.00     0.028 H 
ATOM    101  H28 non d ame      -9.528   5.758  62.535  0.00  0.00     0.028 H 
ATOM    102  H29 non d ame      -7.954   5.898  61.717  0.00  0.00     0.028 H 
ENDBRANCH  93  99
ENDBRANCH  90  93
ENDBRANCH   1  90
TORSDOF 26
ENDMDL
MODEL 12
REMARK VINA RESULT:      -6.0      2.789      9.248
REMARK  26 active torsions:
REMARK  status: ('A' for Active; 'I' for Inactive)
REMARK    1  A    between atoms: C2_2  and  C3_3 
REMARK    2  A    between atoms: C4_6  and  C5_7 
REMARK       I    between atoms: C5_7  and  N2_9 
REMARK    3  A    between atoms: N2_9  and  C6_10 
REMARK    4  A    between atoms: C6_10  and  C7_11 
REMARK    5  A    between atoms: C6_10  and  C8_13 
REMARK       I    between atoms: C7_11  and  N3_14 
REMARK    6  A    between atoms: N3_14  and  C9_15 
REMARK    7  A    between atoms: C9_15  and  C10_16 
REMARK    8  A    between atoms: C9_15  and  C11_18 
REMARK       I    between atoms: C10_16  and  N4_21 
REMARK    9  A    between atoms: C11_18  and  C12_19 
REMARK   10  A    between atoms: C11_18  and  C13_20 
REMARK   11  A    between atoms: N4_21  and  C14_22 
REMARK   12  A    between atoms: C14_22  and  C15_23 
REMARK   13  A    between atoms: C14_22  and  C16_25 
REMARK       I    between atoms: C15_23  and  N6_40 
REMARK   14  A    between atoms: C16_25  and  C17_26 
REMARK   15  A    between atoms: C17_26  and  C18_27 
REMARK   16  A    between atoms: C17_26  and  C19_28 
REMARK   17  A    between atoms: C20_29  and  C21_30 
REMARK   18  A    between atoms: C20_29  and  C24_33 
REMARK   19  A    between atoms: C20_29  and  N6_40 
REMARK   20  A    between atoms: C21_30  and  C22_31 
REMARK   21  A    between atoms: C22_31  and  C23_32 
REMARK   22  A    between atoms: C23_32  and  O8_43 
REMARK   23  A    between atoms: C24_33  and  C25_34 
REMARK   24  A    between atoms: C28_38  and  O6_39 
REMARK   25  A    between atoms: C29_42  and  O8_43 
REMARK   26  A    between atoms: C29_42  and  C35_49 
ROOT
ATOM      1  C14 non d ame      -8.654   9.733  69.756  0.00  0.00     0.089 C 
ATOM      2  H20 non d ame      -8.237   9.338  70.682  0.00  0.00     0.087 H 
ENDROOT
BRANCH   1   3
ATOM      3  N4  non d ame      -7.958  10.976  69.456  0.00  0.00    -0.346 N 
ATOM      4  C10 non d ame      -6.506  11.144  69.826  0.00  0.00     0.241 C 
ATOM      5  O4  non d ame      -5.919  10.266  70.367  0.00  0.00    -0.271 OA
ATOM      6  H19 non d ame      -8.477  11.712  68.998  0.00  0.00     0.163 HD
BRANCH   4   7
ATOM      7  C9  non d ame      -5.800  12.435  69.504  0.00  0.00     0.092 C 
ATOM      8  H11 non d ame      -5.433  12.397  68.478  0.00  0.00     0.088 H 
BRANCH   7   9
ATOM      9  N3  non d ame      -6.754  13.546  69.582  0.00  0.00    -0.346 N 
ATOM     10  C7  non d ame      -6.889  14.458  68.473  0.00  0.00     0.240 C 
ATOM     11  O3  non d ame      -6.239  14.313  67.511  0.00  0.00    -0.271 OA
ATOM     12  H10 non d ame      -7.320  13.685  70.406  0.00  0.00     0.163 HD
BRANCH  10  13
ATOM     13  C6  non d ame      -7.903  15.641  68.563  0.00  0.00     0.086 C 
ATOM     14  H6  non d ame      -8.326  15.908  67.595  0.00  0.00     0.086 H 
BRANCH  13  15
ATOM     15  N2  non d ame      -9.017  15.243  69.408  0.00  0.00    -0.343 N 
ATOM     16  C5  non d ame     -10.364  15.732  69.103  0.00  0.00     0.273 C 
ATOM     17  O2  non d ame     -10.540  16.447  68.178  0.00  0.00    -0.266 OA
ATOM     18  H5  non d ame      -8.857  14.634  70.198  0.00  0.00     0.163 HD
BRANCH  16  19
ATOM     19  C4  non d ame     -11.551  15.318  69.986  0.00  0.00     0.154 A 
ATOM     20  C1  non d ame     -11.605  14.221  70.904  0.00  0.00    -0.017 A 
ATOM     21  C2  non d ame     -12.904  14.275  71.459  0.00  0.00     0.077 A 
ATOM     22  H1  non d ame     -10.823  13.497  71.132  0.00  0.00     0.091 H 
ATOM     23  O1  non d ame     -13.514  15.289  70.918  0.00  0.00    -0.218 OA
ATOM     24  N1  non d ame     -12.745  15.913  70.055  0.00  0.00    -0.123 NA
BRANCH  21  25
ATOM     25  C3  non d ame     -13.480  13.324  72.498  0.00  0.00    -0.029 C 
ATOM     26  H2  non d ame     -12.830  13.303  73.373  0.00  0.00     0.036 H 
ATOM     27  H3  non d ame     -14.473  13.664  72.792  0.00  0.00     0.036 H 
ATOM     28  H4  non d ame     -13.551  12.321  72.074  0.00  0.00     0.036 H 
ENDBRANCH  21  25
ENDBRANCH  16  19
ENDBRANCH  13  15
BRANCH  13  29
ATOM     29  C8  non d ame      -7.218  16.850  69.147  0.00  0.00    -0.049 C 
ATOM     30  H7  non d ame      -7.877  17.715  69.066  0.00  0.00     0.030 H 
ATOM     31  H8  non d ame      -6.988  16.666  70.196  0.00  0.00     0.030 H 
ATOM     32  H9  non d ame      -6.296  17.044  68.600  0.00  0.00     0.030 H 
ENDBRANCH  13  29
ENDBRANCH  10  13
ENDBRANCH   7   9
BRANCH   7  33
ATOM     33  C11 non d ame      -4.652  12.668  70.529  0.00  0.00    -0.033 C 
ATOM     34  H12 non d ame      -4.282  11.690  70.836  0.00  0.00     0.042 H 
BRANCH  33  35
ATOM     35  C12 non d ame      -3.459  13.437  69.880  0.00  0.00    -0.071 C 
ATOM     36  H13 non d ame      -2.624  12.753  69.729  0.00  0.00     0.028 H 
ATOM     37  H14 non d ame      -3.771  13.847  68.920  0.00  0.00     0.028 H 
ATOM     38  H15 non d ame      -3.149  14.248  70.539  0.00  0.00     0.028 H 
ENDBRANCH  33  35
BRANCH  33  39
ATOM     39  C13 non d ame      -5.178  13.407  71.801  0.00  0.00    -0.071 C 
ATOM     40  H16 non d ame      -5.127  12.736  72.658  0.00  0.00     0.028 H 
ATOM     41  H17 non d ame      -4.563  14.287  71.990  0.00  0.00     0.028 H 
ATOM     42  H18 non d ame      -6.211  13.714  71.640  0.00  0.00     0.028 H 
ENDBRANCH  33  39
ENDBRANCH   7  33
ENDBRANCH   4   7
ENDBRANCH   1   3
BRANCH   1  43
ATOM     43  C15 non d ame      -8.459   8.756  68.561  0.00  0.00     0.240 C 
ATOM     44  O5  non d ame      -8.345   7.591  68.763  0.00  0.00    -0.271 OA
ATOM     45  N6  non d ame      -8.422   9.274  67.163  0.00  0.00    -0.355 N 
ATOM     46  H46 non d ame      -8.522  10.261  66.979  0.00  0.00     0.162 HD
BRANCH  45  47
ATOM     47  C20 non d ame      -8.237   8.332  66.038  0.00  0.00     0.013 C 
ATOM     48  H30 non d ame      -8.507   7.335  66.387  0.00  0.00     0.072 H 
BRANCH  47  49
ATOM     49  C21 non d ame      -6.789   8.351  65.602  0.00  0.00    -0.038 C 
ATOM     50  H31 non d ame      -6.799   8.673  64.561  0.00  0.00     0.036 H 
ATOM     51  H32 non d ame      -6.265   8.945  66.352  0.00  0.00     0.036 H 
BRANCH  49  52
ATOM     52  C22 non d ame      -6.139   6.951  65.621  0.00  0.00     0.018 C 
ATOM     53  H33 non d ame      -5.268   7.038  66.272  0.00  0.00     0.048 H 
ATOM     54  H34 non d ame      -6.941   6.256  65.873  0.00  0.00     0.048 H 
BRANCH  52  55
ATOM     55  C23 non d ame      -5.596   6.495  64.238  0.00  0.00     0.259 C 
ATOM     56  O7  non d ame      -4.619   6.993  63.779  0.00  0.00    -0.265 OA
BRANCH  55  57
ATOM     57  O8  non d ame      -6.287   5.481  63.518  0.00  0.00    -0.317 OA
BRANCH  57  58
ATOM     58  C29 non d ame      -7.452   5.947  62.831  0.00  0.00     0.052 C 
ATOM     59  H47 non d ame      -7.621   6.962  63.192  0.00  0.00     0.082 H 
ATOM     60  H48 non d ame      -7.262   5.770  61.773  0.00  0.00     0.082 H 
BRANCH  58  61
ATOM     61  C35 non d ame      -8.651   5.064  63.269  0.00  0.00    -0.034 A 
ATOM     62  C30 non d ame      -9.353   4.324  62.323  0.00  0.00    -0.075 A 
ATOM     63  C31 non d ame     -10.430   3.531  62.716  0.00  0.00    -0.082 A 
ATOM     64  H49 non d ame      -9.059   4.364  61.274  0.00  0.00     0.084 H 
ATOM     65  C32 non d ame     -10.806   3.481  64.061  0.00  0.00    -0.083 A 
ATOM     66  H50 non d ame     -10.976   2.950  61.973  0.00  0.00     0.083 H 
ATOM     67  C33 non d ame     -10.105   4.225  65.001  0.00  0.00    -0.082 A 
ATOM     68  H51 non d ame     -11.646   2.863  64.377  0.00  0.00     0.083 H 
ATOM     69  C34 non d ame      -9.026   5.017  64.613  0.00  0.00    -0.075 A 
ATOM     70  H52 non d ame     -10.402   4.186  66.049  0.00  0.00     0.083 H 
ATOM     71  H53 non d ame      -8.480   5.597  65.357  0.00  0.00     0.084 H 
ENDBRANCH  58  61
ENDBRANCH  57  58
ENDBRANCH  55  57
ENDBRANCH  52  55
ENDBRANCH  49  52
ENDBRANCH  47  49
BRANCH  47  72
ATOM     72  C24 non d ame      -9.127   8.744  64.867  0.00  0.00    -0.039 C 
ATOM     73  H35 non d ame      -8.710   8.241  63.995  0.00  0.00     0.036 H 
ATOM     74  H36 non d ame     -10.146   8.525  65.187  0.00  0.00     0.036 H 
BRANCH  72  75
ATOM     75  C25 non d ame      -9.047  10.320  64.589  0.00  0.00    -0.001 C 
ATOM     76  C26 non d ame     -10.435  11.048  65.087  0.00  0.00    -0.035 C 
ATOM     77  C27 non d ame     -10.915  11.810  64.075  0.00  0.00     0.085 C 
ATOM     78  H38 non d ame     -11.215  10.302  65.236  0.00  0.00     0.036 H 
ATOM     79  H39 non d ame     -10.216  11.773  65.871  0.00  0.00     0.036 H 
ATOM     80  N5  non d ame     -10.163  11.414  62.828  0.00  0.00    -0.049 N 
ATOM     81  H40 non d ame     -11.962  11.524  63.966  0.00  0.00     0.075 H 
ATOM     82  H41 non d ame     -10.655  12.836  64.336  0.00  0.00     0.075 H 
ATOM     83  C28 non d ame      -8.886  10.564  63.331  0.00  0.00     0.193 C 
ATOM     84  H42 non d ame     -10.774  10.800  62.309  0.00  0.00     0.280 HD
ATOM     85  H43 non d ame      -9.833  12.271  62.408  0.00  0.00     0.280 HD
ATOM     86  H44 non d ame      -7.892  11.012  63.342  0.00  0.00     0.129 H 
ATOM     87  H37 non d ame      -8.108  10.753  64.934  0.00  0.00     0.046 H 
BRANCH  83  88
ATOM     88  O6  non d ame      -8.756   9.367  62.561  0.00  0.00    -0.369 OA
ATOM     89  H45 non d ame      -9.350   9.405  61.809  0.00  0.00     0.212 HD
ENDBRANCH  83  88
ENDBRANCH  72  75
ENDBRANCH  47  72
ENDBRANCH  45  47
ENDBRANCH   1  43
BRANCH   1  90
ATOM     90  C16 non d ame     -10.134  10.025  69.940  0.00  0.00    -0.035 C 
ATOM     91  H21 non d ame     -10.177  10.988  70.450  0.00  0.00     0.037 H 
ATOM     92  H22 non d ame     -10.577   9.913  68.950  0.00  0.00     0.037 H 
BRANCH  90  93
ATOM     93  C17 non d ame     -10.864   9.002  70.869  0.00  0.00    -0.059 C 
ATOM     94  H23 non d ame     -11.163   8.153  70.254  0.00  0.00     0.038 H 
BRANCH  93  95
ATOM     95  C18 non d ame      -9.931   8.466  72.002  0.00  0.00    -0.073 C 
ATOM     96  H24 non d ame     -10.368   7.566  72.435  0.00  0.00     0.028 H 
ATOM     97  H25 non d ame      -8.952   8.230  71.585  0.00  0.00     0.028 H 
ATOM     98  H26 non d ame      -9.824   9.227  72.774  0.00  0.00     0.028 H 
ENDBRANCH  93  95
BRANCH  93  99
ATOM     99  C19 non d ame     -12.140   9.611  71.456  0.00  0.00    -0.073 C 
ATOM    100  H27 non d ame     -12.765   9.993  70.649  0.00  0.00     0.028 H 
ATOM    101  H28 non d ame     -12.686   8.845  72.008  0.00  0.00     0.028 H 
ATOM    102  H29 non d ame     -11.877  10.426  72.129  0.00  0.00     0.028 H 
ENDBRANCH  93  99
ENDBRANCH  90  93
ENDBRANCH   1  90
TORSDOF 26
ENDMDL
MODEL 13
REMARK VINA RESULT:      -5.9      3.892      6.499
REMARK  26 active torsions:
REMARK  status: ('A' for Active; 'I' for Inactive)
REMARK    1  A    between atoms: C2_2  and  C3_3 
REMARK    2  A    between atoms: C4_6  and  C5_7 
REMARK       I    between atoms: C5_7  and  N2_9 
REMARK    3  A    between atoms: N2_9  and  C6_10 
REMARK    4  A    between atoms: C6_10  and  C7_11 
REMARK    5  A    between atoms: C6_10  and  C8_13 
REMARK       I    between atoms: C7_11  and  N3_14 
REMARK    6  A    between atoms: N3_14  and  C9_15 
REMARK    7  A    between atoms: C9_15  and  C10_16 
REMARK    8  A    between atoms: C9_15  and  C11_18 
REMARK       I    between atoms: C10_16  and  N4_21 
REMARK    9  A    between atoms: C11_18  and  C12_19 
REMARK   10  A    between atoms: C11_18  and  C13_20 
REMARK   11  A    between atoms: N4_21  and  C14_22 
REMARK   12  A    between atoms: C14_22  and  C15_23 
REMARK   13  A    between atoms: C14_22  and  C16_25 
REMARK       I    between atoms: C15_23  and  N6_40 
REMARK   14  A    between atoms: C16_25  and  C17_26 
REMARK   15  A    between atoms: C17_26  and  C18_27 
REMARK   16  A    between atoms: C17_26  and  C19_28 
REMARK   17  A    between atoms: C20_29  and  C21_30 
REMARK   18  A    between atoms: C20_29  and  C24_33 
REMARK   19  A    between atoms: C20_29  and  N6_40 
REMARK   20  A    between atoms: C21_30  and  C22_31 
REMARK   21  A    between atoms: C22_31  and  C23_32 
REMARK   22  A    between atoms: C23_32  and  O8_43 
REMARK   23  A    between atoms: C24_33  and  C25_34 
REMARK   24  A    between atoms: C28_38  and  O6_39 
REMARK   25  A    between atoms: C29_42  and  O8_43 
REMARK   26  A    between atoms: C29_42  and  C35_49 
ROOT
ATOM      1  C14 non d ame      -5.820  14.874  69.458  0.00  0.00     0.089 C 
ATOM      2  H20 non d ame      -5.751  14.931  70.545  0.00  0.00     0.087 H 
ENDROOT
BRANCH   1   3
ATOM      3  N4  non d ame      -5.356  13.554  69.057  0.00  0.00    -0.346 N 
ATOM      4  C10 non d ame      -5.482  12.384  70.000  0.00  0.00     0.241 C 
ATOM      5  O4  non d ame      -5.958  12.530  71.078  0.00  0.00    -0.271 OA
ATOM      6  H19 non d ame      -4.951  13.452  68.137  0.00  0.00     0.163 HD
BRANCH   4   7
ATOM      7  C9  non d ame      -5.001  11.024  69.567  0.00  0.00     0.092 C 
ATOM      8  H11 non d ame      -5.755  10.279  69.823  0.00  0.00     0.088 H 
BRANCH   7   9
ATOM      9  N3  non d ame      -4.847  11.001  68.109  0.00  0.00    -0.346 N 
ATOM     10  C7  non d ame      -5.583  10.043  67.322  0.00  0.00     0.240 C 
ATOM     11  O3  non d ame      -6.303   9.283  67.845  0.00  0.00    -0.271 OA
ATOM     12  H10 non d ame      -4.228  11.650  67.645  0.00  0.00     0.163 HD
BRANCH  10  13
ATOM     13  C6  non d ame      -5.412  10.022  65.771  0.00  0.00     0.086 C 
ATOM     14  H6  non d ame      -5.358   9.011  65.367  0.00  0.00     0.086 H 
BRANCH  13  15
ATOM     15  N2  non d ame      -6.570  10.653  65.160  0.00  0.00    -0.343 N 
ATOM     16  C5  non d ame      -7.619   9.819  64.571  0.00  0.00     0.273 C 
ATOM     17  O2  non d ame      -7.522   8.641  64.591  0.00  0.00    -0.266 OA
ATOM     18  H5  non d ame      -6.644  11.660  65.145  0.00  0.00     0.163 HD
BRANCH  16  19
ATOM     19  C4  non d ame      -8.850  10.473  63.923  0.00  0.00     0.154 A 
ATOM     20  C1  non d ame     -10.108  10.754  64.545  0.00  0.00    -0.017 A 
ATOM     21  C2  non d ame     -10.889  11.352  63.531  0.00  0.00     0.077 A 
ATOM     22  H1  non d ame     -10.408  10.554  65.574  0.00  0.00     0.091 H 
ATOM     23  O1  non d ame     -10.156  11.405  62.458  0.00  0.00    -0.218 OA
ATOM     24  N1  non d ame      -8.962  10.898  62.662  0.00  0.00    -0.123 NA
BRANCH  21  25
ATOM     25  C3  non d ame     -12.323  11.844  63.670  0.00  0.00    -0.029 C 
ATOM     26  H2  non d ame     -12.547  12.545  62.866  0.00  0.00     0.036 H 
ATOM     27  H3  non d ame     -13.006  10.996  63.613  0.00  0.00     0.036 H 
ATOM     28  H4  non d ame     -12.445  12.344  64.632  0.00  0.00     0.036 H 
ENDBRANCH  21  25
ENDBRANCH  16  19
ENDBRANCH  13  15
BRANCH  13  29
ATOM     29  C8  non d ame      -4.157  10.766  65.391  0.00  0.00    -0.049 C 
ATOM     30  H7  non d ame      -3.474  10.088  64.879  0.00  0.00     0.030 H 
ATOM     31  H8  non d ame      -4.412  11.593  64.729  0.00  0.00     0.030 H 
ATOM     32  H9  non d ame      -3.678  11.153  66.290  0.00  0.00     0.030 H 
ENDBRANCH  13  29
ENDBRANCH  10  13
ENDBRANCH   7   9
BRANCH   7  33
ATOM     33  C11 non d ame      -3.629  10.721  70.236  0.00  0.00    -0.033 C 
ATOM     34  H12 non d ame      -3.304  11.629  70.745  0.00  0.00     0.042 H 
BRANCH  33  35
ATOM     35  C12 non d ame      -3.757   9.600  71.315  0.00  0.00    -0.071 C 
ATOM     36  H13 non d ame      -2.793   9.109  71.444  0.00  0.00     0.028 H 
ATOM     37  H14 non d ame      -4.069  10.041  72.261  0.00  0.00     0.028 H 
ATOM     38  H15 non d ame      -4.498   8.869  70.992  0.00  0.00     0.028 H 
ENDBRANCH  33  35
BRANCH  33  39
ATOM     39  C13 non d ame      -2.552  10.356  69.165  0.00  0.00    -0.071 C 
ATOM     40  H16 non d ame      -3.032  10.239  68.193  0.00  0.00     0.028 H 
ATOM     41  H17 non d ame      -1.809  11.151  69.110  0.00  0.00     0.028 H 
ATOM     42  H18 non d ame      -2.065   9.422  69.444  0.00  0.00     0.028 H 
ENDBRANCH  33  39
ENDBRANCH   7  33
ENDBRANCH   4   7
ENDBRANCH   1   3
BRANCH   1  43
ATOM     43  C15 non d ame      -7.279  15.061  68.951  0.00  0.00     0.240 C 
ATOM     44  O5  non d ame      -8.164  15.190  69.734  0.00  0.00    -0.271 OA
ATOM     45  N6  non d ame      -7.571  15.088  67.490  0.00  0.00    -0.355 N 
ATOM     46  H46 non d ame      -6.826  14.985  66.816  0.00  0.00     0.162 HD
BRANCH  45  47
ATOM     47  C20 non d ame      -8.963  15.268  67.024  0.00  0.00     0.013 C 
ATOM     48  H30 non d ame      -9.602  15.352  67.903  0.00  0.00     0.072 H 
BRANCH  47  49
ATOM     49  C21 non d ame      -9.373  14.069  66.199  0.00  0.00    -0.038 C 
ATOM     50  H31 non d ame      -9.868  14.474  65.316  0.00  0.00     0.036 H 
ATOM     51  H32 non d ame      -8.472  13.465  66.091  0.00  0.00     0.036 H 
BRANCH  49  52
ATOM     52  C22 non d ame     -10.413  13.178  66.913  0.00  0.00     0.018 C 
ATOM     53  H33 non d ame     -10.739  12.451  66.169  0.00  0.00     0.048 H 
ATOM     54  H34 non d ame      -9.932  12.840  67.831  0.00  0.00     0.048 H 
BRANCH  52  55
ATOM     55  C23 non d ame     -11.692  13.941  67.356  0.00  0.00     0.259 C 
ATOM     56  O7  non d ame     -12.442  14.382  66.547  0.00  0.00    -0.265 OA
BRANCH  55  57
ATOM     57  O8  non d ame     -11.952  14.118  68.743  0.00  0.00    -0.317 OA
BRANCH  57  58
ATOM     58  C29 non d ame     -12.007  15.487  69.155  0.00  0.00     0.052 C 
ATOM     59  H47 non d ame     -10.988  15.863  69.066  0.00  0.00     0.082 H 
ATOM     60  H48 non d ame     -12.808  15.939  68.570  0.00  0.00     0.082 H 
BRANCH  58  61
ATOM     61  C35 non d ame     -12.414  15.521  70.653  0.00  0.00    -0.034 A 
ATOM     62  C30 non d ame     -13.577  14.885  71.073  0.00  0.00    -0.075 A 
ATOM     63  C31 non d ame     -13.943  14.915  72.418  0.00  0.00    -0.082 A 
ATOM     64  H49 non d ame     -14.203  14.362  70.349  0.00  0.00     0.084 H 
ATOM     65  C32 non d ame     -13.141  15.588  73.344  0.00  0.00    -0.083 A 
ATOM     66  H50 non d ame     -14.854  14.414  72.745  0.00  0.00     0.083 H 
ATOM     67  C33 non d ame     -11.982  16.224  72.919  0.00  0.00    -0.082 A 
ATOM     68  H51 non d ame     -13.419  15.616  74.398  0.00  0.00     0.083 H 
ATOM     69  C34 non d ame     -11.612  16.194  71.576  0.00  0.00    -0.075 A 
ATOM     70  H52 non d ame     -11.360  16.750  73.644  0.00  0.00     0.083 H 
ATOM     71  H53 non d ame     -10.700  16.695  71.251  0.00  0.00     0.084 H 
ENDBRANCH  58  61
ENDBRANCH  57  58
ENDBRANCH  55  57
ENDBRANCH  52  55
ENDBRANCH  49  52
ENDBRANCH  47  49
BRANCH  47  72
ATOM     72  C24 non d ame      -9.063  16.532  66.172  0.00  0.00    -0.039 C 
ATOM     73  H35 non d ame      -8.173  16.529  65.543  0.00  0.00     0.036 H 
ATOM     74  H36 non d ame     -10.053  16.496  65.715  0.00  0.00     0.036 H 
BRANCH  72  75
ATOM     75  C25 non d ame      -9.004  17.858  67.069  0.00  0.00    -0.001 C 
ATOM     76  C26 non d ame     -10.482  18.579  67.100  0.00  0.00    -0.035 C 
ATOM     77  C27 non d ame     -10.337  19.885  66.771  0.00  0.00     0.085 C 
ATOM     78  H38 non d ame     -11.108  18.183  66.301  0.00  0.00     0.036 H 
ATOM     79  H39 non d ame     -10.859  18.614  68.122  0.00  0.00     0.036 H 
ATOM     80  N5  non d ame      -8.949  20.045  66.201  0.00  0.00    -0.049 N 
ATOM     81  H40 non d ame     -11.068  20.070  65.983  0.00  0.00     0.075 H 
ATOM     82  H41 non d ame     -10.400  20.431  67.712  0.00  0.00     0.075 H 
ATOM     83  C28 non d ame      -8.147  18.702  66.600  0.00  0.00     0.193 C 
ATOM     84  H42 non d ame      -9.053  20.072  65.197  0.00  0.00     0.280 HD
ATOM     85  H43 non d ame      -8.528  20.825  66.686  0.00  0.00     0.280 HD
ATOM     86  H44 non d ame      -7.416  18.712  67.409  0.00  0.00     0.129 H 
ATOM     87  H37 non d ame      -8.516  17.686  68.028  0.00  0.00     0.046 H 
BRANCH  83  88
ATOM     88  O6  non d ame      -7.451  18.187  65.463  0.00  0.00    -0.369 OA
ATOM     89  H45 non d ame      -7.711  17.276  65.314  0.00  0.00     0.212 HD
ENDBRANCH  83  88
ENDBRANCH  72  75
ENDBRANCH  47  72
ENDBRANCH  45  47
ENDBRANCH   1  43
BRANCH   1  90
ATOM     90  C16 non d ame      -4.922  15.927  68.830  0.00  0.00    -0.035 C 
ATOM     91  H21 non d ame      -3.971  15.848  69.357  0.00  0.00     0.037 H 
ATOM     92  H22 non d ame      -4.966  15.741  67.756  0.00  0.00     0.037 H 
BRANCH  90  93
ATOM     93  C17 non d ame      -5.425  17.390  69.045  0.00  0.00    -0.059 C 
ATOM     94  H23 non d ame      -6.493  17.407  68.827  0.00  0.00     0.038 H 
BRANCH  93  95
ATOM     95  C18 non d ame      -5.232  17.869  70.520  0.00  0.00    -0.073 C 
ATOM     96  H24 non d ame      -6.014  17.441  71.146  0.00  0.00     0.028 H 
ATOM     97  H25 non d ame      -4.257  17.543  70.882  0.00  0.00     0.028 H 
ATOM     98  H26 non d ame      -5.289  18.957  70.559  0.00  0.00     0.028 H 
ENDBRANCH  93  95
BRANCH  93  99
ATOM     99  C19 non d ame      -4.746  18.352  68.067  0.00  0.00    -0.073 C 
ATOM    100  H27 non d ame      -3.892  18.823  68.554  0.00  0.00     0.028 H 
ATOM    101  H28 non d ame      -4.406  17.799  67.191  0.00  0.00     0.028 H 
ATOM    102  H29 non d ame      -5.457  19.118  67.758  0.00  0.00     0.028 H 
ENDBRANCH  93  99
ENDBRANCH  90  93
ENDBRANCH   1  90
TORSDOF 26
ENDMDL
MODEL 14
REMARK VINA RESULT:      -5.9      2.447      5.202
REMARK  26 active torsions:
REMARK  status: ('A' for Active; 'I' for Inactive)
REMARK    1  A    between atoms: C2_2  and  C3_3 
REMARK    2  A    between atoms: C4_6  and  C5_7 
REMARK       I    between atoms: C5_7  and  N2_9 
REMARK    3  A    between atoms: N2_9  and  C6_10 
REMARK    4  A    between atoms: C6_10  and  C7_11 
REMARK    5  A    between atoms: C6_10  and  C8_13 
REMARK       I    between atoms: C7_11  and  N3_14 
REMARK    6  A    between atoms: N3_14  and  C9_15 
REMARK    7  A    between atoms: C9_15  and  C10_16 
REMARK    8  A    between atoms: C9_15  and  C11_18 
REMARK       I    between atoms: C10_16  and  N4_21 
REMARK    9  A    between atoms: C11_18  and  C12_19 
REMARK   10  A    between atoms: C11_18  and  C13_20 
REMARK   11  A    between atoms: N4_21  and  C14_22 
REMARK   12  A    between atoms: C14_22  and  C15_23 
REMARK   13  A    between atoms: C14_22  and  C16_25 
REMARK       I    between atoms: C15_23  and  N6_40 
REMARK   14  A    between atoms: C16_25  and  C17_26 
REMARK   15  A    between atoms: C17_26  and  C18_27 
REMARK   16  A    between atoms: C17_26  and  C19_28 
REMARK   17  A    between atoms: C20_29  and  C21_30 
REMARK   18  A    between atoms: C20_29  and  C24_33 
REMARK   19  A    between atoms: C20_29  and  N6_40 
REMARK   20  A    between atoms: C21_30  and  C22_31 
REMARK   21  A    between atoms: C22_31  and  C23_32 
REMARK   22  A    between atoms: C23_32  and  O8_43 
REMARK   23  A    between atoms: C24_33  and  C25_34 
REMARK   24  A    between atoms: C28_38  and  O6_39 
REMARK   25  A    between atoms: C29_42  and  O8_43 
REMARK   26  A    between atoms: C29_42  and  C35_49 
ROOT
ATOM      1  C14 non d ame     -11.124   9.151  69.552  0.00  0.00     0.089 C 
ATOM      2  H20 non d ame     -12.065   8.696  69.244  0.00  0.00     0.087 H 
ENDROOT
BRANCH   1   3
ATOM      3  N4  non d ame     -10.187   8.073  69.831  0.00  0.00    -0.346 N 
ATOM      4  C10 non d ame     -10.688   6.671  70.071  0.00  0.00     0.241 C 
ATOM      5  O4  non d ame     -11.851   6.435  70.038  0.00  0.00    -0.271 OA
ATOM      6  H19 non d ame      -9.201   8.294  69.857  0.00  0.00     0.163 HD
BRANCH   4   7
ATOM      7  C9  non d ame      -9.703   5.566  70.352  0.00  0.00     0.092 C 
ATOM      8  H11 non d ame     -10.233   4.614  70.388  0.00  0.00     0.088 H 
BRANCH   7   9
ATOM      9  N3  non d ame      -8.736   5.481  69.253  0.00  0.00    -0.346 N 
ATOM     10  C7  non d ame      -8.905   4.489  68.220  0.00  0.00     0.240 C 
ATOM     11  O3  non d ame      -9.811   3.750  68.258  0.00  0.00    -0.271 OA
ATOM     12  H10 non d ame      -7.948   6.111  69.208  0.00  0.00     0.163 HD
BRANCH  10  13
ATOM     13  C6  non d ame      -7.870   4.402  67.055  0.00  0.00     0.086 C 
ATOM     14  H6  non d ame      -8.316   4.063  66.120  0.00  0.00     0.086 H 
BRANCH  13  15
ATOM     15  N2  non d ame      -7.332   5.728  66.802  0.00  0.00    -0.343 N 
ATOM     16  C5  non d ame      -7.058   6.145  65.425  0.00  0.00     0.273 C 
ATOM     17  O2  non d ame      -7.270   5.405  64.529  0.00  0.00    -0.266 OA
ATOM     18  H5  non d ame      -7.151   6.353  67.575  0.00  0.00     0.163 HD
BRANCH  16  19
ATOM     19  C4  non d ame      -6.490   7.545  65.143  0.00  0.00     0.154 A 
ATOM     20  C1  non d ame      -6.559   8.274  63.914  0.00  0.00    -0.017 A 
ATOM     21  C2  non d ame      -5.894   9.493  64.177  0.00  0.00     0.077 A 
ATOM     22  H1  non d ame      -7.021   7.967  62.976  0.00  0.00     0.091 H 
ATOM     23  O1  non d ame      -5.495   9.457  65.415  0.00  0.00    -0.218 OA
ATOM     24  N1  non d ame      -5.831   8.330  65.999  0.00  0.00    -0.123 NA
BRANCH  21  25
ATOM     25  C3  non d ame      -5.685  10.636  63.193  0.00  0.00    -0.029 C 
ATOM     26  H2  non d ame      -6.057  11.564  63.628  0.00  0.00     0.036 H 
ATOM     27  H3  non d ame      -4.622  10.737  62.974  0.00  0.00     0.036 H 
ATOM     28  H4  non d ame      -6.227  10.425  62.270  0.00  0.00     0.036 H 
ENDBRANCH  21  25
ENDBRANCH  16  19
ENDBRANCH  13  15
BRANCH  13  29
ATOM     29  C8  non d ame      -6.759   3.457  67.436  0.00  0.00    -0.049 C 
ATOM     30  H7  non d ame      -6.364   3.736  68.413  0.00  0.00     0.030 H 
ATOM     31  H8  non d ame      -7.145   2.439  67.477  0.00  0.00     0.030 H 
ATOM     32  H9  non d ame      -5.963   3.515  66.693  0.00  0.00     0.030 H 
ENDBRANCH  13  29
ENDBRANCH  10  13
ENDBRANCH   7   9
BRANCH   7  33
ATOM     33  C11 non d ame      -8.950   5.868  71.680  0.00  0.00    -0.033 C 
ATOM     34  H12 non d ame      -9.519   6.628  72.215  0.00  0.00     0.042 H 
BRANCH  33  35
ATOM     35  C12 non d ame      -8.879   4.605  72.594  0.00  0.00    -0.071 C 
ATOM     36  H13 non d ame      -8.131   3.915  72.203  0.00  0.00     0.028 H 
ATOM     37  H14 non d ame      -8.604   4.903  73.605  0.00  0.00     0.028 H 
ATOM     38  H15 non d ame      -9.852   4.115  72.611  0.00  0.00     0.028 H 
ENDBRANCH  33  35
BRANCH  33  39
ATOM     39  C13 non d ame      -7.525   6.443  71.397  0.00  0.00    -0.071 C 
ATOM     40  H16 non d ame      -7.603   7.289  70.715  0.00  0.00     0.028 H 
ATOM     41  H17 non d ame      -7.072   6.770  72.333  0.00  0.00     0.028 H 
ATOM     42  H18 non d ame      -6.905   5.668  70.945  0.00  0.00     0.028 H 
ENDBRANCH  33  39
ENDBRANCH   7  33
ENDBRANCH   4   7
ENDBRANCH   1   3
BRANCH   1  43
ATOM     43  C15 non d ame     -10.519  10.059  68.444  0.00  0.00     0.240 C 
ATOM     44  O5  non d ame      -9.445   9.812  67.998  0.00  0.00    -0.271 OA
ATOM     45  N6  non d ame     -11.282  11.232  67.932  0.00  0.00    -0.355 N 
ATOM     46  H46 non d ame     -12.197  11.449  68.299  0.00  0.00     0.162 HD
BRANCH  45  47
ATOM     47  C20 non d ame     -10.694  12.085  66.876  0.00  0.00     0.013 C 
ATOM     48  H30 non d ame      -9.867  11.538  66.425  0.00  0.00     0.072 H 
BRANCH  47  49
ATOM     49  C21 non d ame     -10.188  13.369  67.495  0.00  0.00    -0.038 C 
ATOM     50  H31 non d ame     -10.186  13.196  68.572  0.00  0.00     0.036 H 
ATOM     51  H32 non d ame      -9.256  13.597  66.978  0.00  0.00     0.036 H 
BRANCH  49  52
ATOM     52  C22 non d ame     -11.131  14.566  67.247  0.00  0.00     0.018 C 
ATOM     53  H33 non d ame     -10.503  15.355  66.833  0.00  0.00     0.048 H 
ATOM     54  H34 non d ame     -11.964  14.170  66.665  0.00  0.00     0.048 H 
BRANCH  52  55
ATOM     55  C23 non d ame     -11.755  15.151  68.544  0.00  0.00     0.259 C 
ATOM     56  O7  non d ame     -12.276  14.437  69.338  0.00  0.00    -0.265 OA
BRANCH  55  57
ATOM     57  O8  non d ame     -11.708  16.555  68.768  0.00  0.00    -0.317 OA
BRANCH  57  58
ATOM     58  C29 non d ame     -10.447  17.027  69.249  0.00  0.00     0.052 C 
ATOM     59  H47 non d ame     -10.674  17.636  70.124  0.00  0.00     0.082 H 
ATOM     60  H48 non d ame      -9.820  16.141  69.350  0.00  0.00     0.082 H 
BRANCH  58  61
ATOM     61  C35 non d ame      -9.830  17.944  68.159  0.00  0.00    -0.034 A 
ATOM     62  C30 non d ame      -8.626  17.595  67.555  0.00  0.00    -0.075 A 
ATOM     63  C31 non d ame      -8.072  18.418  66.577  0.00  0.00    -0.082 A 
ATOM     64  H49 non d ame      -8.117  16.677  67.849  0.00  0.00     0.084 H 
ATOM     65  C32 non d ame      -8.725  19.596  66.204  0.00  0.00    -0.083 A 
ATOM     66  H50 non d ame      -7.130  18.141  66.103  0.00  0.00     0.083 H 
ATOM     67  C33 non d ame      -9.925  19.942  66.811  0.00  0.00    -0.082 A 
ATOM     68  H51 non d ame      -8.299  20.245  65.439  0.00  0.00     0.083 H 
ATOM     69  C34 non d ame     -10.483  19.121  67.789  0.00  0.00    -0.075 A 
ATOM     70  H52 non d ame     -10.431  20.862  66.520  0.00  0.00     0.083 H 
ATOM     71  H53 non d ame     -11.426  19.398  68.261  0.00  0.00     0.084 H 
ENDBRANCH  58  61
ENDBRANCH  57  58
ENDBRANCH  55  57
ENDBRANCH  52  55
ENDBRANCH  49  52
ENDBRANCH  47  49
BRANCH  47  72
ATOM     72  C24 non d ame     -11.753  12.409  65.824  0.00  0.00    -0.039 C 
ATOM     73  H35 non d ame     -12.707  12.148  66.283  0.00  0.00     0.036 H 
ATOM     74  H36 non d ame     -11.557  13.438  65.522  0.00  0.00     0.036 H 
BRANCH  72  75
ATOM     75  C25 non d ame     -11.590  11.495  64.519  0.00  0.00    -0.001 C 
ATOM     76  C26 non d ame     -10.284  10.510  64.684  0.00  0.00    -0.035 C 
ATOM     77  C27 non d ame      -9.501  10.636  63.586  0.00  0.00     0.085 C 
ATOM     78  H38 non d ame      -9.647  10.866  65.493  0.00  0.00     0.036 H 
ATOM     79  H39 non d ame     -10.596   9.466  64.656  0.00  0.00     0.036 H 
ATOM     80  N5  non d ame      -9.982  11.855  62.838  0.00  0.00    -0.049 N 
ATOM     81  H40 non d ame      -8.496  10.825  63.965  0.00  0.00     0.075 H 
ATOM     82  H41 non d ame      -9.698   9.749  62.985  0.00  0.00     0.075 H 
ATOM     83  C28 non d ame     -11.428  12.216  63.460  0.00  0.00     0.193 C 
ATOM     84  H42 non d ame      -9.340  12.601  63.063  0.00  0.00     0.280 HD
ATOM     85  H43 non d ame     -10.109  11.570  61.877  0.00  0.00     0.280 HD
ATOM     86  H44 non d ame     -12.341  11.976  62.915  0.00  0.00     0.129 H 
ATOM     87  H37 non d ame     -12.529  11.027  64.223  0.00  0.00     0.046 H 
BRANCH  83  88
ATOM     88  O6  non d ame     -11.508  13.614  63.743  0.00  0.00    -0.369 OA
ATOM     89  H45 non d ame     -12.123  14.028  63.134  0.00  0.00     0.212 HD
ENDBRANCH  83  88
ENDBRANCH  72  75
ENDBRANCH  47  72
ENDBRANCH  45  47
ENDBRANCH   1  43
BRANCH   1  90
ATOM     90  C16 non d ame     -11.336   9.963  70.820  0.00  0.00    -0.035 C 
ATOM     91  H21 non d ame     -10.859   9.389  71.614  0.00  0.00     0.037 H 
ATOM     92  H22 non d ame     -10.978  10.966  70.583  0.00  0.00     0.037 H 
BRANCH  90  93
ATOM     93  C17 non d ame     -12.837  10.114  71.224  0.00  0.00    -0.059 C 
ATOM     94  H23 non d ame     -13.434  10.029  70.316  0.00  0.00     0.038 H 
BRANCH  93  95
ATOM     95  C18 non d ame     -13.299   8.990  72.205  0.00  0.00    -0.073 C 
ATOM     96  H24 non d ame     -13.140   8.016  71.743  0.00  0.00     0.028 H 
ATOM     97  H25 non d ame     -12.721   9.054  73.128  0.00  0.00     0.028 H 
ATOM     98  H26 non d ame     -14.358   9.117  72.430  0.00  0.00     0.028 H 
ENDBRANCH  93  95
BRANCH  93  99
ATOM     99  C19 non d ame     -13.107  11.500  71.816  0.00  0.00    -0.073 C 
ATOM    100  H27 non d ame     -13.430  11.395  72.852  0.00  0.00     0.028 H 
ATOM    101  H28 non d ame     -12.194  12.095  71.778  0.00  0.00     0.028 H 
ATOM    102  H29 non d ame     -13.888  11.996  71.240  0.00  0.00     0.028 H 
ENDBRANCH  93  99
ENDBRANCH  90  93
ENDBRANCH   1  90
TORSDOF 26
ENDMDL
MODEL 15
REMARK VINA RESULT:      -5.9      2.233      5.836
REMARK  26 active torsions:
REMARK  status: ('A' for Active; 'I' for Inactive)
REMARK    1  A    between atoms: C2_2  and  C3_3 
REMARK    2  A    between atoms: C4_6  and  C5_7 
REMARK       I    between atoms: C5_7  and  N2_9 
REMARK    3  A    between atoms: N2_9  and  C6_10 
REMARK    4  A    between atoms: C6_10  and  C7_11 
REMARK    5  A    between atoms: C6_10  and  C8_13 
REMARK       I    between atoms: C7_11  and  N3_14 
REMARK    6  A    between atoms: N3_14  and  C9_15 
REMARK    7  A    between atoms: C9_15  and  C10_16 
REMARK    8  A    between atoms: C9_15  and  C11_18 
REMARK       I    between atoms: C10_16  and  N4_21 
REMARK    9  A    between atoms: C11_18  and  C12_19 
REMARK   10  A    between atoms: C11_18  and  C13_20 
REMARK   11  A    between atoms: N4_21  and  C14_22 
REMARK   12  A    between atoms: C14_22  and  C15_23 
REMARK   13  A    between atoms: C14_22  and  C16_25 
REMARK       I    between atoms: C15_23  and  N6_40 
REMARK   14  A    between atoms: C16_25  and  C17_26 
REMARK   15  A    between atoms: C17_26  and  C18_27 
REMARK   16  A    between atoms: C17_26  and  C19_28 
REMARK   17  A    between atoms: C20_29  and  C21_30 
REMARK   18  A    between atoms: C20_29  and  C24_33 
REMARK   19  A    between atoms: C20_29  and  N6_40 
REMARK   20  A    between atoms: C21_30  and  C22_31 
REMARK   21  A    between atoms: C22_31  and  C23_32 
REMARK   22  A    between atoms: C23_32  and  O8_43 
REMARK   23  A    between atoms: C24_33  and  C25_34 
REMARK   24  A    between atoms: C28_38  and  O6_39 
REMARK   25  A    between atoms: C29_42  and  O8_43 
REMARK   26  A    between atoms: C29_42  and  C35_49 
ROOT
ATOM      1  C14 non d ame      -8.320   9.071  65.139  0.00  0.00     0.089 C 
ATOM      2  H20 non d ame      -7.461   9.078  65.811  0.00  0.00     0.087 H 
ENDROOT
BRANCH   1   3
ATOM      3  N4  non d ame      -8.627   7.681  64.836  0.00  0.00    -0.346 N 
ATOM      4  C10 non d ame      -7.894   6.568  65.541  0.00  0.00     0.241 C 
ATOM      5  O4  non d ame      -7.059   6.815  66.347  0.00  0.00    -0.271 OA
ATOM      6  H19 non d ame      -9.339   7.492  64.145  0.00  0.00     0.163 HD
BRANCH   4   7
ATOM      7  C9  non d ame      -8.229   5.135  65.219  0.00  0.00     0.092 C 
ATOM      8  H11 non d ame      -7.311   4.598  64.977  0.00  0.00     0.088 H 
BRANCH   7   9
ATOM      9  N3  non d ame      -8.809   4.490  66.401  0.00  0.00    -0.346 N 
ATOM     10  C7  non d ame      -7.993   3.637  67.229  0.00  0.00     0.240 C 
ATOM     11  O3  non d ame      -6.868   3.456  66.958  0.00  0.00    -0.271 OA
ATOM     12  H10 non d ame      -9.778   4.635  66.646  0.00  0.00     0.163 HD
BRANCH  10  13
ATOM     13  C6  non d ame      -8.616   2.951  68.484  0.00  0.00     0.086 C 
ATOM     14  H6  non d ame      -7.871   2.686  69.234  0.00  0.00     0.086 H 
BRANCH  13  15
ATOM     15  N2  non d ame      -9.535   3.880  69.122  0.00  0.00    -0.343 N 
ATOM     16  C5  non d ame      -9.147   4.532  70.375  0.00  0.00     0.273 C 
ATOM     17  O2  non d ame      -8.096   4.300  70.863  0.00  0.00    -0.266 OA
ATOM     18  H5  non d ame     -10.432   4.070  68.699  0.00  0.00     0.163 HD
BRANCH  16  19
ATOM     19  C4  non d ame     -10.107   5.518  71.059  0.00  0.00     0.154 A 
ATOM     20  C1  non d ame     -11.254   6.150  70.481  0.00  0.00    -0.017 A 
ATOM     21  C2  non d ame     -11.786   6.952  71.515  0.00  0.00     0.077 A 
ATOM     22  H1  non d ame     -11.640   6.043  69.467  0.00  0.00     0.091 H 
ATOM     23  O1  non d ame     -11.028   6.791  72.560  0.00  0.00    -0.218 OA
ATOM     24  N1  non d ame     -10.041   5.959  72.318  0.00  0.00    -0.123 NA
BRANCH  21  25
ATOM     25  C3  non d ame     -13.020   7.840  71.423  0.00  0.00    -0.029 C 
ATOM     26  H2  non d ame     -13.330   8.138  72.425  0.00  0.00     0.036 H 
ATOM     27  H3  non d ame     -12.786   8.727  70.835  0.00  0.00     0.036 H 
ATOM     28  H4  non d ame     -13.829   7.289  70.942  0.00  0.00     0.036 H 
ENDBRANCH  21  25
ENDBRANCH  16  19
ENDBRANCH  13  15
BRANCH  13  29
ATOM     29  C8  non d ame      -9.352   1.704  68.066  0.00  0.00    -0.049 C 
ATOM     30  H7  non d ame     -10.194   1.975  67.428  0.00  0.00     0.030 H 
ATOM     31  H8  non d ame      -8.675   1.050  67.515  0.00  0.00     0.030 H 
ATOM     32  H9  non d ame      -9.720   1.185  68.950  0.00  0.00     0.030 H 
ENDBRANCH  13  29
ENDBRANCH  10  13
ENDBRANCH   7   9
BRANCH   7  33
ATOM     33  C11 non d ame      -9.258   5.093  64.051  0.00  0.00    -0.033 C 
ATOM     34  H12 non d ame      -9.831   6.019  64.085  0.00  0.00     0.042 H 
BRANCH  33  35
ATOM     35  C12 non d ame      -8.542   5.034  62.665  0.00  0.00    -0.071 C 
ATOM     36  H13 non d ame      -8.893   5.856  62.041  0.00  0.00     0.028 H 
ATOM     37  H14 non d ame      -7.466   5.121  62.809  0.00  0.00     0.028 H 
ATOM     38  H15 non d ame      -8.770   4.085  62.180  0.00  0.00     0.028 H 
ENDBRANCH  33  35
BRANCH  33  39
ATOM     39  C13 non d ame     -10.253   3.901  64.226  0.00  0.00    -0.071 C 
ATOM     40  H16 non d ame     -10.051   3.394  65.169  0.00  0.00     0.028 H 
ATOM     41  H17 non d ame     -11.276   4.280  64.229  0.00  0.00     0.028 H 
ATOM     42  H18 non d ame     -10.128   3.200  63.401  0.00  0.00     0.028 H 
ENDBRANCH  33  39
ENDBRANCH   7  33
ENDBRANCH   4   7
ENDBRANCH   1   3
BRANCH   1  43
ATOM     43  C15 non d ame      -9.575   9.726  65.783  0.00  0.00     0.240 C 
ATOM     44  O5  non d ame     -10.330   9.061  66.415  0.00  0.00    -0.271 OA
ATOM     45  N6  non d ame      -9.830  11.186  65.619  0.00  0.00    -0.355 N 
ATOM     46  H46 non d ame      -9.193  11.762  65.089  0.00  0.00     0.162 HD
BRANCH  45  47
ATOM     47  C20 non d ame     -11.027  11.794  66.239  0.00  0.00     0.013 C 
ATOM     48  H30 non d ame     -11.776  11.012  66.361  0.00  0.00     0.072 H 
BRANCH  47  49
ATOM     49  C21 non d ame     -11.560  12.882  65.334  0.00  0.00    -0.038 C 
ATOM     50  H31 non d ame     -11.771  12.396  64.381  0.00  0.00     0.036 H 
ATOM     51  H32 non d ame     -12.365  13.361  65.892  0.00  0.00     0.036 H 
BRANCH  49  52
ATOM     52  C22 non d ame     -10.517  13.983  65.041  0.00  0.00     0.018 C 
ATOM     53  H33 non d ame      -9.964  14.121  65.971  0.00  0.00     0.048 H 
ATOM     54  H34 non d ame      -9.994  13.662  64.140  0.00  0.00     0.048 H 
BRANCH  52  55
ATOM     55  C23 non d ame     -11.142  15.365  64.705  0.00  0.00     0.259 C 
ATOM     56  O7  non d ame     -12.179  15.434  64.129  0.00  0.00    -0.265 OA
BRANCH  55  57
ATOM     57  O8  non d ame     -10.453  16.551  65.082  0.00  0.00    -0.317 OA
BRANCH  57  58
ATOM     58  C29 non d ame     -10.552  16.864  66.474  0.00  0.00     0.052 C 
ATOM     59  H47 non d ame     -11.321  17.633  66.550  0.00  0.00     0.082 H 
ATOM     60  H48 non d ame     -10.684  15.909  66.982  0.00  0.00     0.082 H 
BRANCH  58  61
ATOM     61  C35 non d ame      -9.199  17.477  66.924  0.00  0.00    -0.034 A 
ATOM     62  C30 non d ame      -9.148  18.311  68.036  0.00  0.00    -0.075 A 
ATOM     63  C31 non d ame      -7.933  18.862  68.441  0.00  0.00    -0.082 A 
ATOM     64  H49 non d ame     -10.059  18.532  68.592  0.00  0.00     0.084 H 
ATOM     65  C32 non d ame      -6.766  18.578  67.726  0.00  0.00    -0.083 A 
ATOM     66  H50 non d ame      -7.895  19.513  69.314  0.00  0.00     0.083 H 
ATOM     67  C33 non d ame      -6.822  17.748  66.615  0.00  0.00    -0.082 A 
ATOM     68  H51 non d ame      -5.811  19.004  68.035  0.00  0.00     0.083 H 
ATOM     69  C34 non d ame      -8.034  17.194  66.208  0.00  0.00    -0.075 A 
ATOM     70  H52 non d ame      -5.910  17.531  66.058  0.00  0.00     0.083 H 
ATOM     71  H53 non d ame      -8.070  16.542  65.335  0.00  0.00     0.084 H 
ENDBRANCH  58  61
ENDBRANCH  57  58
ENDBRANCH  55  57
ENDBRANCH  52  55
ENDBRANCH  49  52
ENDBRANCH  47  49
BRANCH  47  72
ATOM     72  C24 non d ame     -10.659  12.393  67.594  0.00  0.00    -0.039 C 
ATOM     73  H35 non d ame     -10.160  11.592  68.140  0.00  0.00     0.036 H 
ATOM     74  H36 non d ame     -10.123  13.315  67.369  0.00  0.00     0.036 H 
BRANCH  72  75
ATOM     75  C25 non d ame     -11.961  12.798  68.436  0.00  0.00    -0.001 C 
ATOM     76  C26 non d ame     -11.978  14.423  68.693  0.00  0.00    -0.035 C 
ATOM     77  C27 non d ame     -12.162  14.653  70.016  0.00  0.00     0.085 C 
ATOM     78  H38 non d ame     -10.992  14.843  68.496  0.00  0.00     0.036 H 
ATOM     79  H39 non d ame     -12.861  14.865  68.233  0.00  0.00     0.036 H 
ATOM     80  N5  non d ame     -11.944  13.340  70.727  0.00  0.00    -0.049 N 
ATOM     81  H40 non d ame     -11.372  15.348  70.303  0.00  0.00     0.075 H 
ATOM     82  H41 non d ame     -13.207  14.943  70.118  0.00  0.00     0.075 H 
ATOM     83  C28 non d ame     -11.981  12.202  69.582  0.00  0.00     0.193 C 
ATOM     84  H42 non d ame     -11.012  13.375  71.115  0.00  0.00     0.280 HD
ATOM     85  H43 non d ame     -12.739  13.208  71.336  0.00  0.00     0.280 HD
ATOM     86  H44 non d ame     -12.859  11.568  69.460  0.00  0.00     0.129 H 
ATOM     87  H37 non d ame     -12.869  12.350  68.033  0.00  0.00     0.046 H 
BRANCH  83  88
ATOM     88  O6  non d ame     -10.880  11.306  69.742  0.00  0.00    -0.369 OA
ATOM     89  H45 non d ame     -11.205  10.403  69.771  0.00  0.00     0.212 HD
ENDBRANCH  83  88
ENDBRANCH  72  75
ENDBRANCH  47  72
ENDBRANCH  45  47
ENDBRANCH   1  43
BRANCH   1  90
ATOM     90  C16 non d ame      -7.970   9.795  63.849  0.00  0.00    -0.035 C 
ATOM     91  H21 non d ame      -8.924  10.119  63.432  0.00  0.00     0.037 H 
ATOM     92  H22 non d ame      -7.218  10.533  64.127  0.00  0.00     0.037 H 
BRANCH  90  93
ATOM     93  C17 non d ame      -7.309   8.875  62.773  0.00  0.00    -0.059 C 
ATOM     94  H23 non d ame      -7.809   7.907  62.814  0.00  0.00     0.038 H 
BRANCH  93  95
ATOM     95  C18 non d ame      -7.483   9.440  61.327  0.00  0.00    -0.073 C 
ATOM     96  H24 non d ame      -8.336   8.958  60.850  0.00  0.00     0.028 H 
ATOM     97  H25 non d ame      -7.653  10.515  61.376  0.00  0.00     0.028 H 
ATOM     98  H26 non d ame      -6.581   9.240  60.748  0.00  0.00     0.028 H 
ENDBRANCH  93  95
BRANCH  93  99
ATOM     99  C19 non d ame      -5.831   8.637  63.091  0.00  0.00    -0.073 C 
ATOM    100  H27 non d ame      -5.613   7.570  63.032  0.00  0.00     0.028 H 
ATOM    101  H28 non d ame      -5.214   9.175  62.370  0.00  0.00     0.028 H 
ATOM    102  H29 non d ame      -5.612   8.998  64.096  0.00  0.00     0.028 H 
ENDBRANCH  93  99
ENDBRANCH  90  93
ENDBRANCH   1  90
TORSDOF 26
ENDMDL
MODEL 16
REMARK VINA RESULT:      -5.8      2.247      7.689
REMARK  26 active torsions:
REMARK  status: ('A' for Active; 'I' for Inactive)
REMARK    1  A    between atoms: C2_2  and  C3_3 
REMARK    2  A    between atoms: C4_6  and  C5_7 
REMARK       I    between atoms: C5_7  and  N2_9 
REMARK    3  A    between atoms: N2_9  and  C6_10 
REMARK    4  A    between atoms: C6_10  and  C7_11 
REMARK    5  A    between atoms: C6_10  and  C8_13 
REMARK       I    between atoms: C7_11  and  N3_14 
REMARK    6  A    between atoms: N3_14  and  C9_15 
REMARK    7  A    between atoms: C9_15  and  C10_16 
REMARK    8  A    between atoms: C9_15  and  C11_18 
REMARK       I    between atoms: C10_16  and  N4_21 
REMARK    9  A    between atoms: C11_18  and  C12_19 
REMARK   10  A    between atoms: C11_18  and  C13_20 
REMARK   11  A    between atoms: N4_21  and  C14_22 
REMARK   12  A    between atoms: C14_22  and  C15_23 
REMARK   13  A    between atoms: C14_22  and  C16_25 
REMARK       I    between atoms: C15_23  and  N6_40 
REMARK   14  A    between atoms: C16_25  and  C17_26 
REMARK   15  A    between atoms: C17_26  and  C18_27 
REMARK   16  A    between atoms: C17_26  and  C19_28 
REMARK   17  A    between atoms: C20_29  and  C21_30 
REMARK   18  A    between atoms: C20_29  and  C24_33 
REMARK   19  A    between atoms: C20_29  and  N6_40 
REMARK   20  A    between atoms: C21_30  and  C22_31 
REMARK   21  A    between atoms: C22_31  and  C23_32 
REMARK   22  A    between atoms: C23_32  and  O8_43 
REMARK   23  A    between atoms: C24_33  and  C25_34 
REMARK   24  A    between atoms: C28_38  and  O6_39 
REMARK   25  A    between atoms: C29_42  and  O8_43 
REMARK   26  A    between atoms: C29_42  and  C35_49 
ROOT
ATOM      1  C14 non d ame     -11.117  13.893  66.564  0.00  0.00     0.089 C 
ATOM      2  H20 non d ame     -11.716  14.106  65.679  0.00  0.00     0.087 H 
ENDROOT
BRANCH   1   3
ATOM      3  N4  non d ame     -12.031  13.524  67.634  0.00  0.00    -0.346 N 
ATOM      4  C10 non d ame     -11.534  13.403  69.053  0.00  0.00     0.241 C 
ATOM      5  O4  non d ame     -10.393  13.604  69.308  0.00  0.00    -0.271 OA
ATOM      6  H19 non d ame     -12.998  13.354  67.396  0.00  0.00     0.163 HD
BRANCH   4   7
ATOM      7  C9  non d ame     -12.496  13.025  70.149  0.00  0.00     0.092 C 
ATOM      8  H11 non d ame     -13.494  12.910  69.726  0.00  0.00     0.088 H 
BRANCH   7   9
ATOM      9  N3  non d ame     -12.111  11.728  70.712  0.00  0.00    -0.346 N 
ATOM     10  C7  non d ame     -12.073  10.559  69.867  0.00  0.00     0.240 C 
ATOM     11  O3  non d ame     -12.351  10.644  68.733  0.00  0.00    -0.271 OA
ATOM     12  H10 non d ame     -11.871  11.638  71.689  0.00  0.00     0.163 HD
BRANCH  10  13
ATOM     13  C6  non d ame     -11.666   9.180  70.473  0.00  0.00     0.086 C 
ATOM     14  H6  non d ame     -12.497   8.673  70.963  0.00  0.00     0.086 H 
BRANCH  13  15
ATOM     15  N2  non d ame     -11.221   8.306  69.399  0.00  0.00    -0.343 N 
ATOM     16  C5  non d ame     -11.236   6.855  69.597  0.00  0.00     0.273 C 
ATOM     17  O2  non d ame     -11.604   6.401  70.624  0.00  0.00    -0.266 OA
ATOM     18  H5  non d ame     -10.905   8.704  68.526  0.00  0.00     0.163 HD
BRANCH  16  19
ATOM     19  C4  non d ame     -10.770   5.920  68.470  0.00  0.00     0.154 A 
ATOM     20  C1  non d ame      -9.912   4.781  68.591  0.00  0.00    -0.017 A 
ATOM     21  C2  non d ame      -9.795   4.273  67.278  0.00  0.00     0.077 A 
ATOM     22  H1  non d ame      -9.445   4.384  69.493  0.00  0.00     0.091 H 
ATOM     23  O1  non d ame     -10.507   5.037  66.503  0.00  0.00    -0.218 OA
ATOM     24  N1  non d ame     -11.085   6.005  67.175  0.00  0.00    -0.123 NA
BRANCH  21  25
ATOM     25  C3  non d ame      -8.986   3.055  66.851  0.00  0.00    -0.029 C 
ATOM     26  H2  non d ame      -8.905   2.361  67.688  0.00  0.00     0.036 H 
ATOM     27  H3  non d ame      -9.485   2.562  66.017  0.00  0.00     0.036 H 
ATOM     28  H4  non d ame      -7.989   3.371  66.543  0.00  0.00     0.036 H 
ENDBRANCH  21  25
ENDBRANCH  16  19
ENDBRANCH  13  15
BRANCH  13  29
ATOM     29  C8  non d ame     -10.556   9.375  71.473  0.00  0.00    -0.049 C 
ATOM     30  H7  non d ame      -9.852   8.546  71.402  0.00  0.00     0.030 H 
ATOM     31  H8  non d ame     -10.037  10.311  71.263  0.00  0.00     0.030 H 
ATOM     32  H9  non d ame     -10.975   9.410  72.479  0.00  0.00     0.030 H 
ENDBRANCH  13  29
ENDBRANCH  10  13
ENDBRANCH   7   9
BRANCH   7  33
ATOM     33  C11 non d ame     -12.456  14.106  71.269  0.00  0.00    -0.033 C 
ATOM     34  H12 non d ame     -11.448  14.111  71.685  0.00  0.00     0.042 H 
BRANCH  33  35
ATOM     35  C12 non d ame     -12.733  15.530  70.695  0.00  0.00    -0.071 C 
ATOM     36  H13 non d ame     -12.532  16.277  71.463  0.00  0.00     0.028 H 
ATOM     37  H14 non d ame     -12.085  15.709  69.837  0.00  0.00     0.028 H 
ATOM     38  H15 non d ame     -13.775  15.600  70.384  0.00  0.00     0.028 H 
ENDBRANCH  33  35
BRANCH  33  39
ATOM     39  C13 non d ame     -13.452  13.755  72.420  0.00  0.00    -0.071 C 
ATOM     40  H16 non d ame     -14.455  14.081  72.145  0.00  0.00     0.028 H 
ATOM     41  H17 non d ame     -13.452  12.677  72.585  0.00  0.00     0.028 H 
ATOM     42  H18 non d ame     -13.143  14.263  73.334  0.00  0.00     0.028 H 
ENDBRANCH  33  39
ENDBRANCH   7  33
ENDBRANCH   4   7
ENDBRANCH   1   3
BRANCH   1  43
ATOM     43  C15 non d ame     -10.124  12.718  66.333  0.00  0.00     0.240 C 
ATOM     44  O5  non d ame      -8.956  12.932  66.281  0.00  0.00    -0.271 OA
ATOM     45  N6  non d ame     -10.630  11.323  66.186  0.00  0.00    -0.355 N 
ATOM     46  H46 non d ame     -11.619  11.128  66.234  0.00  0.00     0.162 HD
BRANCH  45  47
ATOM     47  C20 non d ame      -9.673  10.216  65.969  0.00  0.00     0.013 C 
ATOM     48  H30 non d ame     -10.233   9.356  65.603  0.00  0.00     0.072 H 
BRANCH  47  49
ATOM     49  C21 non d ame      -8.998   9.874  67.278  0.00  0.00    -0.038 C 
ATOM     50  H31 non d ame      -9.347  10.620  67.993  0.00  0.00     0.036 H 
ATOM     51  H32 non d ame      -9.204   8.817  67.448  0.00  0.00     0.036 H 
BRANCH  49  52
ATOM     52  C22 non d ame      -7.462  10.016  67.215  0.00  0.00     0.018 C 
ATOM     53  H33 non d ame      -7.205   9.980  66.156  0.00  0.00     0.048 H 
ATOM     54  H34 non d ame      -7.222  10.901  67.804  0.00  0.00     0.048 H 
BRANCH  52  55
ATOM     55  C23 non d ame      -6.697   8.838  67.881  0.00  0.00     0.259 C 
ATOM     56  O7  non d ame      -5.987   9.032  68.814  0.00  0.00    -0.265 OA
BRANCH  55  57
ATOM     57  O8  non d ame      -6.845   7.525  67.355  0.00  0.00    -0.317 OA
BRANCH  57  58
ATOM     58  C29 non d ame      -5.754   7.102  66.532  0.00  0.00     0.052 C 
ATOM     59  H47 non d ame      -5.191   8.006  66.300  0.00  0.00     0.082 H 
ATOM     60  H48 non d ame      -5.276   6.285  67.072  0.00  0.00     0.082 H 
BRANCH  58  61
ATOM     61  C35 non d ame      -6.343   6.538  65.211  0.00  0.00    -0.034 A 
ATOM     62  C30 non d ame      -7.706   6.280  65.109  0.00  0.00    -0.075 A 
ATOM     63  C31 non d ame      -8.235   5.774  63.923  0.00  0.00    -0.082 A 
ATOM     64  H49 non d ame      -8.361   6.476  65.959  0.00  0.00     0.084 H 
ATOM     65  C32 non d ame      -7.394   5.521  62.836  0.00  0.00    -0.083 A 
ATOM     66  H50 non d ame      -9.304   5.575  63.846  0.00  0.00     0.083 H 
ATOM     67  C33 non d ame      -6.033   5.777  62.943  0.00  0.00    -0.082 A 
ATOM     68  H51 non d ame      -7.799   5.126  61.905  0.00  0.00     0.083 H 
ATOM     69  C34 non d ame      -5.501   6.285  64.126  0.00  0.00    -0.075 A 
ATOM     70  H52 non d ame      -5.379   5.577  62.094  0.00  0.00     0.083 H 
ATOM     71  H53 non d ame      -4.432   6.484  64.202  0.00  0.00     0.084 H 
ENDBRANCH  58  61
ENDBRANCH  57  58
ENDBRANCH  55  57
ENDBRANCH  52  55
ENDBRANCH  49  52
ENDBRANCH  47  49
BRANCH  47  72
ATOM     72  C24 non d ame      -8.619  10.637  64.947  0.00  0.00    -0.039 C 
ATOM     73  H35 non d ame      -8.735  11.716  64.838  0.00  0.00     0.036 H 
ATOM     74  H36 non d ame      -7.679  10.225  65.312  0.00  0.00     0.036 H 
BRANCH  72  75
ATOM     75  C25 non d ame      -8.894   9.986  63.509  0.00  0.00    -0.001 C 
ATOM     76  C26 non d ame      -7.533   9.244  62.961  0.00  0.00    -0.035 C 
ATOM     77  C27 non d ame      -7.272   9.683  61.706  0.00  0.00     0.085 C 
ATOM     78  H38 non d ame      -6.669   9.579  63.533  0.00  0.00     0.036 H 
ATOM     79  H39 non d ame      -7.717   8.178  62.824  0.00  0.00     0.036 H 
ATOM     80  N5  non d ame      -8.140  10.896  61.473  0.00  0.00    -0.049 N 
ATOM     81  H40 non d ame      -6.226   9.992  61.717  0.00  0.00     0.075 H 
ATOM     82  H41 non d ame      -7.597   8.882  61.044  0.00  0.00     0.075 H 
ATOM     83  C28 non d ame      -9.247  10.882  62.649  0.00  0.00     0.193 C 
ATOM     84  H42 non d ame      -7.546  11.702  61.601  0.00  0.00     0.280 HD
ATOM     85  H43 non d ame      -8.608  10.748  60.591  0.00  0.00     0.280 HD
ATOM     86  H44 non d ame     -10.270  10.568  62.443  0.00  0.00     0.129 H 
ATOM     87  H37 non d ame      -9.818   9.406  63.488  0.00  0.00     0.046 H 
BRANCH  83  88
ATOM     88  O6  non d ame      -9.357  12.180  63.237  0.00  0.00    -0.369 OA
ATOM     89  H45 non d ame     -10.278  12.367  63.429  0.00  0.00     0.212 HD
ENDBRANCH  83  88
ENDBRANCH  72  75
ENDBRANCH  47  72
ENDBRANCH  45  47
ENDBRANCH   1  43
BRANCH   1  90
ATOM     90  C16 non d ame     -10.348  15.138  66.976  0.00  0.00    -0.035 C 
ATOM     91  H21 non d ame     -10.966  15.623  67.732  0.00  0.00     0.037 H 
ATOM     92  H22 non d ame      -9.348  14.788  67.233  0.00  0.00     0.037 H 
BRANCH  90  93
ATOM     93  C17 non d ame     -10.169  16.175  65.822  0.00  0.00    -0.059 C 
ATOM     94  H23 non d ame      -9.184  16.015  65.383  0.00  0.00     0.038 H 
BRANCH  93  95
ATOM     95  C18 non d ame     -11.231  15.986  64.691  0.00  0.00    -0.073 C 
ATOM     96  H24 non d ame     -12.072  16.656  64.868  0.00  0.00     0.028 H 
ATOM     97  H25 non d ame     -10.779  16.218  63.726  0.00  0.00     0.028 H 
ATOM     98  H26 non d ame     -11.580  14.954  64.690  0.00  0.00     0.028 H 
ENDBRANCH  93  95
BRANCH  93  99
ATOM     99  C19 non d ame     -10.199  17.607  66.363  0.00  0.00    -0.073 C 
ATOM    100  H27 non d ame      -9.462  17.709  67.161  0.00  0.00     0.028 H 
ATOM    101  H28 non d ame      -9.963  18.304  65.559  0.00  0.00     0.028 H 
ATOM    102  H29 non d ame     -11.192  17.826  66.755  0.00  0.00     0.028 H 
ENDBRANCH  93  99
ENDBRANCH  90  93
ENDBRANCH   1  90
TORSDOF 26
ENDMDL
MODEL 17
REMARK VINA RESULT:      -5.8      2.850      8.582
REMARK  26 active torsions:
REMARK  status: ('A' for Active; 'I' for Inactive)
REMARK    1  A    between atoms: C2_2  and  C3_3 
REMARK    2  A    between atoms: C4_6  and  C5_7 
REMARK       I    between atoms: C5_7  and  N2_9 
REMARK    3  A    between atoms: N2_9  and  C6_10 
REMARK    4  A    between atoms: C6_10  and  C7_11 
REMARK    5  A    between atoms: C6_10  and  C8_13 
REMARK       I    between atoms: C7_11  and  N3_14 
REMARK    6  A    between atoms: N3_14  and  C9_15 
REMARK    7  A    between atoms: C9_15  and  C10_16 
REMARK    8  A    between atoms: C9_15  and  C11_18 
REMARK       I    between atoms: C10_16  and  N4_21 
REMARK    9  A    between atoms: C11_18  and  C12_19 
REMARK   10  A    between atoms: C11_18  and  C13_20 
REMARK   11  A    between atoms: N4_21  and  C14_22 
REMARK   12  A    between atoms: C14_22  and  C15_23 
REMARK   13  A    between atoms: C14_22  and  C16_25 
REMARK       I    between atoms: C15_23  and  N6_40 
REMARK   14  A    between atoms: C16_25  and  C17_26 
REMARK   15  A    between atoms: C17_26  and  C18_27 
REMARK   16  A    between atoms: C17_26  and  C19_28 
REMARK   17  A    between atoms: C20_29  and  C21_30 
REMARK   18  A    between atoms: C20_29  and  C24_33 
REMARK   19  A    between atoms: C20_29  and  N6_40 
REMARK   20  A    between atoms: C21_30  and  C22_31 
REMARK   21  A    between atoms: C22_31  and  C23_32 
REMARK   22  A    between atoms: C23_32  and  O8_43 
REMARK   23  A    between atoms: C24_33  and  C25_34 
REMARK   24  A    between atoms: C28_38  and  O6_39 
REMARK   25  A    between atoms: C29_42  and  O8_43 
REMARK   26  A    between atoms: C29_42  and  C35_49 
ROOT
ATOM      1  C14 non d ame      -9.508   5.400  65.964  0.00  0.00     0.089 C 
ATOM      2  H20 non d ame     -10.575   5.552  66.126  0.00  0.00     0.087 H 
ENDROOT
BRANCH   1   3
ATOM      3  N4  non d ame      -8.965   6.639  65.428  0.00  0.00    -0.346 N 
ATOM      4  C10 non d ame      -9.553   7.967  65.834  0.00  0.00     0.241 C 
ATOM      5  O4  non d ame     -10.465   8.013  66.592  0.00  0.00    -0.271 OA
ATOM      6  H19 non d ame      -8.190   6.578  64.782  0.00  0.00     0.163 HD
BRANCH   4   7
ATOM      7  C9  non d ame      -8.974   9.240  65.274  0.00  0.00     0.092 C 
ATOM      8  H11 non d ame      -8.809   9.118  64.203  0.00  0.00     0.088 H 
BRANCH   7   9
ATOM      9  N3  non d ame      -9.939  10.331  65.441  0.00  0.00    -0.346 N 
ATOM     10  C7  non d ame     -10.480  10.998  64.282  0.00  0.00     0.240 C 
ATOM     11  O3  non d ame     -10.149  10.671  63.208  0.00  0.00    -0.271 OA
ATOM     12  H10 non d ame     -10.234  10.625  66.361  0.00  0.00     0.163 HD
BRANCH  10  13
ATOM     13  C6  non d ame     -11.505  12.160  64.467  0.00  0.00     0.086 C 
ATOM     14  H6  non d ame     -12.183  11.995  65.304  0.00  0.00     0.086 H 
BRANCH  13  15
ATOM     15  N2  non d ame     -10.780  13.387  64.755  0.00  0.00    -0.343 N 
ATOM     16  C5  non d ame     -11.340  14.350  65.705  0.00  0.00     0.273 C 
ATOM     17  O2  non d ame     -12.376  14.130  66.230  0.00  0.00    -0.266 OA
ATOM     18  H5  non d ame      -9.896  13.567  64.299  0.00  0.00     0.163 HD
BRANCH  16  19
ATOM     19  C4  non d ame     -10.584  15.650  66.020  0.00  0.00     0.154 A 
ATOM     20  C1  non d ame      -9.842  15.953  67.206  0.00  0.00    -0.017 A 
ATOM     21  C2  non d ame      -9.346  17.260  67.000  0.00  0.00     0.077 A 
ATOM     22  H1  non d ame      -9.688  15.322  68.081  0.00  0.00     0.091 H 
ATOM     23  O1  non d ame      -9.759  17.651  65.830  0.00  0.00    -0.218 OA
ATOM     24  N1  non d ame     -10.483  16.729  65.239  0.00  0.00    -0.123 NA
BRANCH  21  25
ATOM     25  C3  non d ame      -8.487  18.061  67.969  0.00  0.00    -0.029 C 
ATOM     26  H2  non d ame      -7.443  18.007  67.659  0.00  0.00     0.036 H 
ATOM     27  H3  non d ame      -8.813  19.101  67.969  0.00  0.00     0.036 H 
ATOM     28  H4  non d ame      -8.590  17.648  68.973  0.00  0.00     0.036 H 
ENDBRANCH  21  25
ENDBRANCH  16  19
ENDBRANCH  13  15
BRANCH  13  29
ATOM     29  C8  non d ame     -12.316  12.324  63.207  0.00  0.00    -0.049 C 
ATOM     30  H7  non d ame     -11.648  12.354  62.346  0.00  0.00     0.030 H 
ATOM     31  H8  non d ame     -13.003  11.483  63.105  0.00  0.00     0.030 H 
ATOM     32  H9  non d ame     -12.883  13.253  63.258  0.00  0.00     0.030 H 
ENDBRANCH  13  29
ENDBRANCH  10  13
ENDBRANCH   7   9
BRANCH   7  33
ATOM     33  C11 non d ame      -7.662   9.592  66.033  0.00  0.00    -0.033 C 
ATOM     34  H12 non d ame      -7.280   8.670  66.473  0.00  0.00     0.042 H 
BRANCH  33  35
ATOM     35  C12 non d ame      -6.569  10.134  65.059  0.00  0.00    -0.071 C 
ATOM     36  H13 non d ame      -6.693   9.671  64.080  0.00  0.00     0.028 H 
ATOM     37  H14 non d ame      -6.672  11.215  64.965  0.00  0.00     0.028 H 
ATOM     38  H15 non d ame      -5.582   9.895  65.452  0.00  0.00     0.028 H 
ENDBRANCH  33  35
BRANCH  33  39
ATOM     39  C13 non d ame      -7.939  10.602  67.192  0.00  0.00    -0.071 C 
ATOM     40  H16 non d ame      -8.299  10.062  68.067  0.00  0.00     0.028 H 
ATOM     41  H17 non d ame      -7.018  11.129  67.444  0.00  0.00     0.028 H 
ATOM     42  H18 non d ame      -8.694  11.321  66.873  0.00  0.00     0.028 H 
ENDBRANCH  33  39
ENDBRANCH   7  33
ENDBRANCH   4   7
ENDBRANCH   1   3
BRANCH   1  43
ATOM     43  C15 non d ame      -8.757   5.060  67.283  0.00  0.00     0.240 C 
ATOM     44  O5  non d ame      -8.199   4.016  67.394  0.00  0.00    -0.271 OA
ATOM     45  N6  non d ame      -8.725   6.040  68.406  0.00  0.00    -0.355 N 
ATOM     46  H46 non d ame      -9.190   6.932  68.322  0.00  0.00     0.162 HD
BRANCH  45  47
ATOM     47  C20 non d ame      -8.005   5.702  69.653  0.00  0.00     0.013 C 
ATOM     48  H30 non d ame      -7.784   4.635  69.635  0.00  0.00     0.072 H 
BRANCH  47  49
ATOM     49  C21 non d ame      -8.883   6.027  70.840  0.00  0.00    -0.038 C 
ATOM     50  H31 non d ame      -8.504   5.419  71.662  0.00  0.00     0.036 H 
ATOM     51  H32 non d ame      -8.881   7.114  70.920  0.00  0.00     0.036 H 
BRANCH  49  52
ATOM     52  C22 non d ame     -10.354   5.608  70.630  0.00  0.00     0.018 C 
ATOM     53  H33 non d ame     -10.763   6.316  69.909  0.00  0.00     0.048 H 
ATOM     54  H34 non d ame     -10.327   4.544  70.393  0.00  0.00     0.048 H 
BRANCH  52  55
ATOM     55  C23 non d ame     -11.232   5.740  71.906  0.00  0.00     0.259 C 
ATOM     56  O7  non d ame     -11.214   4.895  72.741  0.00  0.00    -0.265 OA
BRANCH  55  57
ATOM     57  O8  non d ame     -12.070   6.879  72.060  0.00  0.00    -0.317 OA
BRANCH  57  58
ATOM     58  C29 non d ame     -11.396   8.032  72.573  0.00  0.00     0.052 C 
ATOM     59  H47 non d ame     -11.951   8.326  73.464  0.00  0.00     0.082 H 
ATOM     60  H48 non d ame     -10.347   7.750  72.653  0.00  0.00     0.082 H 
BRANCH  58  61
ATOM     61  C35 non d ame     -11.519   9.167  71.521  0.00  0.00    -0.034 A 
ATOM     62  C30 non d ame     -10.525   9.339  70.563  0.00  0.00    -0.075 A 
ATOM     63  C31 non d ame     -10.636  10.358  69.618  0.00  0.00    -0.082 A 
ATOM     64  H49 non d ame      -9.660   8.676  70.552  0.00  0.00     0.084 H 
ATOM     65  C32 non d ame     -11.745  11.208  69.634  0.00  0.00    -0.083 A 
ATOM     66  H50 non d ame      -9.856  10.489  68.867  0.00  0.00     0.083 H 
ATOM     67  C33 non d ame     -12.733  11.034  70.594  0.00  0.00    -0.082 A 
ATOM     68  H51 non d ame     -11.839  12.007  68.899  0.00  0.00     0.083 H 
ATOM     69  C34 non d ame     -12.627  10.016  71.539  0.00  0.00    -0.075 A 
ATOM     70  H52 non d ame     -13.595  11.701  70.606  0.00  0.00     0.083 H 
ATOM     71  H53 non d ame     -13.408   9.885  72.289  0.00  0.00     0.084 H 
ENDBRANCH  58  61
ENDBRANCH  57  58
ENDBRANCH  55  57
ENDBRANCH  52  55
ENDBRANCH  49  52
ENDBRANCH  47  49
BRANCH  47  72
ATOM     72  C24 non d ame      -6.712   6.511  69.739  0.00  0.00    -0.039 C 
ATOM     73  H35 non d ame      -5.924   5.779  69.919  0.00  0.00     0.036 H 
ATOM     74  H36 non d ame      -6.692   7.122  68.836  0.00  0.00     0.036 H 
BRANCH  72  75
ATOM     75  C25 non d ame      -6.722   7.513  70.988  0.00  0.00    -0.001 C 
ATOM     76  C26 non d ame      -6.788   9.068  70.458  0.00  0.00    -0.035 C 
ATOM     77  C27 non d ame      -5.799   9.775  71.056  0.00  0.00     0.085 C 
ATOM     78  H38 non d ame      -6.531   9.114  69.401  0.00  0.00     0.036 H 
ATOM     79  H39 non d ame      -7.698   9.548  70.820  0.00  0.00     0.036 H 
ATOM     80  N5  non d ame      -4.863   8.775  71.691  0.00  0.00    -0.049 N 
ATOM     81  H40 non d ame      -5.276  10.286  70.246  0.00  0.00     0.075 H 
ATOM     82  H41 non d ame      -6.286  10.353  71.840  0.00  0.00     0.075 H 
ATOM     83  C28 non d ame      -5.660   7.371  71.710  0.00  0.00     0.193 C 
ATOM     84  H42 non d ame      -4.072   8.688  71.070  0.00  0.00     0.280 HD
ATOM     85  H43 non d ame      -4.725   9.079  72.645  0.00  0.00     0.280 HD
ATOM     86  H44 non d ame      -6.097   6.995  72.634  0.00  0.00     0.129 H 
ATOM     87  H37 non d ame      -7.444   7.217  71.750  0.00  0.00     0.046 H 
BRANCH  83  88
ATOM     88  O6  non d ame      -4.819   6.321  71.230  0.00  0.00    -0.369 OA
ATOM     89  H45 non d ame      -4.112   6.695  70.698  0.00  0.00     0.212 HD
ENDBRANCH  83  88
ENDBRANCH  72  75
ENDBRANCH  47  72
ENDBRANCH  45  47
ENDBRANCH   1  43
BRANCH   1  90
ATOM     90  C16 non d ame      -9.294   4.286  64.952  0.00  0.00    -0.035 C 
ATOM     91  H21 non d ame      -8.214   4.143  64.903  0.00  0.00     0.037 H 
ATOM     92  H22 non d ame      -9.936   3.469  65.282  0.00  0.00     0.037 H 
BRANCH  90  93
ATOM     93  C17 non d ame      -9.756   4.655  63.507  0.00  0.00    -0.059 C 
ATOM     94  H23 non d ame     -10.399   5.532  63.579  0.00  0.00     0.038 H 
BRANCH  93  95
ATOM     95  C18 non d ame      -8.553   5.021  62.579  0.00  0.00    -0.073 C 
ATOM     96  H24 non d ame      -7.660   4.499  62.920  0.00  0.00     0.028 H 
ATOM     97  H25 non d ame      -8.781   4.724  61.555  0.00  0.00     0.028 H 
ATOM     98  H26 non d ame      -8.382   6.097  62.615  0.00  0.00     0.028 H 
ENDBRANCH  93  95
BRANCH  93  99
ATOM     99  C19 non d ame     -10.591   3.527  62.895  0.00  0.00    -0.073 C 
ATOM    100  H27 non d ame     -10.267   2.571  63.306  0.00  0.00     0.028 H 
ATOM    101  H28 non d ame     -11.644   3.686  63.131  0.00  0.00     0.028 H 
ATOM    102  H29 non d ame     -10.459   3.522  61.814  0.00  0.00     0.028 H 
ENDBRANCH  93  99
ENDBRANCH  90  93
ENDBRANCH   1  90
TORSDOF 26
ENDMDL
MODEL 18
REMARK VINA RESULT:      -5.8      3.000      8.427
REMARK  26 active torsions:
REMARK  status: ('A' for Active; 'I' for Inactive)
REMARK    1  A    between atoms: C2_2  and  C3_3 
REMARK    2  A    between atoms: C4_6  and  C5_7 
REMARK       I    between atoms: C5_7  and  N2_9 
REMARK    3  A    between atoms: N2_9  and  C6_10 
REMARK    4  A    between atoms: C6_10  and  C7_11 
REMARK    5  A    between atoms: C6_10  and  C8_13 
REMARK       I    between atoms: C7_11  and  N3_14 
REMARK    6  A    between atoms: N3_14  and  C9_15 
REMARK    7  A    between atoms: C9_15  and  C10_16 
REMARK    8  A    between atoms: C9_15  and  C11_18 
REMARK       I    between atoms: C10_16  and  N4_21 
REMARK    9  A    between atoms: C11_18  and  C12_19 
REMARK   10  A    between atoms: C11_18  and  C13_20 
REMARK   11  A    between atoms: N4_21  and  C14_22 
REMARK   12  A    between atoms: C14_22  and  C15_23 
REMARK   13  A    between atoms: C14_22  and  C16_25 
REMARK       I    between atoms: C15_23  and  N6_40 
REMARK   14  A    between atoms: C16_25  and  C17_26 
REMARK   15  A    between atoms: C17_26  and  C18_27 
REMARK   16  A    between atoms: C17_26  and  C19_28 
REMARK   17  A    between atoms: C20_29  and  C21_30 
REMARK   18  A    between atoms: C20_29  and  C24_33 
REMARK   19  A    between atoms: C20_29  and  N6_40 
REMARK   20  A    between atoms: C21_30  and  C22_31 
REMARK   21  A    between atoms: C22_31  and  C23_32 
REMARK   22  A    between atoms: C23_32  and  O8_43 
REMARK   23  A    between atoms: C24_33  and  C25_34 
REMARK   24  A    between atoms: C28_38  and  O6_39 
REMARK   25  A    between atoms: C29_42  and  O8_43 
REMARK   26  A    between atoms: C29_42  and  C35_49 
ROOT
ATOM      1  C14 non d ame      -6.952  11.840  67.371  0.00  0.00     0.089 C 
ATOM      2  H20 non d ame      -5.911  11.790  67.049  0.00  0.00     0.087 H 
ENDROOT
BRANCH   1   3
ATOM      3  N4  non d ame      -7.783  11.547  66.213  0.00  0.00    -0.346 N 
ATOM      4  C10 non d ame      -7.398  10.446  65.258  0.00  0.00     0.241 C 
ATOM      5  O4  non d ame      -6.412   9.811  65.440  0.00  0.00    -0.271 OA
ATOM      6  H19 non d ame      -8.617  12.100  66.075  0.00  0.00     0.163 HD
BRANCH   4   7
ATOM      7  C9  non d ame      -8.273  10.152  64.068  0.00  0.00     0.092 C 
ATOM      8  H11 non d ame      -8.799   9.212  64.233  0.00  0.00     0.088 H 
BRANCH   7   9
ATOM      9  N3  non d ame      -9.289  11.200  63.938  0.00  0.00    -0.346 N 
ATOM     10  C7  non d ame     -10.486  11.147  64.742  0.00  0.00     0.240 C 
ATOM     11  O3  non d ame     -10.647  10.268  65.497  0.00  0.00    -0.271 OA
ATOM     12  H10 non d ame      -9.165  11.964  63.289  0.00  0.00     0.163 HD
BRANCH  10  13
ATOM     13  C6  non d ame     -11.566  12.265  64.597  0.00  0.00     0.086 C 
ATOM     14  H6  non d ame     -12.374  12.166  65.320  0.00  0.00     0.086 H 
BRANCH  13  15
ATOM     15  N2  non d ame     -10.944  13.555  64.842  0.00  0.00    -0.343 N 
ATOM     16  C5  non d ame     -11.268  14.291  66.066  0.00  0.00     0.273 C 
ATOM     17  O2  non d ame     -12.032  13.838  66.845  0.00  0.00    -0.266 OA
ATOM     18  H5  non d ame     -10.295  13.937  64.169  0.00  0.00     0.163 HD
BRANCH  16  19
ATOM     19  C4  non d ame     -10.617  15.656  66.338  0.00  0.00     0.154 A 
ATOM     20  C1  non d ame     -10.522  16.333  67.596  0.00  0.00    -0.017 A 
ATOM     21  C2  non d ame      -9.841  17.537  67.310  0.00  0.00     0.077 A 
ATOM     22  H1  non d ame     -10.890  16.001  68.567  0.00  0.00     0.091 H 
ATOM     23  O1  non d ame      -9.579  17.541  66.035  0.00  0.00    -0.218 OA
ATOM     24  N1  non d ame     -10.023  16.454  65.447  0.00  0.00    -0.123 NA
BRANCH  21  25
ATOM     25  C3  non d ame      -9.479  18.628  68.309  0.00  0.00    -0.029 C 
ATOM     26  H2  non d ame      -9.837  18.347  69.300  0.00  0.00     0.036 H 
ATOM     27  H3  non d ame      -8.396  18.752  68.335  0.00  0.00     0.036 H 
ATOM     28  H4  non d ame      -9.944  19.567  68.008  0.00  0.00     0.036 H 
ENDBRANCH  21  25
ENDBRANCH  16  19
ENDBRANCH  13  15
BRANCH  13  29
ATOM     29  C8  non d ame     -12.148  12.227  63.207  0.00  0.00    -0.049 C 
ATOM     30  H7  non d ame     -11.343  12.278  62.474  0.00  0.00     0.030 H 
ATOM     31  H8  non d ame     -12.705  11.300  63.071  0.00  0.00     0.030 H 
ATOM     32  H9  non d ame     -12.817  13.077  63.070  0.00  0.00     0.030 H 
ENDBRANCH  13  29
ENDBRANCH  10  13
ENDBRANCH   7   9
BRANCH   7  33
ATOM     33  C11 non d ame      -7.401  10.116  62.779  0.00  0.00    -0.033 C 
ATOM     34  H12 non d ame      -6.421  10.521  63.033  0.00  0.00     0.042 H 
BRANCH  33  35
ATOM     35  C12 non d ame      -7.188   8.654  62.277  0.00  0.00    -0.071 C 
ATOM     36  H13 non d ame      -6.689   8.672  61.308  0.00  0.00     0.028 H 
ATOM     37  H14 non d ame      -6.571   8.111  62.993  0.00  0.00     0.028 H 
ATOM     38  H15 non d ame      -8.153   8.159  62.180  0.00  0.00     0.028 H 
ENDBRANCH  33  35
BRANCH  33  39
ATOM     39  C13 non d ame      -8.019  11.014  61.660  0.00  0.00    -0.071 C 
ATOM     40  H16 non d ame      -9.025  11.316  61.951  0.00  0.00     0.028 H 
ATOM     41  H17 non d ame      -7.400  11.901  61.522  0.00  0.00     0.028 H 
ATOM     42  H18 non d ame      -8.063  10.453  60.727  0.00  0.00     0.028 H 
ENDBRANCH  33  39
ENDBRANCH   7  33
ENDBRANCH   4   7
ENDBRANCH   1   3
BRANCH   1  43
ATOM     43  C15 non d ame      -7.272  10.804  68.486  0.00  0.00     0.240 C 
ATOM     44  O5  non d ame      -7.861  11.147  69.460  0.00  0.00    -0.271 OA
ATOM     45  N6  non d ame      -6.852   9.382  68.336  0.00  0.00    -0.355 N 
ATOM     46  H46 non d ame      -6.355   9.078  67.512  0.00  0.00     0.162 HD
BRANCH  45  47
ATOM     47  C20 non d ame      -7.165   8.408  69.405  0.00  0.00     0.013 C 
ATOM     48  H30 non d ame      -7.808   8.904  70.132  0.00  0.00     0.072 H 
BRANCH  47  49
ATOM     49  C21 non d ame      -5.881   7.964  70.068  0.00  0.00    -0.038 C 
ATOM     50  H31 non d ame      -5.891   6.875  70.030  0.00  0.00     0.036 H 
ATOM     51  H32 non d ame      -5.086   8.520  69.572  0.00  0.00     0.036 H 
BRANCH  49  52
ATOM     52  C22 non d ame      -5.815   8.348  71.563  0.00  0.00     0.018 C 
ATOM     53  H33 non d ame      -4.867   7.951  71.928  0.00  0.00     0.048 H 
ATOM     54  H34 non d ame      -6.007   9.421  71.601  0.00  0.00     0.048 H 
BRANCH  52  55
ATOM     55  C23 non d ame      -6.920   7.684  72.430  0.00  0.00     0.259 C 
ATOM     56  O7  non d ame      -6.834   6.542  72.746  0.00  0.00    -0.265 OA
BRANCH  55  57
ATOM     57  O8  non d ame      -8.046   8.454  72.832  0.00  0.00    -0.317 OA
BRANCH  57  58
ATOM     58  C29 non d ame      -9.228   7.682  73.060  0.00  0.00     0.052 C 
ATOM     59  H47 non d ame      -9.028   6.702  72.626  0.00  0.00     0.082 H 
ATOM     60  H48 non d ame      -9.441   7.774  74.125  0.00  0.00     0.082 H 
BRANCH  58  61
ATOM     61  C35 non d ame     -10.390   8.341  72.269  0.00  0.00    -0.034 A 
ATOM     62  C30 non d ame     -11.710   8.028  72.580  0.00  0.00    -0.075 A 
ATOM     63  C31 non d ame     -12.753   8.619  71.870  0.00  0.00    -0.082 A 
ATOM     64  H49 non d ame     -11.926   7.320  73.380  0.00  0.00     0.084 H 
ATOM     65  C32 non d ame     -12.474   9.525  70.843  0.00  0.00    -0.083 A 
ATOM     66  H50 non d ame     -13.786   8.374  72.118  0.00  0.00     0.083 H 
ATOM     67  C33 non d ame     -11.155   9.832  70.535  0.00  0.00    -0.082 A 
ATOM     68  H51 non d ame     -13.284   9.993  70.284  0.00  0.00     0.083 H 
ATOM     69  C34 non d ame     -10.109   9.245  71.243  0.00  0.00    -0.075 A 
ATOM     70  H52 non d ame     -10.940  10.537  69.731  0.00  0.00     0.083 H 
ATOM     71  H53 non d ame      -9.076   9.491  70.995  0.00  0.00     0.084 H 
ENDBRANCH  58  61
ENDBRANCH  57  58
ENDBRANCH  55  57
ENDBRANCH  52  55
ENDBRANCH  49  52
ENDBRANCH  47  49
BRANCH  47  72
ATOM     72  C24 non d ame      -7.876   7.196  68.807  0.00  0.00    -0.039 C 
ATOM     73  H35 non d ame      -7.173   6.772  68.089  0.00  0.00     0.036 H 
ATOM     74  H36 non d ame      -8.206   6.603  69.660  0.00  0.00     0.036 H 
BRANCH  72  75
ATOM     75  C25 non d ame      -9.187   7.621  67.991  0.00  0.00    -0.001 C 
ATOM     76  C26 non d ame     -10.463   6.694  68.458  0.00  0.00    -0.035 C 
ATOM     77  C27 non d ame     -11.048   6.170  67.356  0.00  0.00     0.085 C 
ATOM     78  H38 non d ame     -10.109   5.818  69.001  0.00  0.00     0.036 H 
ATOM     79  H39 non d ame     -11.244   7.322  68.887  0.00  0.00     0.036 H 
ATOM     80  N5  non d ame     -10.096   6.386  66.204  0.00  0.00    -0.049 N 
ATOM     81  H40 non d ame     -11.132   5.100  67.551  0.00  0.00     0.075 H 
ATOM     82  H41 non d ame     -11.946   6.765  67.191  0.00  0.00     0.075 H 
ATOM     83  C28 non d ame      -9.016   7.470  66.720  0.00  0.00     0.193 C 
ATOM     84  H42 non d ame      -9.623   5.507  66.054  0.00  0.00     0.280 HD
ATOM     85  H43 non d ame     -10.638   6.802  65.460  0.00  0.00     0.280 HD
ATOM     86  H44 non d ame      -9.070   8.507  66.388  0.00  0.00     0.129 H 
ATOM     87  H37 non d ame      -9.336   8.701  67.981  0.00  0.00     0.046 H 
BRANCH  83  88
ATOM     88  O6  non d ame      -7.692   7.036  66.402  0.00  0.00    -0.369 OA
ATOM     89  H45 non d ame      -7.723   6.138  66.063  0.00  0.00     0.212 HD
ENDBRANCH  83  88
ENDBRANCH  72  75
ENDBRANCH  47  72
ENDBRANCH  45  47
ENDBRANCH   1  43
BRANCH   1  90
ATOM     90  C16 non d ame      -7.270  13.241  67.868  0.00  0.00    -0.035 C 
ATOM     91  H21 non d ame      -8.072  13.601  67.224  0.00  0.00     0.037 H 
ATOM     92  H22 non d ame      -7.439  13.136  68.940  0.00  0.00     0.037 H 
BRANCH  90  93
ATOM     93  C17 non d ame      -6.087  14.248  67.705  0.00  0.00    -0.059 C 
ATOM     94  H23 non d ame      -5.636  14.072  66.728  0.00  0.00     0.038 H 
BRANCH  93  95
ATOM     95  C18 non d ame      -6.568  15.734  67.747  0.00  0.00    -0.073 C 
ATOM     96  H24 non d ame      -6.721  16.095  66.730  0.00  0.00     0.028 H 
ATOM     97  H25 non d ame      -7.506  15.797  68.299  0.00  0.00     0.028 H 
ATOM     98  H26 non d ame      -5.813  16.346  68.241  0.00  0.00     0.028 H 
ENDBRANCH  93  95
BRANCH  93  99
ATOM     99  C19 non d ame      -5.005  13.996  68.758  0.00  0.00    -0.073 C 
ATOM    100  H27 non d ame      -4.028  14.241  68.341  0.00  0.00     0.028 H 
ATOM    101  H28 non d ame      -5.195  14.621  69.631  0.00  0.00     0.028 H 
ATOM    102  H29 non d ame      -5.022  12.947  69.053  0.00  0.00     0.028 H 
ENDBRANCH  93  99
ENDBRANCH  90  93
ENDBRANCH   1  90
TORSDOF 26
ENDMDL
MODEL 19
REMARK VINA RESULT:      -5.8      2.595      6.051
REMARK  26 active torsions:
REMARK  status: ('A' for Active; 'I' for Inactive)
REMARK    1  A    between atoms: C2_2  and  C3_3 
REMARK    2  A    between atoms: C4_6  and  C5_7 
REMARK       I    between atoms: C5_7  and  N2_9 
REMARK    3  A    between atoms: N2_9  and  C6_10 
REMARK    4  A    between atoms: C6_10  and  C7_11 
REMARK    5  A    between atoms: C6_10  and  C8_13 
REMARK       I    between atoms: C7_11  and  N3_14 
REMARK    6  A    between atoms: N3_14  and  C9_15 
REMARK    7  A    between atoms: C9_15  and  C10_16 
REMARK    8  A    between atoms: C9_15  and  C11_18 
REMARK       I    between atoms: C10_16  and  N4_21 
REMARK    9  A    between atoms: C11_18  and  C12_19 
REMARK   10  A    between atoms: C11_18  and  C13_20 
REMARK   11  A    between atoms: N4_21  and  C14_22 
REMARK   12  A    between atoms: C14_22  and  C15_23 
REMARK   13  A    between atoms: C14_22  and  C16_25 
REMARK       I    between atoms: C15_23  and  N6_40 
REMARK   14  A    between atoms: C16_25  and  C17_26 
REMARK   15  A    between atoms: C17_26  and  C18_27 
REMARK   16  A    between atoms: C17_26  and  C19_28 
REMARK   17  A    between atoms: C20_29  and  C21_30 
REMARK   18  A    between atoms: C20_29  and  C24_33 
REMARK   19  A    between atoms: C20_29  and  N6_40 
REMARK   20  A    between atoms: C21_30  and  C22_31 
REMARK   21  A    between atoms: C22_31  and  C23_32 
REMARK   22  A    between atoms: C23_32  and  O8_43 
REMARK   23  A    between atoms: C24_33  and  C25_34 
REMARK   24  A    between atoms: C28_38  and  O6_39 
REMARK   25  A    between atoms: C29_42  and  O8_43 
REMARK   26  A    between atoms: C29_42  and  C35_49 
ROOT
ATOM      1  C14 non d ame      -8.230   9.863  64.922  0.00  0.00     0.089 C 
ATOM      2  H20 non d ame      -7.648  10.295  65.736  0.00  0.00     0.087 H 
ENDROOT
BRANCH   1   3
ATOM      3  N4  non d ame      -8.556   8.495  65.294  0.00  0.00    -0.346 N 
ATOM      4  C10 non d ame      -7.935   7.869  66.517  0.00  0.00     0.241 C 
ATOM      5  O4  non d ame      -7.172   8.486  67.185  0.00  0.00    -0.271 OA
ATOM      6  H19 non d ame      -9.206   7.986  64.711  0.00  0.00     0.163 HD
BRANCH   4   7
ATOM      7  C9  non d ame      -8.288   6.453  66.891  0.00  0.00     0.092 C 
ATOM      8  H11 non d ame      -7.468   5.793  66.608  0.00  0.00     0.088 H 
BRANCH   7   9
ATOM      9  N3  non d ame      -8.442   6.355  68.346  0.00  0.00    -0.346 N 
ATOM     10  C7  non d ame      -7.846   5.254  69.060  0.00  0.00     0.240 C 
ATOM     11  O3  non d ame      -7.240   4.437  68.481  0.00  0.00    -0.271 OA
ATOM     12  H10 non d ame      -8.963   7.052  68.859  0.00  0.00     0.163 HD
BRANCH  10  13
ATOM     13  C6  non d ame      -8.016   5.153  70.608  0.00  0.00     0.086 C 
ATOM     14  H6  non d ame      -7.327   5.800  71.151  0.00  0.00     0.086 H 
BRANCH  13  15
ATOM     15  N2  non d ame      -9.358   5.582  70.964  0.00  0.00    -0.343 N 
ATOM     16  C5  non d ame      -9.612   6.997  71.247  0.00  0.00     0.273 C 
ATOM     17  O2  non d ame      -8.729   7.780  71.189  0.00  0.00    -0.266 OA
ATOM     18  H5  non d ame     -10.106   4.905  71.014  0.00  0.00     0.163 HD
BRANCH  16  19
ATOM     19  C4  non d ame     -11.026   7.465  71.623  0.00  0.00     0.154 A 
ATOM     20  C1  non d ame     -12.265   6.996  71.080  0.00  0.00    -0.017 A 
ATOM     21  C2  non d ame     -13.261   7.738  71.755  0.00  0.00     0.077 A 
ATOM     22  H1  non d ame     -12.418   6.235  70.315  0.00  0.00     0.091 H 
ATOM     23  O1  non d ame     -12.655   8.535  72.585  0.00  0.00    -0.218 OA
ATOM     24  N1  non d ame     -11.350   8.394  72.527  0.00  0.00    -0.123 NA
BRANCH  21  25
ATOM     25  C3  non d ame     -14.765   7.624  71.547  0.00  0.00    -0.029 C 
ATOM     26  H2  non d ame     -15.284   8.066  72.398  0.00  0.00     0.036 H 
ATOM     27  H3  non d ame     -15.047   8.151  70.636  0.00  0.00     0.036 H 
ATOM     28  H4  non d ame     -15.042   6.573  71.458  0.00  0.00     0.036 H 
ENDBRANCH  21  25
ENDBRANCH  16  19
ENDBRANCH  13  15
BRANCH  13  29
ATOM     29  C8  non d ame      -7.795   3.728  71.049  0.00  0.00    -0.049 C 
ATOM     30  H7  non d ame      -6.805   3.400  70.735  0.00  0.00     0.030 H 
ATOM     31  H8  non d ame      -7.871   3.668  72.135  0.00  0.00     0.030 H 
ATOM     32  H9  non d ame      -8.550   3.087  70.596  0.00  0.00     0.030 H 
ENDBRANCH  13  29
ENDBRANCH  10  13
ENDBRANCH   7   9
BRANCH   7  33
ATOM     33  C11 non d ame      -9.626   6.054  66.202  0.00  0.00    -0.033 C 
ATOM     34  H12 non d ame      -9.733   6.671  65.310  0.00  0.00     0.042 H 
BRANCH  33  35
ATOM     35  C12 non d ame      -9.606   4.563  65.742  0.00  0.00    -0.071 C 
ATOM     36  H13 non d ame      -8.976   3.983  66.417  0.00  0.00     0.028 H 
ATOM     37  H14 non d ame     -10.620   4.164  65.760  0.00  0.00     0.028 H 
ATOM     38  H15 non d ame      -9.208   4.501  64.730  0.00  0.00     0.028 H 
ENDBRANCH  33  35
BRANCH  33  39
ATOM     39  C13 non d ame     -10.844   6.341  67.138  0.00  0.00    -0.071 C 
ATOM     40  H16 non d ame     -11.422   7.174  66.737  0.00  0.00     0.028 H 
ATOM     41  H17 non d ame     -11.476   5.455  67.194  0.00  0.00     0.028 H 
ATOM     42  H18 non d ame     -10.484   6.595  68.135  0.00  0.00     0.028 H 
ENDBRANCH  33  39
ENDBRANCH   7  33
ENDBRANCH   4   7
ENDBRANCH   1   3
BRANCH   1  43
ATOM     43  C15 non d ame      -9.555  10.638  64.672  0.00  0.00     0.240 C 
ATOM     44  O5  non d ame     -10.235  10.361  63.738  0.00  0.00    -0.271 OA
ATOM     45  N6  non d ame      -9.982  11.721  65.604  0.00  0.00    -0.355 N 
ATOM     46  H46 non d ame      -9.415  11.962  66.404  0.00  0.00     0.162 HD
BRANCH  45  47
ATOM     47  C20 non d ame     -11.246  12.447  65.354  0.00  0.00     0.013 C 
ATOM     48  H30 non d ame     -11.848  11.847  64.672  0.00  0.00     0.072 H 
BRANCH  47  49
ATOM     49  C21 non d ame     -10.936  13.787  64.725  0.00  0.00    -0.038 C 
ATOM     50  H31 non d ame      -9.943  13.684  64.286  0.00  0.00     0.036 H 
ATOM     51  H32 non d ame     -11.791  14.019  64.091  0.00  0.00     0.036 H 
BRANCH  49  52
ATOM     52  C22 non d ame     -10.838  14.927  65.762  0.00  0.00     0.018 C 
ATOM     53  H33 non d ame     -11.814  14.970  66.246  0.00  0.00     0.048 H 
ATOM     54  H34 non d ame      -9.946  14.715  66.351  0.00  0.00     0.048 H 
BRANCH  52  55
ATOM     55  C23 non d ame     -10.612  16.329  65.131  0.00  0.00     0.259 C 
ATOM     56  O7  non d ame     -11.372  16.758  64.325  0.00  0.00    -0.265 OA
BRANCH  55  57
ATOM     57  O8  non d ame      -9.476  17.092  65.519  0.00  0.00    -0.317 OA
BRANCH  57  58
ATOM     58  C29 non d ame      -9.734  18.030  66.568  0.00  0.00     0.052 C 
ATOM     59  H47 non d ame     -10.178  18.900  66.083  0.00  0.00     0.082 H 
ATOM     60  H48 non d ame     -10.297  17.481  67.323  0.00  0.00     0.082 H 
BRANCH  58  61
ATOM     61  C35 non d ame      -8.372  18.452  67.180  0.00  0.00    -0.034 A 
ATOM     62  C30 non d ame      -8.337  19.255  68.315  0.00  0.00    -0.075 A 
ATOM     63  C31 non d ame      -7.114  19.634  68.865  0.00  0.00    -0.082 A 
ATOM     64  H49 non d ame      -9.269  19.587  68.774  0.00  0.00     0.084 H 
ATOM     65  C32 non d ame      -5.921  19.209  68.274  0.00  0.00    -0.083 A 
ATOM     66  H50 non d ame      -7.090  20.262  69.756  0.00  0.00     0.083 H 
ATOM     67  C33 non d ame      -5.961  18.410  67.140  0.00  0.00    -0.082 A 
ATOM     68  H51 non d ame      -4.960  19.500  68.698  0.00  0.00     0.083 H 
ATOM     69  C34 non d ame      -7.181  18.027  66.588  0.00  0.00    -0.075 A 
ATOM     70  H52 non d ame      -5.028  18.081  66.679  0.00  0.00     0.083 H 
ATOM     71  H53 non d ame      -7.204  17.398  65.697  0.00  0.00     0.084 H 
ENDBRANCH  58  61
ENDBRANCH  57  58
ENDBRANCH  55  57
ENDBRANCH  52  55
ENDBRANCH  49  52
ENDBRANCH  47  49
BRANCH  47  72
ATOM     72  C24 non d ame     -11.988  12.661  66.671  0.00  0.00    -0.039 C 
ATOM     73  H35 non d ame     -12.124  13.740  66.755  0.00  0.00     0.036 H 
ATOM     74  H36 non d ame     -12.857  12.005  66.624  0.00  0.00     0.036 H 
BRANCH  72  75
ATOM     75  C25 non d ame     -11.111  12.196  67.928  0.00  0.00    -0.001 C 
ATOM     76  C26 non d ame     -11.526  10.666  68.365  0.00  0.00    -0.035 C 
ATOM     77  C27 non d ame     -11.791  10.649  69.694  0.00  0.00     0.085 C 
ATOM     78  H38 non d ame     -12.478  10.393  67.912  0.00  0.00     0.036 H 
ATOM     79  H39 non d ame     -10.666  10.004  68.268  0.00  0.00     0.036 H 
ATOM     80  N5  non d ame     -11.913  12.086  70.138  0.00  0.00    -0.049 N 
ATOM     81  H40 non d ame     -12.762  10.163  69.791  0.00  0.00     0.075 H 
ATOM     82  H41 non d ame     -10.911  10.207  70.160  0.00  0.00     0.075 H 
ATOM     83  C28 non d ame     -11.295  12.976  68.941  0.00  0.00     0.193 C 
ATOM     84  H42 non d ame     -12.902  12.282  70.207  0.00  0.00     0.280 HD
ATOM     85  H43 non d ame     -11.321  12.186  70.951  0.00  0.00     0.280 HD
ATOM     86  H44 non d ame     -10.303  13.418  69.034  0.00  0.00     0.129 H 
ATOM     87  H37 non d ame     -10.049  12.402  67.789  0.00  0.00     0.046 H 
BRANCH  83  88
ATOM     88  O6  non d ame     -12.170  14.062  68.632  0.00  0.00    -0.369 OA
ATOM     89  H45 non d ame     -12.420  14.019  67.707  0.00  0.00     0.212 HD
ENDBRANCH  83  88
ENDBRANCH  72  75
ENDBRANCH  47  72
ENDBRANCH  45  47
ENDBRANCH   1  43
BRANCH   1  90
ATOM     90  C16 non d ame      -7.400   9.846  63.648  0.00  0.00    -0.035 C 
ATOM     91  H21 non d ame      -7.889   9.124  62.994  0.00  0.00     0.037 H 
ATOM     92  H22 non d ame      -7.318  10.890  63.343  0.00  0.00     0.037 H 
BRANCH  90  93
ATOM     93  C17 non d ame      -5.940   9.332  63.859  0.00  0.00    -0.059 C 
ATOM     94  H23 non d ame      -5.905   8.822  64.821  0.00  0.00     0.038 H 
BRANCH  93  95
ATOM     95  C18 non d ame      -5.513   8.307  62.760  0.00  0.00    -0.073 C 
ATOM     96  H24 non d ame      -6.357   8.109  62.100  0.00  0.00     0.028 H 
ATOM     97  H25 non d ame      -4.686   8.719  62.180  0.00  0.00     0.028 H 
ATOM     98  H26 non d ame      -5.196   7.378  63.234  0.00  0.00     0.028 H 
ENDBRANCH  93  95
BRANCH  93  99
ATOM     99  C19 non d ame      -4.953  10.500  63.927  0.00  0.00    -0.073 C 
ATOM    100  H27 non d ame      -5.504  11.441  63.941  0.00  0.00     0.028 H 
ATOM    101  H28 non d ame      -4.353  10.416  64.833  0.00  0.00     0.028 H 
ATOM    102  H29 non d ame      -4.300  10.475  63.055  0.00  0.00     0.028 H 
ENDBRANCH  93  99
ENDBRANCH  90  93
ENDBRANCH   1  90
TORSDOF 26
ENDMDL
MODEL 20
REMARK VINA RESULT:      -5.7      2.822      9.023
REMARK  26 active torsions:
REMARK  status: ('A' for Active; 'I' for Inactive)
REMARK    1  A    between atoms: C2_2  and  C3_3 
REMARK    2  A    between atoms: C4_6  and  C5_7 
REMARK       I    between atoms: C5_7  and  N2_9 
REMARK    3  A    between atoms: N2_9  and  C6_10 
REMARK    4  A    between atoms: C6_10  and  C7_11 
REMARK    5  A    between atoms: C6_10  and  C8_13 
REMARK       I    between atoms: C7_11  and  N3_14 
REMARK    6  A    between atoms: N3_14  and  C9_15 
REMARK    7  A    between atoms: C9_15  and  C10_16 
REMARK    8  A    between atoms: C9_15  and  C11_18 
REMARK       I    between atoms: C10_16  and  N4_21 
REMARK    9  A    between atoms: C11_18  and  C12_19 
REMARK   10  A    between atoms: C11_18  and  C13_20 
REMARK   11  A    between atoms: N4_21  and  C14_22 
REMARK   12  A    between atoms: C14_22  and  C15_23 
REMARK   13  A    between atoms: C14_22  and  C16_25 
REMARK       I    between atoms: C15_23  and  N6_40 
REMARK   14  A    between atoms: C16_25  and  C17_26 
REMARK   15  A    between atoms: C17_26  and  C18_27 
REMARK   16  A    between atoms: C17_26  and  C19_28 
REMARK   17  A    between atoms: C20_29  and  C21_30 
REMARK   18  A    between atoms: C20_29  and  C24_33 
REMARK   19  A    between atoms: C20_29  and  N6_40 
REMARK   20  A    between atoms: C21_30  and  C22_31 
REMARK   21  A    between atoms: C22_31  and  C23_32 
REMARK   22  A    between atoms: C23_32  and  O8_43 
REMARK   23  A    between atoms: C24_33  and  C25_34 
REMARK   24  A    between atoms: C28_38  and  O6_39 
REMARK   25  A    between atoms: C29_42  and  O8_43 
REMARK   26  A    between atoms: C29_42  and  C35_49 
ROOT
ATOM      1  C14 non d ame      -9.115   6.645  67.174  0.00  0.00     0.089 C 
ATOM      2  H20 non d ame     -10.165   6.511  66.911  0.00  0.00     0.087 H 
ENDROOT
BRANCH   1   3
ATOM      3  N4  non d ame      -8.696   7.940  66.659  0.00  0.00    -0.346 N 
ATOM      4  C10 non d ame      -9.624   9.126  66.732  0.00  0.00     0.241 C 
ATOM      5  O4  non d ame     -10.705   9.014  67.209  0.00  0.00    -0.271 OA
ATOM      6  H19 non d ame      -7.773   8.014  66.255  0.00  0.00     0.163 HD
BRANCH   4   7
ATOM      7  C9  non d ame      -9.171  10.460  66.199  0.00  0.00     0.092 C 
ATOM      8  H11 non d ame      -8.854  10.342  65.163  0.00  0.00     0.088 H 
BRANCH   7   9
ATOM      9  N3  non d ame     -10.299  11.397  66.203  0.00  0.00    -0.346 N 
ATOM     10  C7  non d ame     -10.696  12.052  64.981  0.00  0.00     0.240 C 
ATOM     11  O3  non d ame     -10.118  11.838  63.986  0.00  0.00    -0.271 OA
ATOM     12  H10 non d ame     -10.806  11.592  67.054  0.00  0.00     0.163 HD
BRANCH  10  13
ATOM     13  C6  non d ame     -11.895  13.050  64.992  0.00  0.00     0.086 C 
ATOM     14  H6  non d ame     -12.740  12.687  65.575  0.00  0.00     0.086 H 
BRANCH  13  15
ATOM     15  N2  non d ame     -11.467  14.294  65.611  0.00  0.00    -0.343 N 
ATOM     16  C5  non d ame     -11.515  14.428  67.069  0.00  0.00     0.273 C 
ATOM     17  O2  non d ame     -11.902  13.531  67.734  0.00  0.00    -0.266 OA
ATOM     18  H5  non d ame     -11.140  15.056  65.034  0.00  0.00     0.163 HD
BRANCH  16  19
ATOM     19  C4  non d ame     -11.064  15.736  67.736  0.00  0.00     0.154 A 
ATOM     20  C1  non d ame     -10.072  16.652  67.262  0.00  0.00    -0.017 A 
ATOM     21  C2  non d ame     -10.036  17.682  68.229  0.00  0.00     0.077 A 
ATOM     22  H1  non d ame      -9.471  16.581  66.355  0.00  0.00     0.091 H 
ATOM     23  O1  non d ame     -10.909  17.383  69.146  0.00  0.00    -0.218 OA
ATOM     24  N1  non d ame     -11.522  16.252  68.881  0.00  0.00    -0.123 NA
BRANCH  21  25
ATOM     25  C3  non d ame      -9.140  18.913  68.202  0.00  0.00    -0.029 C 
ATOM     26  H2  non d ame      -9.666  19.756  68.651  0.00  0.00     0.036 H 
ATOM     27  H3  non d ame      -8.229  18.712  68.765  0.00  0.00     0.036 H 
ATOM     28  H4  non d ame      -8.883  19.153  67.169  0.00  0.00     0.036 H 
ENDBRANCH  21  25
ENDBRANCH  16  19
ENDBRANCH  13  15
BRANCH  13  29
ATOM     29  C8  non d ame     -12.352  13.307  63.579  0.00  0.00    -0.049 C 
ATOM     30  H7  non d ame     -11.860  12.606  62.904  0.00  0.00     0.030 H 
ATOM     31  H8  non d ame     -13.432  13.175  63.516  0.00  0.00     0.030 H 
ATOM     32  H9  non d ame     -12.093  14.326  63.293  0.00  0.00     0.030 H 
ENDBRANCH  13  29
ENDBRANCH  10  13
ENDBRANCH   7   9
BRANCH   7  33
ATOM     33  C11 non d ame      -8.032  11.020  67.100  0.00  0.00    -0.033 C 
ATOM     34  H12 non d ame      -7.922  10.344  67.949  0.00  0.00     0.042 H 
BRANCH  33  35
ATOM     35  C12 non d ame      -6.668  11.046  66.343  0.00  0.00    -0.071 C 
ATOM     36  H13 non d ame      -6.420  10.039  66.007  0.00  0.00     0.028 H 
ATOM     37  H14 non d ame      -6.745  11.708  65.480  0.00  0.00     0.028 H 
ATOM     38  H15 non d ame      -5.889  11.410  67.011  0.00  0.00     0.028 H 
ENDBRANCH  33  35
BRANCH  33  39
ATOM     39  C13 non d ame      -8.401  12.434  67.654  0.00  0.00    -0.071 C 
ATOM     40  H16 non d ame      -9.238  12.839  67.087  0.00  0.00     0.028 H 
ATOM     41  H17 non d ame      -8.679  12.352  68.705  0.00  0.00     0.028 H 
ATOM     42  H18 non d ame      -7.541  13.097  67.556  0.00  0.00     0.028 H 
ENDBRANCH  33  39
ENDBRANCH   7  33
ENDBRANCH   4   7
ENDBRANCH   1   3
BRANCH   1  43
ATOM     43  C15 non d ame      -8.888   6.628  68.713  0.00  0.00     0.240 C 
ATOM     44  O5  non d ame      -7.795   6.457  69.148  0.00  0.00    -0.271 OA
ATOM     45  N6  non d ame     -10.033   6.833  69.646  0.00  0.00    -0.355 N 
ATOM     46  H46 non d ame     -10.965   6.984  69.288  0.00  0.00     0.162 HD
BRANCH  45  47
ATOM     47  C20 non d ame      -9.801   6.815  71.106  0.00  0.00     0.013 C 
ATOM     48  H30 non d ame      -8.726   6.745  71.274  0.00  0.00     0.072 H 
BRANCH  47  49
ATOM     49  C21 non d ame     -10.498   5.616  71.708  0.00  0.00    -0.038 C 
ATOM     50  H31 non d ame     -10.144   5.555  72.738  0.00  0.00     0.036 H 
ATOM     51  H32 non d ame     -11.559   5.760  71.504  0.00  0.00     0.036 H 
BRANCH  49  52
ATOM     52  C22 non d ame     -10.098   4.288  71.030  0.00  0.00     0.018 C 
ATOM     53  H33 non d ame     -10.807   3.544  71.396  0.00  0.00     0.048 H 
ATOM     54  H34 non d ame     -10.041   4.506  69.964  0.00  0.00     0.048 H 
BRANCH  52  55
ATOM     55  C23 non d ame      -8.690   3.774  71.439  0.00  0.00     0.259 C 
ATOM     56  O7  non d ame      -7.870   3.539  70.612  0.00  0.00    -0.265 OA
BRANCH  55  57
ATOM     57  O8  non d ame      -8.393   3.576  72.816  0.00  0.00    -0.317 OA
BRANCH  57  58
ATOM     58  C29 non d ame      -7.120   4.090  73.217  0.00  0.00     0.052 C 
ATOM     59  H47 non d ame      -6.848   3.536  74.116  0.00  0.00     0.082 H 
ATOM     60  H48 non d ame      -6.487   4.035  72.331  0.00  0.00     0.082 H 
BRANCH  58  61
ATOM     61  C35 non d ame      -7.303   5.583  73.596  0.00  0.00    -0.034 A 
ATOM     62  C30 non d ame      -8.213   5.944  74.585  0.00  0.00    -0.075 A 
ATOM     63  C31 non d ame      -8.378   7.286  74.926  0.00  0.00    -0.082 A 
ATOM     64  H49 non d ame      -8.795   5.176  75.094  0.00  0.00     0.084 H 
ATOM     65  C32 non d ame      -7.631   8.269  74.272  0.00  0.00    -0.083 A 
ATOM     66  H50 non d ame      -9.090   7.565  75.703  0.00  0.00     0.083 H 
ATOM     67  C33 non d ame      -6.727   7.905  73.283  0.00  0.00    -0.082 A 
ATOM     68  H51 non d ame      -7.754   9.320  74.533  0.00  0.00     0.083 H 
ATOM     69  C34 non d ame      -6.557   6.565  72.941  0.00  0.00    -0.075 A 
ATOM     70  H52 non d ame      -6.148   8.675  72.773  0.00  0.00     0.083 H 
ATOM     71  H53 non d ame      -5.845   6.286  72.164  0.00  0.00     0.084 H 
ENDBRANCH  58  61
ENDBRANCH  57  58
ENDBRANCH  55  57
ENDBRANCH  52  55
ENDBRANCH  49  52
ENDBRANCH  47  49
BRANCH  47  72
ATOM     72  C24 non d ame     -10.353   8.094  71.733  0.00  0.00    -0.039 C 
ATOM     73  H35 non d ame     -10.720   7.800  72.716  0.00  0.00     0.036 H 
ATOM     74  H36 non d ame      -9.552   8.828  71.647  0.00  0.00     0.036 H 
BRANCH  72  75
ATOM     75  C25 non d ame     -11.606   8.663  70.912  0.00  0.00    -0.001 C 
ATOM     76  C26 non d ame     -11.275  10.178  70.364  0.00  0.00    -0.035 C 
ATOM     77  C27 non d ame     -12.288  11.002  70.721  0.00  0.00     0.085 C 
ATOM     78  H38 non d ame     -10.415  10.587  70.893  0.00  0.00     0.036 H 
ATOM     79  H39 non d ame     -11.304  10.196  69.274  0.00  0.00     0.036 H 
ATOM     80  N5  non d ame     -13.120  10.263  71.742  0.00  0.00    -0.049 N 
ATOM     81  H40 non d ame     -11.812  11.857  71.203  0.00  0.00     0.075 H 
ATOM     82  H41 non d ame     -12.880  11.145  69.818  0.00  0.00     0.075 H 
ATOM     83  C28 non d ame     -12.663   8.717  71.651  0.00  0.00     0.193 C 
ATOM     84  H42 non d ame     -12.852  10.625  72.646  0.00  0.00     0.280 HD
ATOM     85  H43 non d ame     -14.079  10.333  71.434  0.00  0.00     0.280 HD
ATOM     86  H44 non d ame     -13.293   7.982  71.150  0.00  0.00     0.129 H 
ATOM     87  H37 non d ame     -11.984   7.944  70.185  0.00  0.00     0.046 H 
BRANCH  83  88
ATOM     88  O6  non d ame     -12.433   8.193  72.960  0.00  0.00    -0.369 OA
ATOM     89  H45 non d ame     -13.265   7.898  73.337  0.00  0.00     0.212 HD
ENDBRANCH  83  88
ENDBRANCH  72  75
ENDBRANCH  47  72
ENDBRANCH  45  47
ENDBRANCH   1  43
BRANCH   1  90
ATOM     90  C16 non d ame      -8.278   5.557  66.522  0.00  0.00    -0.035 C 
ATOM     91  H21 non d ame      -7.933   5.983  65.580  0.00  0.00     0.037 H 
ATOM     92  H22 non d ame      -7.555   5.255  67.280  0.00  0.00     0.037 H 
BRANCH  90  93
ATOM     93  C17 non d ame      -9.093   4.276  66.154  0.00  0.00    -0.059 C 
ATOM     94  H23 non d ame      -8.606   3.809  65.298  0.00  0.00     0.038 H 
BRANCH  93  95
ATOM     95  C18 non d ame      -9.111   3.234  67.318  0.00  0.00    -0.073 C 
ATOM     96  H24 non d ame      -9.412   3.728  68.242  0.00  0.00     0.028 H 
ATOM     97  H25 non d ame      -9.819   2.439  67.083  0.00  0.00     0.028 H 
ATOM     98  H26 non d ame      -8.115   2.809  67.441  0.00  0.00     0.028 H 
ENDBRANCH  93  95
BRANCH  93  99
ATOM     99  C19 non d ame     -10.517   4.638  65.725  0.00  0.00    -0.073 C 
ATOM    100  H27 non d ame     -11.182   3.798  65.927  0.00  0.00     0.028 H 
ATOM    101  H28 non d ame     -10.853   5.511  66.284  0.00  0.00     0.028 H 
ATOM    102  H29 non d ame     -10.529   4.864  64.659  0.00  0.00     0.028 H 
ENDBRANCH  93  99
ENDBRANCH  90  93
ENDBRANCH   1  90
TORSDOF 26
ENDMDL
