MODEL 1
REMARK VINA RESULT:      -7.7      0.000      0.000
REMARK  26 active torsions:
REMARK  status: ('A' for Active; 'I' for Inactive)
REMARK    1  A    between atoms: C2_2  and  C3_3 
REMARK    2  A    between atoms: C4_6  and  C5_7 
REMARK       I    between atoms: C5_7  and  N2_9 
REMARK    3  A    between atoms: N2_9  and  C6_10 
REMARK    4  A    between atoms: C6_10  and  C7_11 
REMARK    5  A    between atoms: C6_10  and  C8_13 
REMARK       I    between atoms: C7_11  and  N3_14 
REMARK    6  A    between atoms: N3_14  and  C9_15 
REMARK    7  A    between atoms: C9_15  and  C10_16 
REMARK    8  A    between atoms: C9_15  and  C11_18 
REMARK       I    between atoms: C10_16  and  N4_21 
REMARK    9  A    between atoms: C11_18  and  C12_19 
REMARK   10  A    between atoms: C11_18  and  C13_20 
REMARK   11  A    between atoms: N4_21  and  C14_22 
REMARK   12  A    between atoms: C14_22  and  C15_23 
REMARK   13  A    between atoms: C14_22  and  C16_25 
REMARK       I    between atoms: C15_23  and  N6_40 
REMARK   14  A    between atoms: C16_25  and  C17_26 
REMARK   15  A    between atoms: C17_26  and  C18_27 
REMARK   16  A    between atoms: C17_26  and  C19_28 
REMARK   17  A    between atoms: C20_29  and  C21_30 
REMARK   18  A    between atoms: C20_29  and  C24_33 
REMARK   19  A    between atoms: C20_29  and  N6_40 
REMARK   20  A    between atoms: C21_30  and  C22_31 
REMARK   21  A    between atoms: C22_31  and  C23_32 
REMARK   22  A    between atoms: C23_32  and  O8_43 
REMARK   23  A    between atoms: C24_33  and  C25_34 
REMARK   24  A    between atoms: C28_38  and  O6_39 
REMARK   25  A    between atoms: C29_42  and  O8_43 
REMARK   26  A    between atoms: C29_42  and  C35_49 
ROOT
ATOM      1  C14 non d ame      -7.782  14.344  67.683  0.00  0.00     0.089 C 
ATOM      2  H20 non d ame      -7.498  14.814  66.741  0.00  0.00     0.087 H 
ENDROOT
BRANCH   1   3
ATOM      3  N4  non d ame      -8.784  15.192  68.312  0.00  0.00    -0.346 N 
ATOM      4  C10 non d ame      -9.473  16.274  67.518  0.00  0.00     0.241 C 
ATOM      5  O4  non d ame      -9.202  16.445  66.375  0.00  0.00    -0.271 OA
ATOM      6  H19 non d ame      -8.998  15.033  69.286  0.00  0.00     0.163 HD
BRANCH   4   7
ATOM      7  C9  non d ame     -10.511  17.139  68.183  0.00  0.00     0.092 C 
ATOM      8  H11 non d ame     -11.376  17.230  67.525  0.00  0.00     0.088 H 
BRANCH   7   9
ATOM      9  N3  non d ame     -10.971  16.491  69.415  0.00  0.00    -0.346 N 
ATOM     10  C7  non d ame     -11.789  15.305  69.344  0.00  0.00     0.240 C 
ATOM     11  O3  non d ame     -12.088  14.860  68.304  0.00  0.00    -0.271 OA
ATOM     12  H10 non d ame     -10.722  16.865  70.320  0.00  0.00     0.163 HD
BRANCH  10  13
ATOM     13  C6  non d ame     -12.277  14.622  70.659  0.00  0.00     0.086 C 
ATOM     14  H6  non d ame     -13.352  14.721  70.812  0.00  0.00     0.086 H 
BRANCH  13  15
ATOM     15  N2  non d ame     -11.998  13.198  70.583  0.00  0.00    -0.343 N 
ATOM     16  C5  non d ame     -12.803  12.261  71.369  0.00  0.00     0.273 C 
ATOM     17  O2  non d ame     -13.672  12.664  72.062  0.00  0.00    -0.266 OA
ATOM     18  H5  non d ame     -11.251  12.863  69.990  0.00  0.00     0.163 HD
BRANCH  16  19
ATOM     19  C4  non d ame     -12.520  10.753  71.296  0.00  0.00     0.154 A 
ATOM     20  C1  non d ame     -13.341   9.693  71.798  0.00  0.00    -0.017 A 
ATOM     21  C2  non d ame     -12.640   8.509  71.481  0.00  0.00     0.077 A 
ATOM     22  H1  non d ame     -14.299   9.772  72.312  0.00  0.00     0.091 H 
ATOM     23  O1  non d ame     -11.546   8.858  70.869  0.00  0.00    -0.218 OA
ATOM     24  N1  non d ame     -11.454  10.162  70.749  0.00  0.00    -0.123 NA
BRANCH  21  25
ATOM     25  C3  non d ame     -13.083   7.087  71.797  0.00  0.00    -0.029 C 
ATOM     26  H2  non d ame     -12.226   6.506  72.139  0.00  0.00     0.036 H 
ATOM     27  H3  non d ame     -13.842   7.108  72.579  0.00  0.00     0.036 H 
ATOM     28  H4  non d ame     -13.499   6.627  70.900  0.00  0.00     0.036 H 
ENDBRANCH  21  25
ENDBRANCH  16  19
ENDBRANCH  13  15
BRANCH  13  29
ATOM     29  C8  non d ame     -11.560  15.227  71.839  0.00  0.00    -0.049 C 
ATOM     30  H7  non d ame     -11.306  16.263  71.618  0.00  0.00     0.030 H 
ATOM     31  H8  non d ame     -12.207  15.190  72.716  0.00  0.00     0.030 H 
ATOM     32  H9  non d ame     -10.648  14.664  72.036  0.00  0.00     0.030 H 
ENDBRANCH  13  29
ENDBRANCH  10  13
ENDBRANCH   7   9
BRANCH   7  33
ATOM     33  C11 non d ame      -9.889  18.523  68.529  0.00  0.00    -0.033 C 
ATOM     34  H12 non d ame     -10.244  18.805  69.520  0.00  0.00     0.042 H 
BRANCH  33  35
ATOM     35  C12 non d ame      -8.332  18.446  68.593  0.00  0.00    -0.071 C 
ATOM     36  H13 non d ame      -7.929  18.382  67.582  0.00  0.00     0.028 H 
ATOM     37  H14 non d ame      -7.944  19.340  69.082  0.00  0.00     0.028 H 
ATOM     38  H15 non d ame      -8.035  17.564  69.159  0.00  0.00     0.028 H 
ENDBRANCH  33  35
BRANCH  33  39
ATOM     39  C13 non d ame     -10.361  19.617  67.517  0.00  0.00    -0.071 C 
ATOM     40  H16 non d ame     -11.443  19.566  67.406  0.00  0.00     0.028 H 
ATOM     41  H17 non d ame     -10.080  20.602  67.890  0.00  0.00     0.028 H 
ATOM     42  H18 non d ame      -9.887  19.446  66.551  0.00  0.00     0.028 H 
ENDBRANCH  33  39
ENDBRANCH   7  33
ENDBRANCH   4   7
ENDBRANCH   1   3
BRANCH   1  43
ATOM     43  C15 non d ame      -8.392  12.929  67.473  0.00  0.00     0.240 C 
ATOM     44  O5  non d ame      -9.063  12.442  68.325  0.00  0.00    -0.271 OA
ATOM     45  N6  non d ame      -8.148  12.184  66.205  0.00  0.00    -0.355 N 
ATOM     46  H46 non d ame      -7.584  12.589  65.473  0.00  0.00     0.162 HD
BRANCH  45  47
ATOM     47  C20 non d ame      -8.736  10.839  66.021  0.00  0.00     0.013 C 
ATOM     48  H30 non d ame      -8.879  10.397  67.006  0.00  0.00     0.072 H 
BRANCH  47  49
ATOM     49  C21 non d ame      -7.790   9.988  65.205  0.00  0.00    -0.038 C 
ATOM     50  H31 non d ame      -7.541  10.583  64.326  0.00  0.00     0.036 H 
ATOM     51  H32 non d ame      -7.004   9.678  65.894  0.00  0.00     0.036 H 
BRANCH  49  52
ATOM     52  C22 non d ame      -8.448   8.692  64.683  0.00  0.00     0.018 C 
ATOM     53  H33 non d ame      -7.959   7.877  65.216  0.00  0.00     0.048 H 
ATOM     54  H34 non d ame      -9.523   8.844  64.788  0.00  0.00     0.048 H 
BRANCH  52  55
ATOM     55  C23 non d ame      -8.199   8.427  63.172  0.00  0.00     0.259 C 
ATOM     56  O7  non d ame      -8.543   9.219  62.356  0.00  0.00    -0.265 OA
BRANCH  55  57
ATOM     57  O8  non d ame      -7.564   7.219  62.772  0.00  0.00    -0.317 OA
BRANCH  57  58
ATOM     58  C29 non d ame      -7.371   6.283  63.837  0.00  0.00     0.052 C 
ATOM     59  H47 non d ame      -6.454   5.746  63.594  0.00  0.00     0.082 H 
ATOM     60  H48 non d ame      -7.434   6.864  64.756  0.00  0.00     0.082 H 
BRANCH  58  61
ATOM     61  C35 non d ame      -8.551   5.276  63.810  0.00  0.00    -0.034 A 
ATOM     62  C30 non d ame      -9.003   4.764  62.598  0.00  0.00    -0.075 A 
ATOM     63  C31 non d ame     -10.064   3.860  62.574  0.00  0.00    -0.082 A 
ATOM     64  H49 non d ame      -8.526   5.070  61.667  0.00  0.00     0.084 H 
ATOM     65  C32 non d ame     -10.675   3.469  63.769  0.00  0.00    -0.083 A 
ATOM     66  H50 non d ame     -10.414   3.458  61.623  0.00  0.00     0.083 H 
ATOM     67  C33 non d ame     -10.223   3.986  64.975  0.00  0.00    -0.082 A 
ATOM     68  H51 non d ame     -11.505   2.762  63.759  0.00  0.00     0.083 H 
ATOM     69  C34 non d ame      -9.162   4.888  65.004  0.00  0.00    -0.075 A 
ATOM     70  H52 non d ame     -10.704   3.681  65.905  0.00  0.00     0.083 H 
ATOM     71  H53 non d ame      -8.812   5.288  65.956  0.00  0.00     0.084 H 
ENDBRANCH  58  61
ENDBRANCH  57  58
ENDBRANCH  55  57
ENDBRANCH  52  55
ENDBRANCH  49  52
ENDBRANCH  47  49
BRANCH  47  72
ATOM     72  C24 non d ame     -10.073  10.957  65.292  0.00  0.00    -0.039 C 
ATOM     73  H35 non d ame     -10.077  10.149  64.560  0.00  0.00     0.036 H 
ATOM     74  H36 non d ame     -10.830  10.984  66.077  0.00  0.00     0.036 H 
BRANCH  72  75
ATOM     75  C25 non d ame     -10.187  12.332  64.479  0.00  0.00    -0.001 C 
ATOM     76  C26 non d ame     -11.243  13.343  65.233  0.00  0.00    -0.035 C 
ATOM     77  C27 non d ame     -12.148  13.783  64.326  0.00  0.00     0.085 C 
ATOM     78  H38 non d ame     -11.848  12.785  65.947  0.00  0.00     0.036 H 
ATOM     79  H39 non d ame     -10.732  14.253  65.545  0.00  0.00     0.036 H 
ATOM     80  N5  non d ame     -12.004  12.913  63.101  0.00  0.00    -0.049 N 
ATOM     81  H40 non d ame     -13.124  13.603  64.777  0.00  0.00     0.075 H 
ATOM     82  H41 non d ame     -11.841  14.799  64.078  0.00  0.00     0.075 H 
ATOM     83  C28 non d ame     -10.603  12.130  63.274  0.00  0.00     0.193 C 
ATOM     84  H42 non d ame     -12.756  12.240  63.138  0.00  0.00     0.280 HD
ATOM     85  H43 non d ame     -11.926  13.540  62.312  0.00  0.00     0.280 HD
ATOM     86  H44 non d ame      -9.724  12.436  62.706  0.00  0.00     0.129 H 
ATOM     87  H37 non d ame      -9.210  12.740  64.220  0.00  0.00     0.046 H 
BRANCH  83  88
ATOM     88  O6  non d ame     -10.777  10.741  62.989  0.00  0.00    -0.369 OA
ATOM     89  H45 non d ame     -11.571  10.618  62.465  0.00  0.00     0.212 HD
ENDBRANCH  83  88
ENDBRANCH  72  75
ENDBRANCH  47  72
ENDBRANCH  45  47
ENDBRANCH   1  43
BRANCH   1  90
ATOM     90  C16 non d ame      -6.570  14.248  68.596  0.00  0.00    -0.035 C 
ATOM     91  H21 non d ame      -6.840  14.805  69.494  0.00  0.00     0.037 H 
ATOM     92  H22 non d ame      -6.342  13.184  68.662  0.00  0.00     0.037 H 
BRANCH  90  93
ATOM     93  C17 non d ame      -5.293  14.937  68.017  0.00  0.00    -0.059 C 
ATOM     94  H23 non d ame      -4.867  14.269  67.269  0.00  0.00     0.038 H 
BRANCH  93  95
ATOM     95  C18 non d ame      -5.623  16.292  67.312  0.00  0.00    -0.073 C 
ATOM     96  H24 non d ame      -4.934  16.446  66.482  0.00  0.00     0.028 H 
ATOM     97  H25 non d ame      -6.646  16.266  66.936  0.00  0.00     0.028 H 
ATOM     98  H26 non d ame      -5.520  17.108  68.028  0.00  0.00     0.028 H 
ENDBRANCH  93  95
BRANCH  93  99
ATOM     99  C19 non d ame      -4.236  15.134  69.107  0.00  0.00    -0.073 C 
ATOM    100  H27 non d ame      -4.026  14.177  69.586  0.00  0.00     0.028 H 
ATOM    101  H28 non d ame      -3.323  15.526  68.660  0.00  0.00     0.028 H 
ATOM    102  H29 non d ame      -4.608  15.838  69.851  0.00  0.00     0.028 H 
ENDBRANCH  93  99
ENDBRANCH  90  93
ENDBRANCH   1  90
TORSDOF 26
ENDMDL
MODEL 2
REMARK VINA RESULT:      -7.4      2.805      7.369
REMARK  26 active torsions:
REMARK  status: ('A' for Active; 'I' for Inactive)
REMARK    1  A    between atoms: C2_2  and  C3_3 
REMARK    2  A    between atoms: C4_6  and  C5_7 
REMARK       I    between atoms: C5_7  and  N2_9 
REMARK    3  A    between atoms: N2_9  and  C6_10 
REMARK    4  A    between atoms: C6_10  and  C7_11 
REMARK    5  A    between atoms: C6_10  and  C8_13 
REMARK       I    between atoms: C7_11  and  N3_14 
REMARK    6  A    between atoms: N3_14  and  C9_15 
REMARK    7  A    between atoms: C9_15  and  C10_16 
REMARK    8  A    between atoms: C9_15  and  C11_18 
REMARK       I    between atoms: C10_16  and  N4_21 
REMARK    9  A    between atoms: C11_18  and  C12_19 
REMARK   10  A    between atoms: C11_18  and  C13_20 
REMARK   11  A    between atoms: N4_21  and  C14_22 
REMARK   12  A    between atoms: C14_22  and  C15_23 
REMARK   13  A    between atoms: C14_22  and  C16_25 
REMARK       I    between atoms: C15_23  and  N6_40 
REMARK   14  A    between atoms: C16_25  and  C17_26 
REMARK   15  A    between atoms: C17_26  and  C18_27 
REMARK   16  A    between atoms: C17_26  and  C19_28 
REMARK   17  A    between atoms: C20_29  and  C21_30 
REMARK   18  A    between atoms: C20_29  and  C24_33 
REMARK   19  A    between atoms: C20_29  and  N6_40 
REMARK   20  A    between atoms: C21_30  and  C22_31 
REMARK   21  A    between atoms: C22_31  and  C23_32 
REMARK   22  A    between atoms: C23_32  and  O8_43 
REMARK   23  A    between atoms: C24_33  and  C25_34 
REMARK   24  A    between atoms: C28_38  and  O6_39 
REMARK   25  A    between atoms: C29_42  and  O8_43 
REMARK   26  A    between atoms: C29_42  and  C35_49 
ROOT
ATOM      1  C14 non d ame      -5.950  16.336  67.683  0.00  0.00     0.089 C 
ATOM      2  H20 non d ame      -5.479  16.868  66.856  0.00  0.00     0.087 H 
ENDROOT
BRANCH   1   3
ATOM      3  N4  non d ame      -7.389  16.520  67.559  0.00  0.00    -0.346 N 
ATOM      4  C10 non d ame      -7.964  17.245  66.369  0.00  0.00     0.241 C 
ATOM      5  O4  non d ame      -7.249  17.675  65.525  0.00  0.00    -0.271 OA
ATOM      6  H19 non d ame      -7.980  16.149  68.290  0.00  0.00     0.163 HD
BRANCH   4   7
ATOM      7  C9  non d ame      -9.456  17.421  66.255  0.00  0.00     0.092 C 
ATOM      8  H11 non d ame      -9.680  18.001  65.359  0.00  0.00     0.088 H 
BRANCH   7   9
ATOM      9  N3  non d ame     -10.092  16.111  66.093  0.00  0.00    -0.346 N 
ATOM     10  C7  non d ame     -10.976  15.871  64.979  0.00  0.00     0.240 C 
ATOM     11  O3  non d ame     -11.188  16.722  64.204  0.00  0.00    -0.271 OA
ATOM     12  H10 non d ame      -9.920  15.367  66.755  0.00  0.00     0.163 HD
BRANCH  10  13
ATOM     13  C6  non d ame     -11.653  14.475  64.814  0.00  0.00     0.086 C 
ATOM     14  H6  non d ame     -12.374  14.450  63.998  0.00  0.00     0.086 H 
BRANCH  13  15
ATOM     15  N2  non d ame     -10.632  13.491  64.498  0.00  0.00    -0.343 N 
ATOM     16  C5  non d ame     -10.987  12.314  63.702  0.00  0.00     0.273 C 
ATOM     17  O2  non d ame     -12.097  12.167  63.323  0.00  0.00    -0.266 OA
ATOM     18  H5  non d ame      -9.686  13.623  64.827  0.00  0.00     0.163 HD
BRANCH  16  19
ATOM     19  C4  non d ame      -9.917  11.266  63.358  0.00  0.00     0.154 A 
ATOM     20  C1  non d ame      -9.498  10.160  64.165  0.00  0.00    -0.017 A 
ATOM     21  C2  non d ame      -8.502   9.510  63.402  0.00  0.00     0.077 A 
ATOM     22  H1  non d ame      -9.861   9.874  65.152  0.00  0.00     0.091 H 
ATOM     23  O1  non d ame      -8.373  10.172  62.289  0.00  0.00    -0.218 OA
ATOM     24  N1  non d ame      -9.187  11.200  62.240  0.00  0.00    -0.123 NA
BRANCH  21  25
ATOM     25  C3  non d ame      -7.725   8.265  63.808  0.00  0.00    -0.029 C 
ATOM     26  H2  non d ame      -8.362   7.620  64.414  0.00  0.00     0.036 H 
ATOM     27  H3  non d ame      -7.408   7.727  62.915  0.00  0.00     0.036 H 
ATOM     28  H4  non d ame      -6.848   8.556  64.387  0.00  0.00     0.036 H 
ENDBRANCH  21  25
ENDBRANCH  16  19
ENDBRANCH  13  15
BRANCH  13  29
ATOM     29  C8  non d ame     -12.353  14.099  66.095  0.00  0.00    -0.049 C 
ATOM     30  H7  non d ame     -13.430  14.083  65.930  0.00  0.00     0.030 H 
ATOM     31  H8  non d ame     -12.020  13.111  66.415  0.00  0.00     0.030 H 
ATOM     32  H9  non d ame     -12.116  14.831  66.867  0.00  0.00     0.030 H 
ENDBRANCH  13  29
ENDBRANCH  10  13
ENDBRANCH   7   9
BRANCH   7  33
ATOM     33  C11 non d ame      -9.998  18.103  67.545  0.00  0.00    -0.033 C 
ATOM     34  H12 non d ame      -9.138  18.414  68.139  0.00  0.00     0.042 H 
BRANCH  33  35
ATOM     35  C12 non d ame     -10.822  19.384  67.207  0.00  0.00    -0.071 C 
ATOM     36  H13 non d ame     -11.719  19.413  67.827  0.00  0.00     0.028 H 
ATOM     37  H14 non d ame     -10.217  20.268  67.405  0.00  0.00     0.028 H 
ATOM     38  H15 non d ame     -11.108  19.366  66.156  0.00  0.00     0.028 H 
ENDBRANCH  33  35
BRANCH  33  39
ATOM     39  C13 non d ame     -10.837  17.098  68.398  0.00  0.00    -0.071 C 
ATOM     40  H16 non d ame     -10.538  16.079  68.156  0.00  0.00     0.028 H 
ATOM     41  H17 non d ame     -10.662  17.286  69.458  0.00  0.00     0.028 H 
ATOM     42  H18 non d ame     -11.896  17.229  68.176  0.00  0.00     0.028 H 
ENDBRANCH  33  39
ENDBRANCH   7  33
ENDBRANCH   4   7
ENDBRANCH   1   3
BRANCH   1  43
ATOM     43  C15 non d ame      -5.641  14.812  67.652  0.00  0.00     0.240 C 
ATOM     44  O5  non d ame      -4.540  14.437  67.407  0.00  0.00    -0.271 OA
ATOM     45  N6  non d ame      -6.716  13.819  67.936  0.00  0.00    -0.355 N 
ATOM     46  H46 non d ame      -7.654  14.126  68.150  0.00  0.00     0.162 HD
BRANCH  45  47
ATOM     47  C20 non d ame      -6.406  12.373  67.904  0.00  0.00     0.013 C 
ATOM     48  H30 non d ame      -5.430  12.250  67.436  0.00  0.00     0.072 H 
BRANCH  47  49
ATOM     49  C21 non d ame      -7.461  11.654  67.095  0.00  0.00    -0.038 C 
ATOM     50  H31 non d ame      -8.155  12.426  66.761  0.00  0.00     0.036 H 
ATOM     51  H32 non d ame      -6.916  11.057  66.364  0.00  0.00     0.036 H 
BRANCH  49  52
ATOM     52  C22 non d ame      -8.289  10.660  67.939  0.00  0.00     0.018 C 
ATOM     53  H33 non d ame      -8.285   9.723  67.380  0.00  0.00     0.048 H 
ATOM     54  H34 non d ame      -7.863  10.698  68.942  0.00  0.00     0.048 H 
BRANCH  52  55
ATOM     55  C23 non d ame      -9.782  11.061  68.093  0.00  0.00     0.259 C 
ATOM     56  O7  non d ame     -10.376  11.539  67.181  0.00  0.00    -0.265 OA
BRANCH  55  57
ATOM     57  O8  non d ame     -10.432  10.862  69.343  0.00  0.00    -0.317 OA
BRANCH  57  58
ATOM     58  C29 non d ame     -11.856  10.981  69.284  0.00  0.00     0.052 C 
ATOM     59  H47 non d ame     -12.086  11.268  68.258  0.00  0.00     0.082 H 
ATOM     60  H48 non d ame     -12.247  10.048  69.690  0.00  0.00     0.082 H 
BRANCH  58  61
ATOM     61  C35 non d ame     -12.279  12.140  70.226  0.00  0.00    -0.034 A 
ATOM     62  C30 non d ame     -13.005  11.870  71.381  0.00  0.00    -0.075 A 
ATOM     63  C31 non d ame     -13.385  12.911  72.226  0.00  0.00    -0.082 A 
ATOM     64  H49 non d ame     -13.276  10.843  71.624  0.00  0.00     0.084 H 
ATOM     65  C32 non d ame     -13.038  14.228  71.911  0.00  0.00    -0.083 A 
ATOM     66  H50 non d ame     -13.953  12.696  73.132  0.00  0.00     0.083 H 
ATOM     67  C33 non d ame     -12.316  14.493  70.756  0.00  0.00    -0.082 A 
ATOM     68  H51 non d ame     -13.331  15.048  72.567  0.00  0.00     0.083 H 
ATOM     69  C34 non d ame     -11.932  13.455  69.909  0.00  0.00    -0.075 A 
ATOM     70  H52 non d ame     -12.049  15.522  70.512  0.00  0.00     0.083 H 
ATOM     71  H53 non d ame     -11.364  13.672  69.004  0.00  0.00     0.084 H 
ENDBRANCH  58  61
ENDBRANCH  57  58
ENDBRANCH  55  57
ENDBRANCH  52  55
ENDBRANCH  49  52
ENDBRANCH  47  49
BRANCH  47  72
ATOM     72  C24 non d ame      -6.386  11.818  69.327  0.00  0.00    -0.039 C 
ATOM     73  H35 non d ame      -7.112  12.414  69.881  0.00  0.00     0.036 H 
ATOM     74  H36 non d ame      -6.533  10.743  69.220  0.00  0.00     0.036 H 
BRANCH  72  75
ATOM     75  C25 non d ame      -4.962  12.033  70.028  0.00  0.00    -0.001 C 
ATOM     76  C26 non d ame      -4.444  10.620  70.689  0.00  0.00    -0.035 C 
ATOM     77  C27 non d ame      -4.098  10.843  71.979  0.00  0.00     0.085 C 
ATOM     78  H38 non d ame      -5.273   9.917  70.765  0.00  0.00     0.036 H 
ATOM     79  H39 non d ame      -3.508  10.311  70.224  0.00  0.00     0.036 H 
ATOM     80  N5  non d ame      -4.640  12.201  72.353  0.00  0.00    -0.049 N 
ATOM     81  H40 non d ame      -4.621  10.080  72.557  0.00  0.00     0.075 H 
ATOM     82  H41 non d ame      -3.009  10.881  71.987  0.00  0.00     0.075 H 
ATOM     83  C28 non d ame      -5.031  12.922  70.962  0.00  0.00     0.193 C 
ATOM     84  H42 non d ame      -5.486  12.037  72.880  0.00  0.00     0.280 HD
ATOM     85  H43 non d ame      -3.874  12.709  72.774  0.00  0.00     0.280 HD
ATOM     86  H44 non d ame      -4.393  13.700  70.543  0.00  0.00     0.129 H 
ATOM     87  H37 non d ame      -4.262  12.566  69.384  0.00  0.00     0.046 H 
BRANCH  83  88
ATOM     88  O6  non d ame      -6.332  13.504  71.058  0.00  0.00    -0.369 OA
ATOM     89  H45 non d ame      -6.688  13.637  70.177  0.00  0.00     0.212 HD
ENDBRANCH  83  88
ENDBRANCH  72  75
ENDBRANCH  47  72
ENDBRANCH  45  47
ENDBRANCH   1  43
BRANCH   1  90
ATOM     90  C16 non d ame      -5.487  16.925  69.006  0.00  0.00    -0.035 C 
ATOM     91  H21 non d ame      -6.333  16.813  69.684  0.00  0.00     0.037 H 
ATOM     92  H22 non d ame      -4.542  16.428  69.228  0.00  0.00     0.037 H 
BRANCH  90  93
ATOM     93  C17 non d ame      -5.176  18.454  68.937  0.00  0.00    -0.059 C 
ATOM     94  H23 non d ame      -4.965  18.702  67.896  0.00  0.00     0.038 H 
BRANCH  93  95
ATOM     95  C18 non d ame      -6.389  19.323  69.397  0.00  0.00    -0.073 C 
ATOM     96  H24 non d ame      -6.339  20.300  68.916  0.00  0.00     0.028 H 
ATOM     97  H25 non d ame      -7.319  18.827  69.116  0.00  0.00     0.028 H 
ATOM     98  H26 non d ame      -6.357  19.448  70.480  0.00  0.00     0.028 H 
ENDBRANCH  93  95
BRANCH  93  99
ATOM     99  C19 non d ame      -3.923  18.794  69.748  0.00  0.00    -0.073 C 
ATOM    100  H27 non d ame      -3.668  19.844  69.601  0.00  0.00     0.028 H 
ATOM    101  H28 non d ame      -4.115  18.611  70.806  0.00  0.00     0.028 H 
ATOM    102  H29 non d ame      -3.094  18.169  69.416  0.00  0.00     0.028 H 
ENDBRANCH  93  99
ENDBRANCH  90  93
ENDBRANCH   1  90
TORSDOF 26
ENDMDL
MODEL 3
REMARK VINA RESULT:      -7.3      2.721      9.487
REMARK  26 active torsions:
REMARK  status: ('A' for Active; 'I' for Inactive)
REMARK    1  A    between atoms: C2_2  and  C3_3 
REMARK    2  A    between atoms: C4_6  and  C5_7 
REMARK       I    between atoms: C5_7  and  N2_9 
REMARK    3  A    between atoms: N2_9  and  C6_10 
REMARK    4  A    between atoms: C6_10  and  C7_11 
REMARK    5  A    between atoms: C6_10  and  C8_13 
REMARK       I    between atoms: C7_11  and  N3_14 
REMARK    6  A    between atoms: N3_14  and  C9_15 
REMARK    7  A    between atoms: C9_15  and  C10_16 
REMARK    8  A    between atoms: C9_15  and  C11_18 
REMARK       I    between atoms: C10_16  and  N4_21 
REMARK    9  A    between atoms: C11_18  and  C12_19 
REMARK   10  A    between atoms: C11_18  and  C13_20 
REMARK   11  A    between atoms: N4_21  and  C14_22 
REMARK   12  A    between atoms: C14_22  and  C15_23 
REMARK   13  A    between atoms: C14_22  and  C16_25 
REMARK       I    between atoms: C15_23  and  N6_40 
REMARK   14  A    between atoms: C16_25  and  C17_26 
REMARK   15  A    between atoms: C17_26  and  C18_27 
REMARK   16  A    between atoms: C17_26  and  C19_28 
REMARK   17  A    between atoms: C20_29  and  C21_30 
REMARK   18  A    between atoms: C20_29  and  C24_33 
REMARK   19  A    between atoms: C20_29  and  N6_40 
REMARK   20  A    between atoms: C21_30  and  C22_31 
REMARK   21  A    between atoms: C22_31  and  C23_32 
REMARK   22  A    between atoms: C23_32  and  O8_43 
REMARK   23  A    between atoms: C24_33  and  C25_34 
REMARK   24  A    between atoms: C28_38  and  O6_39 
REMARK   25  A    between atoms: C29_42  and  O8_43 
REMARK   26  A    between atoms: C29_42  and  C35_49 
ROOT
ATOM      1  C14 non d ame      -9.337   7.020  67.017  0.00  0.00     0.089 C 
ATOM      2  H20 non d ame      -9.720   6.638  66.071  0.00  0.00     0.087 H 
ENDROOT
BRANCH   1   3
ATOM      3  N4  non d ame      -9.081   8.442  66.845  0.00  0.00    -0.346 N 
ATOM      4  C10 non d ame      -8.675   8.986  65.498  0.00  0.00     0.241 C 
ATOM      5  O4  non d ame      -8.557   8.258  64.568  0.00  0.00    -0.271 OA
ATOM      6  H19 non d ame      -9.185   9.045  67.650  0.00  0.00     0.163 HD
BRANCH   4   7
ATOM      7  C9  non d ame      -8.420  10.461  65.337  0.00  0.00     0.092 C 
ATOM      8  H11 non d ame      -7.986  10.645  64.354  0.00  0.00     0.088 H 
BRANCH   7   9
ATOM      9  N3  non d ame      -9.692  11.186  65.391  0.00  0.00    -0.346 N 
ATOM     10  C7  non d ame     -10.442  11.418  64.181  0.00  0.00     0.240 C 
ATOM     11  O3  non d ame     -10.034  11.030  63.155  0.00  0.00    -0.271 OA
ATOM     12  H10 non d ame     -10.056  11.529  66.269  0.00  0.00     0.163 HD
BRANCH  10  13
ATOM     13  C6  non d ame     -11.794  12.194  64.245  0.00  0.00     0.086 C 
ATOM     14  H6  non d ame     -12.350  11.996  65.161  0.00  0.00     0.086 H 
BRANCH  13  15
ATOM     15  N2  non d ame     -11.521  13.621  64.223  0.00  0.00    -0.343 N 
ATOM     16  C5  non d ame     -11.266  14.325  65.482  0.00  0.00     0.273 C 
ATOM     17  O2  non d ame     -11.285  13.736  66.506  0.00  0.00    -0.266 OA
ATOM     18  H5  non d ame     -11.509  14.118  63.344  0.00  0.00     0.163 HD
BRANCH  16  19
ATOM     19  C4  non d ame     -10.974  15.834  65.474  0.00  0.00     0.154 A 
ATOM     20  C1  non d ame     -10.330  16.596  66.500  0.00  0.00    -0.017 A 
ATOM     21  C2  non d ame     -10.307  17.920  66.009  0.00  0.00     0.077 A 
ATOM     22  H1  non d ame      -9.940  16.242  67.455  0.00  0.00     0.091 H 
ATOM     23  O1  non d ame     -10.872  17.909  64.838  0.00  0.00    -0.218 OA
ATOM     24  N1  non d ame     -11.270  16.704  64.504  0.00  0.00    -0.123 NA
BRANCH  21  25
ATOM     25  C3  non d ame      -9.726  19.135  66.721  0.00  0.00    -0.029 C 
ATOM     26  H2  non d ame      -9.127  19.716  66.019  0.00  0.00     0.036 H 
ATOM     27  H3  non d ame     -10.537  19.753  67.105  0.00  0.00     0.036 H 
ATOM     28  H4  non d ame      -9.097  18.806  67.549  0.00  0.00     0.036 H 
ENDBRANCH  21  25
ENDBRANCH  16  19
ENDBRANCH  13  15
BRANCH  13  29
ATOM     29  C8  non d ame     -12.651  11.814  63.064  0.00  0.00    -0.049 C 
ATOM     30  H7  non d ame     -12.541  12.563  62.280  0.00  0.00     0.030 H 
ATOM     31  H8  non d ame     -12.336  10.842  62.684  0.00  0.00     0.030 H 
ATOM     32  H9  non d ame     -13.694  11.763  63.373  0.00  0.00     0.030 H 
ENDBRANCH  13  29
ENDBRANCH  10  13
ENDBRANCH   7   9
BRANCH   7  33
ATOM     33  C11 non d ame      -7.494  10.956  66.487  0.00  0.00    -0.033 C 
ATOM     34  H12 non d ame      -7.514  10.202  67.273  0.00  0.00     0.042 H 
BRANCH  33  35
ATOM     35  C12 non d ame      -6.016  11.095  66.007  0.00  0.00    -0.071 C 
ATOM     36  H13 non d ame      -5.628  10.112  65.736  0.00  0.00     0.028 H 
ATOM     37  H14 non d ame      -5.976  11.752  65.138  0.00  0.00     0.028 H 
ATOM     38  H15 non d ame      -5.411  11.515  66.810  0.00  0.00     0.028 H 
ENDBRANCH  33  35
BRANCH  33  39
ATOM     39  C13 non d ame      -8.021  12.297  67.091  0.00  0.00    -0.071 C 
ATOM     40  H16 non d ame      -7.186  12.865  67.501  0.00  0.00     0.028 H 
ATOM     41  H17 non d ame      -8.508  12.882  66.309  0.00  0.00     0.028 H 
ATOM     42  H18 non d ame      -8.738  12.081  67.883  0.00  0.00     0.028 H 
ENDBRANCH  33  39
ENDBRANCH   7  33
ENDBRANCH   4   7
ENDBRANCH   1   3
BRANCH   1  43
ATOM     43  C15 non d ame     -10.354   6.837  68.180  0.00  0.00     0.240 C 
ATOM     44  O5  non d ame     -11.192   5.997  68.105  0.00  0.00    -0.271 OA
ATOM     45  N6  non d ame     -10.278   7.703  69.391  0.00  0.00    -0.355 N 
ATOM     46  H46 non d ame      -9.568   8.416  69.468  0.00  0.00     0.162 HD
BRANCH  45  47
ATOM     47  C20 non d ame     -11.252   7.515  70.488  0.00  0.00     0.013 C 
ATOM     48  H30 non d ame     -12.069   6.901  70.110  0.00  0.00     0.072 H 
BRANCH  47  49
ATOM     49  C21 non d ame     -11.778   8.863  70.925  0.00  0.00    -0.038 C 
ATOM     50  H31 non d ame     -12.743   8.978  70.431  0.00  0.00     0.036 H 
ATOM     51  H32 non d ame     -11.720   8.863  72.014  0.00  0.00     0.036 H 
BRANCH  49  52
ATOM     52  C22 non d ame     -10.898  10.036  70.441  0.00  0.00     0.018 C 
ATOM     53  H33 non d ame     -10.945  10.786  71.231  0.00  0.00     0.048 H 
ATOM     54  H34 non d ame      -9.940   9.593  70.166  0.00  0.00     0.048 H 
BRANCH  52  55
ATOM     55  C23 non d ame     -11.432  10.731  69.158  0.00  0.00     0.259 C 
ATOM     56  O7  non d ame     -11.195  10.280  68.084  0.00  0.00    -0.265 OA
BRANCH  55  57
ATOM     57  O8  non d ame     -12.197  11.924  69.279  0.00  0.00    -0.317 OA
BRANCH  57  58
ATOM     58  C29 non d ame     -11.423  13.083  69.601  0.00  0.00     0.052 C 
ATOM     59  H47 non d ame     -10.483  12.707  70.005  0.00  0.00     0.082 H 
ATOM     60  H48 non d ame     -11.422  13.697  68.700  0.00  0.00     0.082 H 
BRANCH  58  61
ATOM     61  C35 non d ame     -12.165  13.858  70.722  0.00  0.00    -0.034 A 
ATOM     62  C30 non d ame     -13.086  13.201  71.531  0.00  0.00    -0.075 A 
ATOM     63  C31 non d ame     -13.753  13.898  72.538  0.00  0.00    -0.082 A 
ATOM     64  H49 non d ame     -13.285  12.141  71.377  0.00  0.00     0.084 H 
ATOM     65  C32 non d ame     -13.498  15.258  72.732  0.00  0.00    -0.083 A 
ATOM     66  H50 non d ame     -14.473  13.379  73.172  0.00  0.00     0.083 H 
ATOM     67  C33 non d ame     -12.580  15.910  71.920  0.00  0.00    -0.082 A 
ATOM     68  H51 non d ame     -14.015  15.810  73.518  0.00  0.00     0.083 H 
ATOM     69  C34 non d ame     -11.910  15.217  70.914  0.00  0.00    -0.075 A 
ATOM     70  H52 non d ame     -12.385  16.972  72.073  0.00  0.00     0.083 H 
ATOM     71  H53 non d ame     -11.190  15.737  70.281  0.00  0.00     0.084 H 
ENDBRANCH  58  61
ENDBRANCH  57  58
ENDBRANCH  55  57
ENDBRANCH  52  55
ENDBRANCH  49  52
ENDBRANCH  47  49
BRANCH  47  72
ATOM     72  C24 non d ame     -10.572   6.825  71.669  0.00  0.00    -0.039 C 
ATOM     73  H35 non d ame     -11.018   7.269  72.560  0.00  0.00     0.036 H 
ATOM     74  H36 non d ame     -10.679   5.757  71.482  0.00  0.00     0.036 H 
BRANCH  72  75
ATOM     75  C25 non d ame      -9.003   7.143  71.718  0.00  0.00    -0.001 C 
ATOM     76  C26 non d ame      -8.144   5.763  71.470  0.00  0.00    -0.035 C 
ATOM     77  C27 non d ame      -7.228   5.635  72.459  0.00  0.00     0.085 C 
ATOM     78  H38 non d ame      -8.788   4.893  71.604  0.00  0.00     0.036 H 
ATOM     79  H39 non d ame      -7.536   5.857  70.570  0.00  0.00     0.036 H 
ATOM     80  N5  non d ame      -7.600   6.625  73.536  0.00  0.00    -0.049 N 
ATOM     81  H40 non d ame      -7.357   4.623  72.847  0.00  0.00     0.075 H 
ATOM     82  H41 non d ame      -6.278   5.932  72.017  0.00  0.00     0.075 H 
ATOM     83  C28 non d ame      -8.661   7.637  72.861  0.00  0.00     0.193 C 
ATOM     84  H42 non d ame      -8.072   6.099  74.258  0.00  0.00     0.280 HD
ATOM     85  H43 non d ame      -6.759   7.140  73.754  0.00  0.00     0.280 HD
ATOM     86  H44 non d ame      -8.356   8.640  72.560  0.00  0.00     0.129 H 
ATOM     87  H37 non d ame      -8.738   8.008  71.110  0.00  0.00     0.046 H 
BRANCH  83  88
ATOM     88  O6  non d ame      -9.784   7.823  73.725  0.00  0.00    -0.369 OA
ATOM     89  H45 non d ame     -10.410   8.422  73.312  0.00  0.00     0.212 HD
ENDBRANCH  83  88
ENDBRANCH  72  75
ENDBRANCH  47  72
ENDBRANCH  45  47
ENDBRANCH   1  43
BRANCH   1  90
ATOM     90  C16 non d ame      -8.033   6.320  67.364  0.00  0.00    -0.035 C 
ATOM     91  H21 non d ame      -7.278   7.107  67.382  0.00  0.00     0.037 H 
ATOM     92  H22 non d ame      -8.244   5.748  68.268  0.00  0.00     0.037 H 
BRANCH  90  93
ATOM     93  C17 non d ame      -7.569   5.289  66.287  0.00  0.00    -0.059 C 
ATOM     94  H23 non d ame      -6.871   5.797  65.621  0.00  0.00     0.038 H 
BRANCH  93  95
ATOM     95  C18 non d ame      -6.823   4.070  66.919  0.00  0.00    -0.073 C 
ATOM     96  H24 non d ame      -6.298   4.393  67.818  0.00  0.00     0.028 H 
ATOM     97  H25 non d ame      -7.546   3.297  67.178  0.00  0.00     0.028 H 
ATOM     98  H26 non d ame      -6.106   3.672  66.202  0.00  0.00     0.028 H 
ENDBRANCH  93  95
BRANCH  93  99
ATOM     99  C19 non d ame      -8.751   4.821  65.433  0.00  0.00    -0.073 C 
ATOM    100  H27 non d ame      -9.672   4.908  66.010  0.00  0.00     0.028 H 
ATOM    101  H28 non d ame      -8.821   5.441  64.539  0.00  0.00     0.028 H 
ATOM    102  H29 non d ame      -8.600   3.782  65.143  0.00  0.00     0.028 H 
ENDBRANCH  93  99
ENDBRANCH  90  93
ENDBRANCH   1  90
TORSDOF 26
ENDMDL
MODEL 4
REMARK VINA RESULT:      -7.3      2.632      6.951
REMARK  26 active torsions:
REMARK  status: ('A' for Active; 'I' for Inactive)
REMARK    1  A    between atoms: C2_2  and  C3_3 
REMARK    2  A    between atoms: C4_6  and  C5_7 
REMARK       I    between atoms: C5_7  and  N2_9 
REMARK    3  A    between atoms: N2_9  and  C6_10 
REMARK    4  A    between atoms: C6_10  and  C7_11 
REMARK    5  A    between atoms: C6_10  and  C8_13 
REMARK       I    between atoms: C7_11  and  N3_14 
REMARK    6  A    between atoms: N3_14  and  C9_15 
REMARK    7  A    between atoms: C9_15  and  C10_16 
REMARK    8  A    between atoms: C9_15  and  C11_18 
REMARK       I    between atoms: C10_16  and  N4_21 
REMARK    9  A    between atoms: C11_18  and  C12_19 
REMARK   10  A    between atoms: C11_18  and  C13_20 
REMARK   11  A    between atoms: N4_21  and  C14_22 
REMARK   12  A    between atoms: C14_22  and  C15_23 
REMARK   13  A    between atoms: C14_22  and  C16_25 
REMARK       I    between atoms: C15_23  and  N6_40 
REMARK   14  A    between atoms: C16_25  and  C17_26 
REMARK   15  A    between atoms: C17_26  and  C18_27 
REMARK   16  A    between atoms: C17_26  and  C19_28 
REMARK   17  A    between atoms: C20_29  and  C21_30 
REMARK   18  A    between atoms: C20_29  and  C24_33 
REMARK   19  A    between atoms: C20_29  and  N6_40 
REMARK   20  A    between atoms: C21_30  and  C22_31 
REMARK   21  A    between atoms: C22_31  and  C23_32 
REMARK   22  A    between atoms: C23_32  and  O8_43 
REMARK   23  A    between atoms: C24_33  and  C25_34 
REMARK   24  A    between atoms: C28_38  and  O6_39 
REMARK   25  A    between atoms: C29_42  and  O8_43 
REMARK   26  A    between atoms: C29_42  and  C35_49 
ROOT
ATOM      1  C14 non d ame     -11.779  10.518  70.338  0.00  0.00     0.089 C 
ATOM      2  H20 non d ame     -11.013  10.132  71.011  0.00  0.00     0.087 H 
ENDROOT
BRANCH   1   3
ATOM      3  N4  non d ame     -11.744  11.970  70.420  0.00  0.00    -0.346 N 
ATOM      4  C10 non d ame     -12.602  12.698  71.424  0.00  0.00     0.241 C 
ATOM      5  O4  non d ame     -13.316  12.093  72.154  0.00  0.00    -0.271 OA
ATOM      6  H19 non d ame     -11.131  12.467  69.788  0.00  0.00     0.163 HD
BRANCH   4   7
ATOM      7  C9  non d ame     -12.548  14.202  71.498  0.00  0.00     0.092 C 
ATOM      8  H11 non d ame     -11.612  14.504  71.966  0.00  0.00     0.088 H 
BRANCH   7   9
ATOM      9  N3  non d ame     -12.555  14.759  70.142  0.00  0.00    -0.346 N 
ATOM     10  C7  non d ame     -11.374  15.402  69.621  0.00  0.00     0.240 C 
ATOM     11  O3  non d ame     -10.410  15.481  70.281  0.00  0.00    -0.271 OA
ATOM     12  H10 non d ame     -13.380  14.700  69.562  0.00  0.00     0.163 HD
BRANCH  10  13
ATOM     13  C6  non d ame     -11.388  15.996  68.179  0.00  0.00     0.086 C 
ATOM     14  H6  non d ame     -12.201  16.705  68.023  0.00  0.00     0.086 H 
BRANCH  13  15
ATOM     15  N2  non d ame     -10.151  16.726  67.957  0.00  0.00    -0.343 N 
ATOM     16  C5  non d ame     -10.203  18.158  67.654  0.00  0.00     0.273 C 
ATOM     17  O2  non d ame     -11.245  18.713  67.588  0.00  0.00    -0.266 OA
ATOM     18  H5  non d ame      -9.265  16.244  68.013  0.00  0.00     0.163 HD
BRANCH  16  19
ATOM     19  C4  non d ame      -8.903  18.943  67.419  0.00  0.00     0.154 A 
ATOM     20  C1  non d ame      -8.018  19.467  68.414  0.00  0.00    -0.017 A 
ATOM     21  C2  non d ame      -6.983  20.096  67.685  0.00  0.00     0.077 A 
ATOM     22  H1  non d ame      -8.111  19.401  69.498  0.00  0.00     0.091 H 
ATOM     23  O1  non d ame      -7.252  19.943  66.421  0.00  0.00    -0.218 OA
ATOM     24  N1  non d ame      -8.367  19.274  66.241  0.00  0.00    -0.123 NA
BRANCH  21  25
ATOM     25  C3  non d ame      -5.777  20.817  68.271  0.00  0.00    -0.029 C 
ATOM     26  H2  non d ame      -6.004  21.138  69.288  0.00  0.00     0.036 H 
ATOM     27  H3  non d ame      -4.922  20.141  68.286  0.00  0.00     0.036 H 
ATOM     28  H4  non d ame      -5.541  21.688  67.659  0.00  0.00     0.036 H 
ENDBRANCH  21  25
ENDBRANCH  16  19
ENDBRANCH  13  15
BRANCH  13  29
ATOM     29  C8  non d ame     -11.516  14.879  67.174  0.00  0.00    -0.049 C 
ATOM     30  H7  non d ame     -12.531  14.484  67.196  0.00  0.00     0.030 H 
ATOM     31  H8  non d ame     -11.296  15.261  66.177  0.00  0.00     0.030 H 
ATOM     32  H9  non d ame     -10.812  14.085  67.422  0.00  0.00     0.030 H 
ENDBRANCH  13  29
ENDBRANCH  10  13
ENDBRANCH   7   9
BRANCH   7  33
ATOM     33  C11 non d ame     -13.789  14.727  72.278  0.00  0.00    -0.033 C 
ATOM     34  H12 non d ame     -14.138  13.920  72.922  0.00  0.00     0.042 H 
BRANCH  33  35
ATOM     35  C12 non d ame     -13.415  15.932  73.196  0.00  0.00    -0.071 C 
ATOM     36  H13 non d ame     -12.591  15.648  73.851  0.00  0.00     0.028 H 
ATOM     37  H14 non d ame     -13.112  16.778  72.579  0.00  0.00     0.028 H 
ATOM     38  H15 non d ame     -14.279  16.212  73.798  0.00  0.00     0.028 H 
ENDBRANCH  33  35
BRANCH  33  39
ATOM     39  C13 non d ame     -14.949  15.099  71.299  0.00  0.00    -0.071 C 
ATOM     40  H16 non d ame     -14.735  16.059  70.830  0.00  0.00     0.028 H 
ATOM     41  H17 non d ame     -15.036  14.331  70.530  0.00  0.00     0.028 H 
ATOM     42  H18 non d ame     -15.885  15.166  71.853  0.00  0.00     0.028 H 
ENDBRANCH  33  39
ENDBRANCH   7  33
ENDBRANCH   4   7
ENDBRANCH   1   3
BRANCH   1  43
ATOM     43  C15 non d ame     -11.529  10.098  68.862  0.00  0.00     0.240 C 
ATOM     44  O5  non d ame     -11.905  10.797  67.977  0.00  0.00    -0.271 OA
ATOM     45  N6  non d ame     -10.814   8.828  68.550  0.00  0.00    -0.355 N 
ATOM     46  H46 non d ame     -10.486   8.228  69.293  0.00  0.00     0.162 HD
BRANCH  45  47
ATOM     47  C20 non d ame     -10.583   8.444  67.141  0.00  0.00     0.013 C 
ATOM     48  H30 non d ame     -11.221   9.067  66.514  0.00  0.00     0.072 H 
BRANCH  47  49
ATOM     49  C21 non d ame     -10.941   6.987  66.955  0.00  0.00    -0.038 C 
ATOM     50  H31 non d ame     -11.960   6.981  66.568  0.00  0.00     0.036 H 
ATOM     51  H32 non d ame     -10.130   6.557  66.365  0.00  0.00     0.036 H 
BRANCH  49  52
ATOM     52  C22 non d ame     -10.975   6.203  68.285  0.00  0.00     0.018 C 
ATOM     53  H33 non d ame     -10.655   6.910  69.052  0.00  0.00     0.048 H 
ATOM     54  H34 non d ame     -11.967   5.754  68.338  0.00  0.00     0.048 H 
BRANCH  52  55
ATOM     55  C23 non d ame      -9.967   5.022  68.343  0.00  0.00     0.259 C 
ATOM     56  O7  non d ame      -9.656   4.545  69.386  0.00  0.00    -0.265 OA
BRANCH  55  57
ATOM     57  O8  non d ame      -9.407   4.525  67.134  0.00  0.00    -0.317 OA
BRANCH  57  58
ATOM     58  C29 non d ame      -7.977   4.556  67.098  0.00  0.00     0.052 C 
ATOM     59  H47 non d ame      -7.680   5.295  67.842  0.00  0.00     0.082 H 
ATOM     60  H48 non d ame      -7.656   3.520  67.201  0.00  0.00     0.082 H 
BRANCH  58  61
ATOM     61  C35 non d ame      -7.544   5.068  65.698  0.00  0.00    -0.034 A 
ATOM     62  C30 non d ame      -8.498   5.278  64.707  0.00  0.00    -0.075 A 
ATOM     63  C31 non d ame      -8.110   5.737  63.450  0.00  0.00    -0.082 A 
ATOM     64  H49 non d ame      -9.550   5.083  64.917  0.00  0.00     0.084 H 
ATOM     65  C32 non d ame      -6.760   5.984  63.183  0.00  0.00    -0.083 A 
ATOM     66  H50 non d ame      -8.860   5.903  62.677  0.00  0.00     0.083 H 
ATOM     67  C33 non d ame      -5.812   5.770  64.174  0.00  0.00    -0.082 A 
ATOM     68  H51 non d ame      -6.448   6.343  62.203  0.00  0.00     0.083 H 
ATOM     69  C34 non d ame      -6.196   5.313  65.433  0.00  0.00    -0.075 A 
ATOM     70  H52 non d ame      -4.759   5.961  63.962  0.00  0.00     0.083 H 
ATOM     71  H53 non d ame      -5.445   5.148  66.206  0.00  0.00     0.084 H 
ENDBRANCH  58  61
ENDBRANCH  57  58
ENDBRANCH  55  57
ENDBRANCH  52  55
ENDBRANCH  49  52
ENDBRANCH  47  49
BRANCH  47  72
ATOM     72  C24 non d ame      -9.114   8.658  66.781  0.00  0.00    -0.039 C 
ATOM     73  H35 non d ame      -8.581   8.672  67.733  0.00  0.00     0.036 H 
ATOM     74  H36 non d ame      -8.882   7.894  66.039  0.00  0.00     0.036 H 
BRANCH  72  75
ATOM     75  C25 non d ame      -8.875  10.081  66.085  0.00  0.00    -0.001 C 
ATOM     76  C26 non d ame     -10.084  10.390  65.014  0.00  0.00    -0.035 C 
ATOM     77  C27 non d ame      -9.535  10.731  63.823  0.00  0.00     0.085 C 
ATOM     78  H38 non d ame     -10.628   9.472  64.790  0.00  0.00     0.036 H 
ATOM     79  H39 non d ame     -10.627  11.287  65.311  0.00  0.00     0.036 H 
ATOM     80  N5  non d ame      -8.072  10.367  63.891  0.00  0.00    -0.049 N 
ATOM     81  H40 non d ame     -10.026  10.097  63.084  0.00  0.00     0.075 H 
ATOM     82  H41 non d ame      -9.629  11.814  63.760  0.00  0.00     0.075 H 
ATOM     83  C28 non d ame      -7.750  10.109  65.452  0.00  0.00     0.193 C 
ATOM     84  H42 non d ame      -7.971   9.494  63.393  0.00  0.00     0.280 HD
ATOM     85  H43 non d ame      -7.560  11.183  63.588  0.00  0.00     0.280 HD
ATOM     86  H44 non d ame      -7.212  10.855  66.037  0.00  0.00     0.129 H 
ATOM     87  H37 non d ame      -8.644  10.862  66.810  0.00  0.00     0.046 H 
BRANCH  83  88
ATOM     88  O6  non d ame      -7.013   8.895  65.609  0.00  0.00    -0.369 OA
ATOM     89  H45 non d ame      -7.276   8.271  64.930  0.00  0.00     0.212 HD
ENDBRANCH  83  88
ENDBRANCH  72  75
ENDBRANCH  47  72
ENDBRANCH  45  47
ENDBRANCH   1  43
BRANCH   1  90
ATOM     90  C16 non d ame     -13.148  10.029  70.784  0.00  0.00    -0.035 C 
ATOM     91  H21 non d ame     -13.620  10.888  71.263  0.00  0.00     0.037 H 
ATOM     92  H22 non d ame     -13.599   9.585  69.896  0.00  0.00     0.037 H 
BRANCH  90  93
ATOM     93  C17 non d ame     -13.091   8.900  71.862  0.00  0.00    -0.059 C 
ATOM     94  H23 non d ame     -13.489   9.309  72.790  0.00  0.00     0.038 H 
BRANCH  93  95
ATOM     95  C18 non d ame     -13.966   7.666  71.470  0.00  0.00    -0.073 C 
ATOM     96  H24 non d ame     -13.505   6.758  71.857  0.00  0.00     0.028 H 
ATOM     97  H25 non d ame     -14.963   7.778  71.895  0.00  0.00     0.028 H 
ATOM     98  H26 non d ame     -14.039   7.603  70.384  0.00  0.00     0.028 H 
ENDBRANCH  93  95
BRANCH  93  99
ATOM     99  C19 non d ame     -11.645   8.478  72.134  0.00  0.00    -0.073 C 
ATOM    100  H27 non d ame     -11.185   9.182  72.829  0.00  0.00     0.028 H 
ATOM    101  H28 non d ame     -11.634   7.478  72.570  0.00  0.00     0.028 H 
ATOM    102  H29 non d ame     -11.085   8.472  71.199  0.00  0.00     0.028 H 
ENDBRANCH  93  99
ENDBRANCH  90  93
ENDBRANCH   1  90
TORSDOF 26
ENDMDL
MODEL 5
REMARK VINA RESULT:      -7.3      2.922      8.981
REMARK  26 active torsions:
REMARK  status: ('A' for Active; 'I' for Inactive)
REMARK    1  A    between atoms: C2_2  and  C3_3 
REMARK    2  A    between atoms: C4_6  and  C5_7 
REMARK       I    between atoms: C5_7  and  N2_9 
REMARK    3  A    between atoms: N2_9  and  C6_10 
REMARK    4  A    between atoms: C6_10  and  C7_11 
REMARK    5  A    between atoms: C6_10  and  C8_13 
REMARK       I    between atoms: C7_11  and  N3_14 
REMARK    6  A    between atoms: N3_14  and  C9_15 
REMARK    7  A    between atoms: C9_15  and  C10_16 
REMARK    8  A    between atoms: C9_15  and  C11_18 
REMARK       I    between atoms: C10_16  and  N4_21 
REMARK    9  A    between atoms: C11_18  and  C12_19 
REMARK   10  A    between atoms: C11_18  and  C13_20 
REMARK   11  A    between atoms: N4_21  and  C14_22 
REMARK   12  A    between atoms: C14_22  and  C15_23 
REMARK   13  A    between atoms: C14_22  and  C16_25 
REMARK       I    between atoms: C15_23  and  N6_40 
REMARK   14  A    between atoms: C16_25  and  C17_26 
REMARK   15  A    between atoms: C17_26  and  C18_27 
REMARK   16  A    between atoms: C17_26  and  C19_28 
REMARK   17  A    between atoms: C20_29  and  C21_30 
REMARK   18  A    between atoms: C20_29  and  C24_33 
REMARK   19  A    between atoms: C20_29  and  N6_40 
REMARK   20  A    between atoms: C21_30  and  C22_31 
REMARK   21  A    between atoms: C22_31  and  C23_32 
REMARK   22  A    between atoms: C23_32  and  O8_43 
REMARK   23  A    between atoms: C24_33  and  C25_34 
REMARK   24  A    between atoms: C28_38  and  O6_39 
REMARK   25  A    between atoms: C29_42  and  O8_43 
REMARK   26  A    between atoms: C29_42  and  C35_49 
ROOT
ATOM      1  C14 non d ame     -10.348  10.502  67.970  0.00  0.00     0.089 C 
ATOM      2  H20 non d ame      -9.331  10.533  68.359  0.00  0.00     0.087 H 
ENDROOT
BRANCH   1   3
ATOM      3  N4  non d ame     -11.052   9.435  68.666  0.00  0.00    -0.346 N 
ATOM      4  C10 non d ame     -10.585   8.973  70.023  0.00  0.00     0.241 C 
ATOM      5  O4  non d ame      -9.637   9.473  70.534  0.00  0.00    -0.271 OA
ATOM      6  H19 non d ame     -11.854   9.021  68.213  0.00  0.00     0.163 HD
BRANCH   4   7
ATOM      7  C9  non d ame     -11.328   7.871  70.731  0.00  0.00     0.092 C 
ATOM      8  H11 non d ame     -12.278   7.697  70.225  0.00  0.00     0.088 H 
BRANCH   7   9
ATOM      9  N3  non d ame     -10.557   6.627  70.645  0.00  0.00    -0.346 N 
ATOM     10  C7  non d ame     -10.629   5.815  69.455  0.00  0.00     0.240 C 
ATOM     11  O3  non d ame     -11.304   6.147  68.558  0.00  0.00    -0.271 OA
ATOM     12  H10 non d ame      -9.972   6.327  71.412  0.00  0.00     0.163 HD
BRANCH  10  13
ATOM     13  C6  non d ame      -9.809   4.491  69.371  0.00  0.00     0.086 C 
ATOM     14  H6  non d ame     -10.348   3.693  68.860  0.00  0.00     0.086 H 
BRANCH  13  15
ATOM     15  N2  non d ame      -8.599   4.733  68.603  0.00  0.00    -0.343 N 
ATOM     16  C5  non d ame      -8.560   4.370  67.185  0.00  0.00     0.273 C 
ATOM     17  O2  non d ame      -9.506   3.881  66.672  0.00  0.00    -0.266 OA
ATOM     18  H5  non d ame      -7.794   5.150  69.050  0.00  0.00     0.163 HD
BRANCH  16  19
ATOM     19  C4  non d ame      -7.288   4.623  66.360  0.00  0.00     0.154 A 
ATOM     20  C1  non d ame      -5.994   4.049  66.569  0.00  0.00    -0.017 A 
ATOM     21  C2  non d ame      -5.184   4.600  65.551  0.00  0.00     0.077 A 
ATOM     22  H1  non d ame      -5.690   3.342  67.341  0.00  0.00     0.091 H 
ATOM     23  O1  non d ame      -5.934   5.394  64.845  0.00  0.00    -0.218 OA
ATOM     24  N1  non d ame      -7.167   5.425  65.298  0.00  0.00    -0.123 NA
BRANCH  21  25
ATOM     25  C3  non d ame      -3.705   4.315  65.323  0.00  0.00    -0.029 C 
ATOM     26  H2  non d ame      -3.109   5.121  65.751  0.00  0.00     0.036 H 
ATOM     27  H3  non d ame      -3.439   3.372  65.801  0.00  0.00     0.036 H 
ATOM     28  H4  non d ame      -3.509   4.247  64.252  0.00  0.00     0.036 H 
ENDBRANCH  21  25
ENDBRANCH  16  19
ENDBRANCH  13  15
BRANCH  13  29
ATOM     29  C8  non d ame      -9.454   4.027  70.761  0.00  0.00    -0.049 C 
ATOM     30  H7  non d ame     -10.181   3.286  71.094  0.00  0.00     0.030 H 
ATOM     31  H8  non d ame      -8.459   3.581  70.752  0.00  0.00     0.030 H 
ATOM     32  H9  non d ame      -9.466   4.878  71.441  0.00  0.00     0.030 H 
ENDBRANCH  13  29
ENDBRANCH  10  13
ENDBRANCH   7   9
BRANCH   7  33
ATOM     33  C11 non d ame     -11.523   8.255  72.227  0.00  0.00    -0.033 C 
ATOM     34  H12 non d ame     -10.930   9.150  72.416  0.00  0.00     0.042 H 
BRANCH  33  35
ATOM     35  C12 non d ame     -13.012   8.605  72.535  0.00  0.00    -0.071 C 
ATOM     36  H13 non d ame     -13.230   8.379  73.579  0.00  0.00     0.028 H 
ATOM     37  H14 non d ame     -13.182   9.666  72.350  0.00  0.00     0.028 H 
ATOM     38  H15 non d ame     -13.664   8.015  71.891  0.00  0.00     0.028 H 
ENDBRANCH  33  35
BRANCH  33  39
ATOM     39  C13 non d ame     -11.001   7.122  73.168  0.00  0.00    -0.071 C 
ATOM     40  H16 non d ame     -11.782   6.851  73.878  0.00  0.00     0.028 H 
ATOM     41  H17 non d ame     -10.734   6.249  72.572  0.00  0.00     0.028 H 
ATOM     42  H18 non d ame     -10.123   7.475  73.709  0.00  0.00     0.028 H 
ENDBRANCH  33  39
ENDBRANCH   7  33
ENDBRANCH   4   7
ENDBRANCH   1   3
BRANCH   1  43
ATOM     43  C15 non d ame     -11.110  11.837  68.211  0.00  0.00     0.240 C 
ATOM     44  O5  non d ame     -12.122  12.053  67.627  0.00  0.00    -0.271 OA
ATOM     45  N6  non d ame     -10.581  12.842  69.177  0.00  0.00    -0.355 N 
ATOM     46  H46 non d ame      -9.725  12.667  69.682  0.00  0.00     0.162 HD
BRANCH  45  47
ATOM     47  C20 non d ame     -11.318  14.106  69.396  0.00  0.00     0.013 C 
ATOM     48  H30 non d ame     -11.891  14.321  68.494  0.00  0.00     0.072 H 
BRANCH  47  49
ATOM     49  C21 non d ame     -10.330  15.220  69.659  0.00  0.00    -0.038 C 
ATOM     50  H31 non d ame     -10.927  16.071  69.989  0.00  0.00     0.036 H 
ATOM     51  H32 non d ame      -9.576  14.794  70.320  0.00  0.00     0.036 H 
BRANCH  49  52
ATOM     52  C22 non d ame      -9.587  15.676  68.384  0.00  0.00     0.018 C 
ATOM     53  H33 non d ame      -8.788  16.333  68.727  0.00  0.00     0.048 H 
ATOM     54  H34 non d ame      -9.347  14.762  67.840  0.00  0.00     0.048 H 
BRANCH  52  55
ATOM     55  C23 non d ame     -10.460  16.530  67.423  0.00  0.00     0.259 C 
ATOM     56  O7  non d ame     -11.006  17.510  67.813  0.00  0.00    -0.265 OA
BRANCH  55  57
ATOM     57  O8  non d ame     -10.610  16.119  66.069  0.00  0.00    -0.317 OA
BRANCH  57  58
ATOM     58  C29 non d ame      -9.777  15.017  65.699  0.00  0.00     0.052 C 
ATOM     59  H47 non d ame      -9.045  15.422  65.000  0.00  0.00     0.082 H 
ATOM     60  H48 non d ame      -9.446  14.569  66.636  0.00  0.00     0.082 H 
BRANCH  58  61
ATOM     61  C35 non d ame     -10.657  13.984  64.945  0.00  0.00    -0.034 A 
ATOM     62  C30 non d ame     -12.044  14.059  65.027  0.00  0.00    -0.075 A 
ATOM     63  C31 non d ame     -12.834  13.131  64.351  0.00  0.00    -0.082 A 
ATOM     64  H49 non d ame     -12.511  14.844  65.621  0.00  0.00     0.084 H 
ATOM     65  C32 non d ame     -12.233  12.123  63.592  0.00  0.00    -0.083 A 
ATOM     66  H50 non d ame     -13.921  13.193  64.415  0.00  0.00     0.083 H 
ATOM     67  C33 non d ame     -10.848  12.050  63.516  0.00  0.00    -0.082 A 
ATOM     68  H51 non d ame     -12.843  11.394  63.060  0.00  0.00     0.083 H 
ATOM     69  C34 non d ame     -10.055  12.977  64.189  0.00  0.00    -0.075 A 
ATOM     70  H52 non d ame     -10.382  11.261  62.925  0.00  0.00     0.083 H 
ATOM     71  H53 non d ame      -8.968  12.914  64.124  0.00  0.00     0.084 H 
ENDBRANCH  58  61
ENDBRANCH  57  58
ENDBRANCH  55  57
ENDBRANCH  52  55
ENDBRANCH  49  52
ENDBRANCH  47  49
BRANCH  47  72
ATOM     72  C24 non d ame     -12.252  13.958  70.595  0.00  0.00    -0.039 C 
ATOM     73  H35 non d ame     -13.240  13.774  70.172  0.00  0.00     0.036 H 
ATOM     74  H36 non d ame     -11.786  13.209  71.235  0.00  0.00     0.036 H 
BRANCH  72  75
ATOM     75  C25 non d ame     -12.345  15.313  71.444  0.00  0.00    -0.001 C 
ATOM     76  C26 non d ame     -11.719  15.077  72.946  0.00  0.00    -0.035 C 
ATOM     77  C27 non d ame     -12.617  15.506  73.865  0.00  0.00     0.085 C 
ATOM     78  H38 non d ame     -11.633  14.010  73.152  0.00  0.00     0.036 H 
ATOM     79  H39 non d ame     -10.862  15.733  73.102  0.00  0.00     0.036 H 
ATOM     80  N5  non d ame     -13.926  15.709  73.142  0.00  0.00    -0.049 N 
ATOM     81  H40 non d ame     -12.726  14.683  74.573  0.00  0.00     0.075 H 
ATOM     82  H41 non d ame     -12.246  16.472  74.206  0.00  0.00     0.075 H 
ATOM     83  C28 non d ame     -13.570  15.704  71.568  0.00  0.00     0.193 C 
ATOM     84  H42 non d ame     -14.495  14.899  73.346  0.00  0.00     0.280 HD
ATOM     85  H43 non d ame     -14.253  16.631  73.394  0.00  0.00     0.280 HD
ATOM     86  H44 non d ame     -13.538  16.636  71.004  0.00  0.00     0.129 H 
ATOM     87  H37 non d ame     -11.982  16.176  70.886  0.00  0.00     0.046 H 
BRANCH  83  88
ATOM     88  O6  non d ame     -14.479  14.860  70.859  0.00  0.00    -0.369 OA
ATOM     89  H45 non d ame     -15.122  15.401  70.396  0.00  0.00     0.212 HD
ENDBRANCH  83  88
ENDBRANCH  72  75
ENDBRANCH  47  72
ENDBRANCH  45  47
ENDBRANCH   1  43
BRANCH   1  90
ATOM     90  C16 non d ame     -10.321  10.191  66.482  0.00  0.00    -0.035 C 
ATOM     91  H21 non d ame     -11.278   9.712  66.269  0.00  0.00     0.037 H 
ATOM     92  H22 non d ame     -10.062  11.131  65.995  0.00  0.00     0.037 H 
BRANCH  90  93
ATOM     93  C17 non d ame      -9.215   9.165  66.077  0.00  0.00    -0.059 C 
ATOM     94  H23 non d ame      -9.581   8.169  66.326  0.00  0.00     0.038 H 
BRANCH  93  95
ATOM     95  C18 non d ame      -8.919   9.193  64.543  0.00  0.00    -0.073 C 
ATOM     96  H24 non d ame      -7.845   9.282  64.382  0.00  0.00     0.028 H 
ATOM     97  H25 non d ame      -9.280   8.271  64.086  0.00  0.00     0.028 H 
ATOM     98  H26 non d ame      -9.427  10.045  64.091  0.00  0.00     0.028 H 
ENDBRANCH  93  95
BRANCH  93  99
ATOM     99  C19 non d ame      -7.935   9.394  66.883  0.00  0.00    -0.073 C 
ATOM    100  H27 non d ame      -7.976  10.374  67.360  0.00  0.00     0.028 H 
ATOM    101  H28 non d ame      -7.843   8.622  67.647  0.00  0.00     0.028 H 
ATOM    102  H29 non d ame      -7.073   9.350  66.217  0.00  0.00     0.028 H 
ENDBRANCH  93  99
ENDBRANCH  90  93
ENDBRANCH   1  90
TORSDOF 26
ENDMDL
MODEL 6
REMARK VINA RESULT:      -7.3      2.742      7.831
REMARK  26 active torsions:
REMARK  status: ('A' for Active; 'I' for Inactive)
REMARK    1  A    between atoms: C2_2  and  C3_3 
REMARK    2  A    between atoms: C4_6  and  C5_7 
REMARK       I    between atoms: C5_7  and  N2_9 
REMARK    3  A    between atoms: N2_9  and  C6_10 
REMARK    4  A    between atoms: C6_10  and  C7_11 
REMARK    5  A    between atoms: C6_10  and  C8_13 
REMARK       I    between atoms: C7_11  and  N3_14 
REMARK    6  A    between atoms: N3_14  and  C9_15 
REMARK    7  A    between atoms: C9_15  and  C10_16 
REMARK    8  A    between atoms: C9_15  and  C11_18 
REMARK       I    between atoms: C10_16  and  N4_21 
REMARK    9  A    between atoms: C11_18  and  C12_19 
REMARK   10  A    between atoms: C11_18  and  C13_20 
REMARK   11  A    between atoms: N4_21  and  C14_22 
REMARK   12  A    between atoms: C14_22  and  C15_23 
REMARK   13  A    between atoms: C14_22  and  C16_25 
REMARK       I    between atoms: C15_23  and  N6_40 
REMARK   14  A    between atoms: C16_25  and  C17_26 
REMARK   15  A    between atoms: C17_26  and  C18_27 
REMARK   16  A    between atoms: C17_26  and  C19_28 
REMARK   17  A    between atoms: C20_29  and  C21_30 
REMARK   18  A    between atoms: C20_29  and  C24_33 
REMARK   19  A    between atoms: C20_29  and  N6_40 
REMARK   20  A    between atoms: C21_30  and  C22_31 
REMARK   21  A    between atoms: C22_31  and  C23_32 
REMARK   22  A    between atoms: C23_32  and  O8_43 
REMARK   23  A    between atoms: C24_33  and  C25_34 
REMARK   24  A    between atoms: C28_38  and  O6_39 
REMARK   25  A    between atoms: C29_42  and  O8_43 
REMARK   26  A    between atoms: C29_42  and  C35_49 
ROOT
ATOM      1  C14 non d ame     -10.581   9.163  70.193  0.00  0.00     0.089 C 
ATOM      2  H20 non d ame     -10.989   8.257  69.743  0.00  0.00     0.087 H 
ENDROOT
BRANCH   1   3
ATOM      3  N4  non d ame      -9.271   9.394  69.603  0.00  0.00    -0.346 N 
ATOM      4  C10 non d ame      -8.961   8.891  68.215  0.00  0.00     0.241 C 
ATOM      5  O4  non d ame      -9.782   8.301  67.593  0.00  0.00    -0.271 OA
ATOM      6  H19 non d ame      -8.585   9.896  70.150  0.00  0.00     0.163 HD
BRANCH   4   7
ATOM      7  C9  non d ame      -7.601   9.144  67.619  0.00  0.00     0.092 C 
ATOM      8  H11 non d ame      -7.703   9.286  66.543  0.00  0.00     0.088 H 
BRANCH   7   9
ATOM      9  N3  non d ame      -7.048  10.384  68.170  0.00  0.00    -0.346 N 
ATOM     10  C7  non d ame      -7.098  11.601  67.397  0.00  0.00     0.240 C 
ATOM     11  O3  non d ame      -7.579  11.599  66.329  0.00  0.00    -0.271 OA
ATOM     12  H10 non d ame      -6.629  10.401  69.088  0.00  0.00     0.163 HD
BRANCH  10  13
ATOM     13  C6  non d ame      -6.505  12.918  67.987  0.00  0.00     0.086 C 
ATOM     14  H6  non d ame      -5.680  13.312  67.394  0.00  0.00     0.086 H 
BRANCH  13  15
ATOM     15  N2  non d ame      -7.538  13.940  67.993  0.00  0.00    -0.343 N 
ATOM     16  C5  non d ame      -7.226  15.283  67.501  0.00  0.00     0.273 C 
ATOM     17  O2  non d ame      -6.141  15.533  67.106  0.00  0.00    -0.266 OA
ATOM     18  H5  non d ame      -8.463  13.718  68.335  0.00  0.00     0.163 HD
BRANCH  16  19
ATOM     19  C4  non d ame      -8.310  16.373  67.500  0.00  0.00     0.154 A 
ATOM     20  C1  non d ame      -8.642  17.261  66.428  0.00  0.00    -0.017 A 
ATOM     21  C2  non d ame      -9.694  18.059  66.929  0.00  0.00     0.077 A 
ATOM     22  H1  non d ame      -8.189  17.318  65.438  0.00  0.00     0.091 H 
ATOM     23  O1  non d ame      -9.932  17.666  68.146  0.00  0.00    -0.218 OA
ATOM     24  N1  non d ame      -9.137  16.684  68.502  0.00  0.00    -0.123 NA
BRANCH  21  25
ATOM     25  C3  non d ame     -10.417  19.172  66.182  0.00  0.00    -0.029 C 
ATOM     26  H2  non d ame     -11.400  19.330  66.626  0.00  0.00     0.036 H 
ATOM     27  H3  non d ame      -9.836  20.092  66.250  0.00  0.00     0.036 H 
ATOM     28  H4  non d ame     -10.532  18.892  65.134  0.00  0.00     0.036 H 
ENDBRANCH  21  25
ENDBRANCH  16  19
ENDBRANCH  13  15
BRANCH  13  29
ATOM     29  C8  non d ame      -6.018  12.667  69.392  0.00  0.00    -0.049 C 
ATOM     30  H7  non d ame      -6.147  13.571  69.988  0.00  0.00     0.030 H 
ATOM     31  H8  non d ame      -6.593  11.854  69.836  0.00  0.00     0.030 H 
ATOM     32  H9  non d ame      -4.963  12.396  69.368  0.00  0.00     0.030 H 
ENDBRANCH  13  29
ENDBRANCH  10  13
ENDBRANCH   7   9
BRANCH   7  33
ATOM     33  C11 non d ame      -6.654   7.958  67.966  0.00  0.00    -0.033 C 
ATOM     34  H12 non d ame      -7.158   7.342  68.710  0.00  0.00     0.042 H 
BRANCH  33  35
ATOM     35  C12 non d ame      -6.387   7.059  66.718  0.00  0.00    -0.071 C 
ATOM     36  H13 non d ame      -7.278   6.472  66.495  0.00  0.00     0.028 H 
ATOM     37  H14 non d ame      -6.146   7.690  65.862  0.00  0.00     0.028 H 
ATOM     38  H15 non d ame      -5.553   6.390  66.924  0.00  0.00     0.028 H 
ENDBRANCH  33  35
BRANCH  33  39
ATOM     39  C13 non d ame      -5.318   8.473  68.589  0.00  0.00    -0.071 C 
ATOM     40  H16 non d ame      -5.456   9.490  68.955  0.00  0.00     0.028 H 
ATOM     41  H17 non d ame      -5.029   7.825  69.417  0.00  0.00     0.028 H 
ATOM     42  H18 non d ame      -4.535   8.462  67.830  0.00  0.00     0.028 H 
ENDBRANCH  33  39
ENDBRANCH   7  33
ENDBRANCH   4   7
ENDBRANCH   1   3
BRANCH   1  43
ATOM     43  C15 non d ame     -11.474  10.407  69.918  0.00  0.00     0.240 C 
ATOM     44  O5  non d ame     -12.626  10.384  70.208  0.00  0.00    -0.271 OA
ATOM     45  N6  non d ame     -10.890  11.632  69.300  0.00  0.00    -0.355 N 
ATOM     46  H46 non d ame      -9.911  11.665  69.053  0.00  0.00     0.162 HD
BRANCH  45  47
ATOM     47  C20 non d ame     -11.751  12.807  69.046  0.00  0.00     0.013 C 
ATOM     48  H30 non d ame     -12.678  12.669  69.602  0.00  0.00     0.072 H 
BRANCH  47  49
ATOM     49  C21 non d ame     -12.045  12.901  67.566  0.00  0.00    -0.038 C 
ATOM     50  H31 non d ame     -12.984  12.367  67.418  0.00  0.00     0.036 H 
ATOM     51  H32 non d ame     -11.975  13.960  67.319  0.00  0.00     0.036 H 
BRANCH  49  52
ATOM     52  C22 non d ame     -10.991  12.179  66.699  0.00  0.00     0.018 C 
ATOM     53  H33 non d ame     -10.117  12.055  67.338  0.00  0.00     0.048 H 
ATOM     54  H34 non d ame     -11.496  11.303  66.289  0.00  0.00     0.048 H 
BRANCH  52  55
ATOM     55  C23 non d ame     -10.513  13.008  65.475  0.00  0.00     0.259 C 
ATOM     56  O7  non d ame     -10.228  14.155  65.598  0.00  0.00    -0.265 OA
BRANCH  55  57
ATOM     57  O8  non d ame     -10.430  12.384  64.200  0.00  0.00    -0.317 OA
BRANCH  57  58
ATOM     58  C29 non d ame     -10.505  10.956  64.244  0.00  0.00     0.052 C 
ATOM     59  H47 non d ame     -10.369  10.686  65.291  0.00  0.00     0.082 H 
ATOM     60  H48 non d ame     -11.429  10.693  63.729  0.00  0.00     0.082 H 
BRANCH  58  61
ATOM     61  C35 non d ame      -9.311  10.388  63.431  0.00  0.00    -0.034 A 
ATOM     62  C30 non d ame      -8.716   9.190  63.813  0.00  0.00    -0.075 A 
ATOM     63  C31 non d ame      -7.644   8.680  63.083  0.00  0.00    -0.082 A 
ATOM     64  H49 non d ame      -9.090   8.651  64.683  0.00  0.00     0.084 H 
ATOM     65  C32 non d ame      -7.164   9.375  61.969  0.00  0.00    -0.083 A 
ATOM     66  H50 non d ame      -7.181   7.740  63.383  0.00  0.00     0.083 H 
ATOM     67  C33 non d ame      -7.759  10.572  61.594  0.00  0.00    -0.082 A 
ATOM     68  H51 non d ame      -6.326   8.982  61.392  0.00  0.00     0.083 H 
ATOM     69  C34 non d ame      -8.833  11.084  62.319  0.00  0.00    -0.075 A 
ATOM     70  H52 non d ame      -7.382  11.112  60.726  0.00  0.00     0.083 H 
ATOM     71  H53 non d ame      -9.296  12.024  62.018  0.00  0.00     0.084 H 
ENDBRANCH  58  61
ENDBRANCH  57  58
ENDBRANCH  55  57
ENDBRANCH  52  55
ENDBRANCH  49  52
ENDBRANCH  47  49
BRANCH  47  72
ATOM     72  C24 non d ame     -11.040  14.078  69.507  0.00  0.00    -0.039 C 
ATOM     73  H35 non d ame     -10.034  13.762  69.786  0.00  0.00     0.036 H 
ATOM     74  H36 non d ame     -11.180  14.797  68.700  0.00  0.00     0.036 H 
BRANCH  72  75
ATOM     75  C25 non d ame     -11.722  14.698  70.817  0.00  0.00    -0.001 C 
ATOM     76  C26 non d ame     -12.780  13.616  71.462  0.00  0.00    -0.035 C 
ATOM     77  C27 non d ame     -13.971  14.232  71.653  0.00  0.00     0.085 C 
ATOM     78  H38 non d ame     -13.009  12.838  70.735  0.00  0.00     0.036 H 
ATOM     79  H39 non d ame     -12.468  13.345  72.471  0.00  0.00     0.036 H 
ATOM     80  N5  non d ame     -13.920  15.537  70.897  0.00  0.00    -0.049 N 
ATOM     81  H40 non d ame     -14.714  13.581  71.189  0.00  0.00     0.075 H 
ATOM     82  H41 non d ame     -14.022  14.442  72.721  0.00  0.00     0.075 H 
ATOM     83  C28 non d ame     -12.365  15.783  70.540  0.00  0.00     0.193 C 
ATOM     84  H42 non d ame     -14.428  15.390  70.037  0.00  0.00     0.280 HD
ATOM     85  H43 non d ame     -14.218  16.254  71.543  0.00  0.00     0.280 HD
ATOM     86  H44 non d ame     -11.776  16.510  71.100  0.00  0.00     0.129 H 
ATOM     87  H37 non d ame     -10.991  15.140  71.493  0.00  0.00     0.046 H 
BRANCH  83  88
ATOM     88  O6  non d ame     -12.227  16.156  69.168  0.00  0.00    -0.369 OA
ATOM     89  H45 non d ame     -13.092  16.354  68.802  0.00  0.00     0.212 HD
ENDBRANCH  83  88
ENDBRANCH  72  75
ENDBRANCH  47  72
ENDBRANCH  45  47
ENDBRANCH   1  43
BRANCH   1  90
ATOM     90  C16 non d ame     -10.423   8.969  71.692  0.00  0.00    -0.035 C 
ATOM     91  H21 non d ame      -9.384   8.671  71.837  0.00  0.00     0.037 H 
ATOM     92  H22 non d ame     -10.794   9.889  72.143  0.00  0.00     0.037 H 
BRANCH  90  93
ATOM     93  C17 non d ame     -11.298   7.810  72.269  0.00  0.00    -0.059 C 
ATOM     94  H23 non d ame     -12.212   8.252  72.666  0.00  0.00     0.038 H 
BRANCH  93  95
ATOM     95  C18 non d ame     -11.707   6.777  71.171  0.00  0.00    -0.073 C 
ATOM     96  H24 non d ame     -11.882   5.806  71.633  0.00  0.00     0.028 H 
ATOM     97  H25 non d ame     -12.618   7.114  70.676  0.00  0.00     0.028 H 
ATOM     98  H26 non d ame     -10.905   6.691  70.437  0.00  0.00     0.028 H 
ENDBRANCH  93  95
BRANCH  93  99
ATOM     99  C19 non d ame     -10.586   7.115  73.433  0.00  0.00    -0.073 C 
ATOM    100  H27 non d ame     -10.890   6.069  73.472  0.00  0.00     0.028 H 
ATOM    101  H28 non d ame      -9.507   7.175  73.286  0.00  0.00     0.028 H 
ATOM    102  H29 non d ame     -10.853   7.607  74.368  0.00  0.00     0.028 H 
ENDBRANCH  93  99
ENDBRANCH  90  93
ENDBRANCH   1  90
TORSDOF 26
ENDMDL
MODEL 7
REMARK VINA RESULT:      -7.2      2.770      9.872
REMARK  26 active torsions:
REMARK  status: ('A' for Active; 'I' for Inactive)
REMARK    1  A    between atoms: C2_2  and  C3_3 
REMARK    2  A    between atoms: C4_6  and  C5_7 
REMARK       I    between atoms: C5_7  and  N2_9 
REMARK    3  A    between atoms: N2_9  and  C6_10 
REMARK    4  A    between atoms: C6_10  and  C7_11 
REMARK    5  A    between atoms: C6_10  and  C8_13 
REMARK       I    between atoms: C7_11  and  N3_14 
REMARK    6  A    between atoms: N3_14  and  C9_15 
REMARK    7  A    between atoms: C9_15  and  C10_16 
REMARK    8  A    between atoms: C9_15  and  C11_18 
REMARK       I    between atoms: C10_16  and  N4_21 
REMARK    9  A    between atoms: C11_18  and  C12_19 
REMARK   10  A    between atoms: C11_18  and  C13_20 
REMARK   11  A    between atoms: N4_21  and  C14_22 
REMARK   12  A    between atoms: C14_22  and  C15_23 
REMARK   13  A    between atoms: C14_22  and  C16_25 
REMARK       I    between atoms: C15_23  and  N6_40 
REMARK   14  A    between atoms: C16_25  and  C17_26 
REMARK   15  A    between atoms: C17_26  and  C18_27 
REMARK   16  A    between atoms: C17_26  and  C19_28 
REMARK   17  A    between atoms: C20_29  and  C21_30 
REMARK   18  A    between atoms: C20_29  and  C24_33 
REMARK   19  A    between atoms: C20_29  and  N6_40 
REMARK   20  A    between atoms: C21_30  and  C22_31 
REMARK   21  A    between atoms: C22_31  and  C23_32 
REMARK   22  A    between atoms: C23_32  and  O8_43 
REMARK   23  A    between atoms: C24_33  and  C25_34 
REMARK   24  A    between atoms: C28_38  and  O6_39 
REMARK   25  A    between atoms: C29_42  and  O8_43 
REMARK   26  A    between atoms: C29_42  and  C35_49 
ROOT
ATOM      1  C14 non d ame     -10.433  10.431  67.607  0.00  0.00     0.089 C 
ATOM      2  H20 non d ame      -9.410  10.543  67.968  0.00  0.00     0.087 H 
ENDROOT
BRANCH   1   3
ATOM      3  N4  non d ame     -11.047   9.348  68.361  0.00  0.00    -0.346 N 
ATOM      4  C10 non d ame     -10.675   9.116  69.803  0.00  0.00     0.241 C 
ATOM      5  O4  non d ame      -9.875   9.813  70.336  0.00  0.00    -0.271 OA
ATOM      6  H19 non d ame     -11.724   8.764  67.888  0.00  0.00     0.163 HD
BRANCH   4   7
ATOM      7  C9  non d ame     -11.325   7.994  70.569  0.00  0.00     0.092 C 
ATOM      8  H11 non d ame     -12.287   7.759  70.114  0.00  0.00     0.088 H 
BRANCH   7   9
ATOM      9  N3  non d ame     -10.494   6.790  70.473  0.00  0.00    -0.346 N 
ATOM     10  C7  non d ame     -10.642   5.901  69.348  0.00  0.00     0.240 C 
ATOM     11  O3  non d ame     -11.426   6.137  68.511  0.00  0.00    -0.271 OA
ATOM     12  H10 non d ame      -9.814   6.572  71.188  0.00  0.00     0.163 HD
BRANCH  10  13
ATOM     13  C6  non d ame      -9.757   4.619  69.253  0.00  0.00     0.086 C 
ATOM     14  H6  non d ame     -10.274   3.783  68.782  0.00  0.00     0.086 H 
BRANCH  13  15
ATOM     15  N2  non d ame      -8.596   4.908  68.426  0.00  0.00    -0.343 N 
ATOM     16  C5  non d ame      -8.614   4.548  67.007  0.00  0.00     0.273 C 
ATOM     17  O2  non d ame      -9.565   4.023  66.540  0.00  0.00    -0.266 OA
ATOM     18  H5  non d ame      -7.787   5.354  68.834  0.00  0.00     0.163 HD
BRANCH  16  19
ATOM     19  C4  non d ame      -7.395   4.849  66.121  0.00  0.00     0.154 A 
ATOM     20  C1  non d ame      -7.366   5.641  64.929  0.00  0.00    -0.017 A 
ATOM     21  C2  non d ame      -6.020   5.605  64.502  0.00  0.00     0.077 A 
ATOM     22  H1  non d ame      -8.195   6.161  64.449  0.00  0.00     0.091 H 
ATOM     23  O1  non d ame      -5.361   4.877  65.355  0.00  0.00    -0.218 OA
ATOM     24  N1  non d ame      -6.142   4.424  66.309  0.00  0.00    -0.123 NA
BRANCH  21  25
ATOM     25  C3  non d ame      -5.447   6.293  63.270  0.00  0.00    -0.029 C 
ATOM     26  H2  non d ame      -4.820   7.130  63.579  0.00  0.00     0.036 H 
ATOM     27  H3  non d ame      -4.849   5.581  62.701  0.00  0.00     0.036 H 
ATOM     28  H4  non d ame      -6.262   6.661  62.646  0.00  0.00     0.036 H 
ENDBRANCH  21  25
ENDBRANCH  16  19
ENDBRANCH  13  15
BRANCH  13  29
ATOM     29  C8  non d ame      -9.317   4.205  70.634  0.00  0.00    -0.049 C 
ATOM     30  H7  non d ame      -8.284   3.858  70.598  0.00  0.00     0.030 H 
ATOM     31  H8  non d ame      -9.391   5.057  71.310  0.00  0.00     0.030 H 
ATOM     32  H9  non d ame      -9.957   3.399  70.992  0.00  0.00     0.030 H 
ENDBRANCH  13  29
ENDBRANCH  10  13
ENDBRANCH   7   9
BRANCH   7  33
ATOM     33  C11 non d ame     -11.470   8.403  72.065  0.00  0.00    -0.033 C 
ATOM     34  H12 non d ame     -10.843   9.280  72.228  0.00  0.00     0.042 H 
BRANCH  33  35
ATOM     35  C12 non d ame     -12.939   8.806  72.404  0.00  0.00    -0.071 C 
ATOM     36  H13 non d ame     -12.939   9.743  72.961  0.00  0.00     0.028 H 
ATOM     37  H14 non d ame     -13.502   8.934  71.480  0.00  0.00     0.028 H 
ATOM     38  H15 non d ame     -13.400   8.025  73.007  0.00  0.00     0.028 H 
ENDBRANCH  33  35
BRANCH  33  39
ATOM     39  C13 non d ame     -10.963   7.265  73.007  0.00  0.00    -0.071 C 
ATOM     40  H16 non d ame     -11.189   7.522  74.042  0.00  0.00     0.028 H 
ATOM     41  H17 non d ame     -11.461   6.330  72.748  0.00  0.00     0.028 H 
ATOM     42  H18 non d ame      -9.886   7.148  72.889  0.00  0.00     0.028 H 
ENDBRANCH  33  39
ENDBRANCH   7  33
ENDBRANCH   4   7
ENDBRANCH   1   3
BRANCH   1  43
ATOM     43  C15 non d ame     -11.275  11.721  67.819  0.00  0.00     0.240 C 
ATOM     44  O5  non d ame     -12.048  12.066  66.984  0.00  0.00    -0.271 OA
ATOM     45  N6  non d ame     -11.123  12.524  69.066  0.00  0.00    -0.355 N 
ATOM     46  H46 non d ame     -10.473  12.238  69.784  0.00  0.00     0.162 HD
BRANCH  45  47
ATOM     47  C20 non d ame     -11.932  13.747  69.253  0.00  0.00     0.013 C 
ATOM     48  H30 non d ame     -12.750  13.722  68.533  0.00  0.00     0.072 H 
BRANCH  47  49
ATOM     49  C21 non d ame     -11.066  14.962  69.007  0.00  0.00    -0.038 C 
ATOM     50  H31 non d ame     -11.324  15.311  68.007  0.00  0.00     0.036 H 
ATOM     51  H32 non d ame     -11.219  15.612  69.868  0.00  0.00     0.036 H 
BRANCH  49  52
ATOM     52  C22 non d ame      -9.559  14.626  68.975  0.00  0.00     0.018 C 
ATOM     53  H33 non d ame      -9.095  15.281  69.713  0.00  0.00     0.048 H 
ATOM     54  H34 non d ame      -9.495  13.544  69.092  0.00  0.00     0.048 H 
BRANCH  52  55
ATOM     55  C23 non d ame      -8.872  14.952  67.620  0.00  0.00     0.259 C 
ATOM     56  O7  non d ame      -9.322  14.539  66.601  0.00  0.00    -0.265 OA
BRANCH  55  57
ATOM     57  O8  non d ame      -7.689  15.742  67.610  0.00  0.00    -0.317 OA
BRANCH  57  58
ATOM     58  C29 non d ame      -7.695  16.810  68.562  0.00  0.00     0.052 C 
ATOM     59  H47 non d ame      -8.259  16.439  69.418  0.00  0.00     0.082 H 
ATOM     60  H48 non d ame      -6.652  17.102  68.683  0.00  0.00     0.082 H 
BRANCH  58  61
ATOM     61  C35 non d ame      -8.470  18.002  67.941  0.00  0.00    -0.034 A 
ATOM     62  C30 non d ame      -9.575  18.533  68.598  0.00  0.00    -0.075 A 
ATOM     63  C31 non d ame     -10.272  19.603  68.040  0.00  0.00    -0.082 A 
ATOM     64  H49 non d ame      -9.895  18.110  69.551  0.00  0.00     0.084 H 
ATOM     65  C32 non d ame      -9.861  20.142  66.818  0.00  0.00    -0.083 A 
ATOM     66  H50 non d ame     -11.136  20.019  68.559  0.00  0.00     0.083 H 
ATOM     67  C33 non d ame      -8.760  19.607  66.164  0.00  0.00    -0.082 A 
ATOM     68  H51 non d ame     -10.400  20.980  66.375  0.00  0.00     0.083 H 
ATOM     69  C34 non d ame      -8.059  18.538  66.719  0.00  0.00    -0.075 A 
ATOM     70  H52 non d ame      -8.443  20.028  65.209  0.00  0.00     0.083 H 
ATOM     71  H53 non d ame      -7.194  18.124  66.200  0.00  0.00     0.084 H 
ENDBRANCH  58  61
ENDBRANCH  57  58
ENDBRANCH  55  57
ENDBRANCH  52  55
ENDBRANCH  49  52
ENDBRANCH  47  49
BRANCH  47  72
ATOM     72  C24 non d ame     -12.480  13.792  70.677  0.00  0.00    -0.039 C 
ATOM     73  H35 non d ame     -13.488  13.381  70.614  0.00  0.00     0.036 H 
ATOM     74  H36 non d ame     -11.728  13.299  71.293  0.00  0.00     0.036 H 
BRANCH  72  75
ATOM     75  C25 non d ame     -12.617  15.296  71.213  0.00  0.00    -0.001 C 
ATOM     76  C26 non d ame     -11.763  15.474  72.607  0.00  0.00    -0.035 C 
ATOM     77  C27 non d ame     -12.569  16.028  73.544  0.00  0.00     0.085 C 
ATOM     78  H38 non d ame     -11.521  14.497  73.024  0.00  0.00     0.036 H 
ATOM     79  H39 non d ame     -10.979  16.219  72.473  0.00  0.00     0.036 H 
ATOM     80  N5  non d ame     -13.981  15.942  73.019  0.00  0.00    -0.049 N 
ATOM     81  H40 non d ame     -12.477  15.388  74.423  0.00  0.00     0.075 H 
ATOM     82  H41 non d ame     -12.273  17.075  73.600  0.00  0.00     0.075 H 
ATOM     83  C28 non d ame     -13.851  15.598  71.447  0.00  0.00     0.193 C 
ATOM     84  H42 non d ame     -14.413  15.157  73.485  0.00  0.00     0.280 HD
ATOM     85  H43 non d ame     -14.378  16.867  73.113  0.00  0.00     0.280 HD
ATOM     86  H44 non d ame     -14.011  16.372  70.696  0.00  0.00     0.129 H 
ATOM     87  H37 non d ame     -12.443  16.031  70.427  0.00  0.00     0.046 H 
BRANCH  83  88
ATOM     88  O6  non d ame     -14.741  14.537  71.099  0.00  0.00    -0.369 OA
ATOM     89  H45 non d ame     -15.171  14.208  71.891  0.00  0.00     0.212 HD
ENDBRANCH  83  88
ENDBRANCH  72  75
ENDBRANCH  47  72
ENDBRANCH  45  47
ENDBRANCH   1  43
BRANCH   1  90
ATOM     90  C16 non d ame     -10.421  10.064  66.132  0.00  0.00    -0.035 C 
ATOM     91  H21 non d ame     -10.830   9.055  66.082  0.00  0.00     0.037 H 
ATOM     92  H22 non d ame     -10.931  10.884  65.626  0.00  0.00     0.037 H 
BRANCH  90  93
ATOM     93  C17 non d ame      -8.987   9.990  65.516  0.00  0.00    -0.059 C 
ATOM     94  H23 non d ame      -8.578  11.000  65.508  0.00  0.00     0.038 H 
BRANCH  93  95
ATOM     95  C18 non d ame      -8.028   9.093  66.364  0.00  0.00    -0.073 C 
ATOM     96  H24 non d ame      -7.582   9.690  67.160  0.00  0.00     0.028 H 
ATOM     97  H25 non d ame      -8.592   8.268  66.799  0.00  0.00     0.028 H 
ATOM     98  H26 non d ame      -7.241   8.697  65.722  0.00  0.00     0.028 H 
ENDBRANCH  93  95
BRANCH  93  99
ATOM     99  C19 non d ame      -9.040   9.509  64.064  0.00  0.00    -0.073 C 
ATOM    100  H27 non d ame      -8.717  10.314  63.403  0.00  0.00     0.028 H 
ATOM    101  H28 non d ame      -8.379   8.650  63.941  0.00  0.00     0.028 H 
ATOM    102  H29 non d ame     -10.060   9.221  63.813  0.00  0.00     0.028 H 
ENDBRANCH  93  99
ENDBRANCH  90  93
ENDBRANCH   1  90
TORSDOF 26
ENDMDL
MODEL 8
REMARK VINA RESULT:      -7.2      2.740      9.544
REMARK  26 active torsions:
REMARK  status: ('A' for Active; 'I' for Inactive)
REMARK    1  A    between atoms: C2_2  and  C3_3 
REMARK    2  A    between atoms: C4_6  and  C5_7 
REMARK       I    between atoms: C5_7  and  N2_9 
REMARK    3  A    between atoms: N2_9  and  C6_10 
REMARK    4  A    between atoms: C6_10  and  C7_11 
REMARK    5  A    between atoms: C6_10  and  C8_13 
REMARK       I    between atoms: C7_11  and  N3_14 
REMARK    6  A    between atoms: N3_14  and  C9_15 
REMARK    7  A    between atoms: C9_15  and  C10_16 
REMARK    8  A    between atoms: C9_15  and  C11_18 
REMARK       I    between atoms: C10_16  and  N4_21 
REMARK    9  A    between atoms: C11_18  and  C12_19 
REMARK   10  A    between atoms: C11_18  and  C13_20 
REMARK   11  A    between atoms: N4_21  and  C14_22 
REMARK   12  A    between atoms: C14_22  and  C15_23 
REMARK   13  A    between atoms: C14_22  and  C16_25 
REMARK       I    between atoms: C15_23  and  N6_40 
REMARK   14  A    between atoms: C16_25  and  C17_26 
REMARK   15  A    between atoms: C17_26  and  C18_27 
REMARK   16  A    between atoms: C17_26  and  C19_28 
REMARK   17  A    between atoms: C20_29  and  C21_30 
REMARK   18  A    between atoms: C20_29  and  C24_33 
REMARK   19  A    between atoms: C20_29  and  N6_40 
REMARK   20  A    between atoms: C21_30  and  C22_31 
REMARK   21  A    between atoms: C22_31  and  C23_32 
REMARK   22  A    between atoms: C23_32  and  O8_43 
REMARK   23  A    between atoms: C24_33  and  C25_34 
REMARK   24  A    between atoms: C28_38  and  O6_39 
REMARK   25  A    between atoms: C29_42  and  O8_43 
REMARK   26  A    between atoms: C29_42  and  C35_49 
ROOT
ATOM      1  C14 non d ame     -10.804   9.158  70.546  0.00  0.00     0.089 C 
ATOM      2  H20 non d ame     -11.083   8.232  70.044  0.00  0.00     0.087 H 
ENDROOT
BRANCH   1   3
ATOM      3  N4  non d ame      -9.407   9.423  70.234  0.00  0.00    -0.346 N 
ATOM      4  C10 non d ame      -8.439   8.281  70.050  0.00  0.00     0.241 C 
ATOM      5  O4  non d ame      -8.806   7.158  70.162  0.00  0.00    -0.271 OA
ATOM      6  H19 non d ame      -9.114  10.385  70.145  0.00  0.00     0.163 HD
BRANCH   4   7
ATOM      7  C9  non d ame      -6.998   8.573  69.722  0.00  0.00     0.092 C 
ATOM      8  H11 non d ame      -6.382   7.727  70.027  0.00  0.00     0.088 H 
BRANCH   7   9
ATOM      9  N3  non d ame      -6.847   8.718  68.271  0.00  0.00    -0.346 N 
ATOM     10  C7  non d ame      -6.379   7.606  67.480  0.00  0.00     0.240 C 
ATOM     11  O3  non d ame      -6.118   6.588  67.995  0.00  0.00    -0.271 OA
ATOM     12  H10 non d ame      -7.066   9.591  67.812  0.00  0.00     0.163 HD
BRANCH  10  13
ATOM     13  C6  non d ame      -6.218   7.767  65.937  0.00  0.00     0.086 C 
ATOM     14  H6  non d ame      -6.473   6.861  65.389  0.00  0.00     0.086 H 
BRANCH  13  15
ATOM     15  N2  non d ame      -7.126   8.803  65.473  0.00  0.00    -0.343 N 
ATOM     16  C5  non d ame      -7.874   8.604  64.230  0.00  0.00     0.273 C 
ATOM     17  O2  non d ame      -7.736   7.608  63.609  0.00  0.00    -0.266 OA
ATOM     18  H5  non d ame      -7.236   9.653  66.010  0.00  0.00     0.163 HD
BRANCH  16  19
ATOM     19  C4  non d ame      -8.838   9.690  63.729  0.00  0.00     0.154 A 
ATOM     20  C1  non d ame      -9.961  10.238  64.428  0.00  0.00    -0.017 A 
ATOM     21  C2  non d ame     -10.510  11.192  63.542  0.00  0.00     0.077 A 
ATOM     22  H1  non d ame     -10.322   9.983  65.424  0.00  0.00     0.091 H 
ATOM     23  O1  non d ame      -9.779  11.186  62.465  0.00  0.00    -0.218 OA
ATOM     24  N1  non d ame      -8.798  10.317  62.551  0.00  0.00    -0.123 NA
BRANCH  21  25
ATOM     25  C3  non d ame     -11.729  12.067  63.801  0.00  0.00    -0.029 C 
ATOM     26  H2  non d ame     -12.097  11.888  64.812  0.00  0.00     0.036 H 
ATOM     27  H3  non d ame     -11.453  13.116  63.694  0.00  0.00     0.036 H 
ATOM     28  H4  non d ame     -12.512  11.822  63.082  0.00  0.00     0.036 H 
ENDBRANCH  21  25
ENDBRANCH  16  19
ENDBRANCH  13  15
BRANCH  13  29
ATOM     29  C8  non d ame      -4.794   8.146  65.614  0.00  0.00    -0.049 C 
ATOM     30  H7  non d ame      -4.619   9.182  65.905  0.00  0.00     0.030 H 
ATOM     31  H8  non d ame      -4.112   7.495  66.161  0.00  0.00     0.030 H 
ATOM     32  H9  non d ame      -4.623   8.036  64.544  0.00  0.00     0.030 H 
ENDBRANCH  13  29
ENDBRANCH  10  13
ENDBRANCH   7   9
BRANCH   7  33
ATOM     33  C11 non d ame      -6.564   9.895  70.420  0.00  0.00    -0.033 C 
ATOM     34  H12 non d ame      -7.391  10.220  71.051  0.00  0.00     0.042 H 
BRANCH  33  35
ATOM     35  C12 non d ame      -5.328   9.669  71.346  0.00  0.00    -0.071 C 
ATOM     36  H13 non d ame      -4.852  10.627  71.557  0.00  0.00     0.028 H 
ATOM     37  H14 non d ame      -5.653   9.212  72.281  0.00  0.00     0.028 H 
ATOM     38  H15 non d ame      -4.616   9.011  70.848  0.00  0.00     0.028 H 
ENDBRANCH  33  35
BRANCH  33  39
ATOM     39  C13 non d ame      -6.287  11.018  69.370  0.00  0.00    -0.071 C 
ATOM     40  H16 non d ame      -5.305  11.452  69.553  0.00  0.00     0.028 H 
ATOM     41  H17 non d ame      -6.314  10.592  68.366  0.00  0.00     0.028 H 
ATOM     42  H18 non d ame      -7.049  11.792  69.457  0.00  0.00     0.028 H 
ENDBRANCH  33  39
ENDBRANCH   7  33
ENDBRANCH   4   7
ENDBRANCH   1   3
BRANCH   1  43
ATOM     43  C15 non d ame     -11.656  10.367  70.064  0.00  0.00     0.240 C 
ATOM     44  O5  non d ame     -12.843  10.301  70.088  0.00  0.00    -0.271 OA
ATOM     45  N6  non d ame     -10.993  11.612  69.581  0.00  0.00    -0.355 N 
ATOM     46  H46 non d ame      -9.986  11.682  69.560  0.00  0.00     0.162 HD
BRANCH  45  47
ATOM     47  C20 non d ame     -11.818  12.753  69.127  0.00  0.00     0.013 C 
ATOM     48  H30 non d ame     -12.815  12.635  69.550  0.00  0.00     0.072 H 
BRANCH  47  49
ATOM     49  C21 non d ame     -11.892  12.746  67.617  0.00  0.00    -0.038 C 
ATOM     50  H31 non d ame     -11.156  12.013  67.289  0.00  0.00     0.036 H 
ATOM     51  H32 non d ame     -12.946  12.607  67.376  0.00  0.00     0.036 H 
BRANCH  49  52
ATOM     52  C22 non d ame     -11.475  14.094  66.991  0.00  0.00     0.018 C 
ATOM     53  H33 non d ame     -12.153  14.252  66.151  0.00  0.00     0.048 H 
ATOM     54  H34 non d ame     -11.452  14.808  67.814  0.00  0.00     0.048 H 
BRANCH  52  55
ATOM     55  C23 non d ame     -10.043  14.089  66.389  0.00  0.00     0.259 C 
ATOM     56  O7  non d ame      -9.366  13.114  66.452  0.00  0.00    -0.265 OA
BRANCH  55  57
ATOM     57  O8  non d ame      -9.542  15.268  65.770  0.00  0.00    -0.317 OA
BRANCH  57  58
ATOM     58  C29 non d ame     -10.533  16.276  65.552  0.00  0.00     0.052 C 
ATOM     59  H47 non d ame     -10.416  16.585  64.513  0.00  0.00     0.082 H 
ATOM     60  H48 non d ame     -11.475  15.843  65.888  0.00  0.00     0.082 H 
BRANCH  58  61
ATOM     61  C35 non d ame     -10.195  17.485  66.464  0.00  0.00    -0.034 A 
ATOM     62  C30 non d ame     -10.486  18.779  66.042  0.00  0.00    -0.075 A 
ATOM     63  C31 non d ame     -10.182  19.865  66.862  0.00  0.00    -0.082 A 
ATOM     64  H49 non d ame     -10.951  18.942  65.070  0.00  0.00     0.084 H 
ATOM     65  C32 non d ame      -9.583  19.654  68.107  0.00  0.00    -0.083 A 
ATOM     66  H50 non d ame     -10.413  20.877  66.530  0.00  0.00     0.083 H 
ATOM     67  C33 non d ame      -9.293  18.362  68.522  0.00  0.00    -0.082 A 
ATOM     68  H51 non d ame      -9.343  20.498  68.754  0.00  0.00     0.083 H 
ATOM     69  C34 non d ame      -9.596  17.273  67.707  0.00  0.00    -0.075 A 
ATOM     70  H52 non d ame      -8.823  18.200  69.493  0.00  0.00     0.083 H 
ATOM     71  H53 non d ame      -9.366  16.261  68.041  0.00  0.00     0.084 H 
ENDBRANCH  58  61
ENDBRANCH  57  58
ENDBRANCH  55  57
ENDBRANCH  52  55
ENDBRANCH  49  52
ENDBRANCH  47  49
BRANCH  47  72
ATOM     72  C24 non d ame     -11.192  14.063  69.601  0.00  0.00    -0.039 C 
ATOM     73  H35 non d ame     -10.161  13.816  69.856  0.00  0.00     0.036 H 
ATOM     74  H36 non d ame     -11.400  14.786  68.812  0.00  0.00     0.036 H 
BRANCH  72  75
ATOM     75  C25 non d ame     -11.892  14.605  70.936  0.00  0.00    -0.001 C 
ATOM     76  C26 non d ame     -12.918  13.467  71.532  0.00  0.00    -0.035 C 
ATOM     77  C27 non d ame     -14.127  14.040  71.748  0.00  0.00     0.085 C 
ATOM     78  H38 non d ame     -13.126  12.715  70.771  0.00  0.00     0.036 H 
ATOM     79  H39 non d ame     -12.600  13.161  72.528  0.00  0.00     0.036 H 
ATOM     80  N5  non d ame     -14.112  15.378  71.050  0.00  0.00    -0.049 N 
ATOM     81  H40 non d ame     -14.850  13.389  71.255  0.00  0.00     0.075 H 
ATOM     82  H41 non d ame     -14.184  14.201  72.824  0.00  0.00     0.075 H 
ATOM     83  C28 non d ame     -12.565  15.683  70.707  0.00  0.00     0.193 C 
ATOM     84  H42 non d ame     -14.616  15.254  70.184  0.00  0.00     0.280 HD
ATOM     85  H43 non d ame     -14.431  16.057  71.727  0.00  0.00     0.280 HD
ATOM     86  H44 non d ame     -11.997  16.401  71.299  0.00  0.00     0.129 H 
ATOM     87  H37 non d ame     -11.173  15.038  71.633  0.00  0.00     0.046 H 
BRANCH  83  88
ATOM     88  O6  non d ame     -12.437  16.120  69.352  0.00  0.00    -0.369 OA
ATOM     89  H45 non d ame     -13.283  16.033  68.907  0.00  0.00     0.212 HD
ENDBRANCH  83  88
ENDBRANCH  72  75
ENDBRANCH  47  72
ENDBRANCH  45  47
ENDBRANCH   1  43
BRANCH   1  90
ATOM     90  C16 non d ame     -10.953   8.995  72.050  0.00  0.00    -0.035 C 
ATOM     91  H21 non d ame      -9.937   9.007  72.444  0.00  0.00     0.037 H 
ATOM     92  H22 non d ame     -11.665   9.762  72.355  0.00  0.00     0.037 H 
BRANCH  90  93
ATOM     93  C17 non d ame     -11.574   7.625  72.473  0.00  0.00    -0.059 C 
ATOM     94  H23 non d ame     -12.430   7.834  73.114  0.00  0.00     0.038 H 
BRANCH  93  95
ATOM     95  C18 non d ame     -12.086   6.806  71.245  0.00  0.00    -0.073 C 
ATOM     96  H24 non d ame     -11.235   6.463  70.657  0.00  0.00     0.028 H 
ATOM     97  H25 non d ame     -12.657   5.946  71.594  0.00  0.00     0.028 H 
ATOM     98  H26 non d ame     -12.723   7.439  70.626  0.00  0.00     0.028 H 
ENDBRANCH  93  95
BRANCH  93  99
ATOM     99  C19 non d ame     -10.578   6.805  73.297  0.00  0.00    -0.073 C 
ATOM    100  H27 non d ame     -10.298   5.909  72.743  0.00  0.00     0.028 H 
ATOM    101  H28 non d ame      -9.689   7.404  73.493  0.00  0.00     0.028 H 
ATOM    102  H29 non d ame     -11.038   6.519  74.243  0.00  0.00     0.028 H 
ENDBRANCH  93  99
ENDBRANCH  90  93
ENDBRANCH   1  90
TORSDOF 26
ENDMDL
MODEL 9
REMARK VINA RESULT:      -7.2      2.845     10.011
REMARK  26 active torsions:
REMARK  status: ('A' for Active; 'I' for Inactive)
REMARK    1  A    between atoms: C2_2  and  C3_3 
REMARK    2  A    between atoms: C4_6  and  C5_7 
REMARK       I    between atoms: C5_7  and  N2_9 
REMARK    3  A    between atoms: N2_9  and  C6_10 
REMARK    4  A    between atoms: C6_10  and  C7_11 
REMARK    5  A    between atoms: C6_10  and  C8_13 
REMARK       I    between atoms: C7_11  and  N3_14 
REMARK    6  A    between atoms: N3_14  and  C9_15 
REMARK    7  A    between atoms: C9_15  and  C10_16 
REMARK    8  A    between atoms: C9_15  and  C11_18 
REMARK       I    between atoms: C10_16  and  N4_21 
REMARK    9  A    between atoms: C11_18  and  C12_19 
REMARK   10  A    between atoms: C11_18  and  C13_20 
REMARK   11  A    between atoms: N4_21  and  C14_22 
REMARK   12  A    between atoms: C14_22  and  C15_23 
REMARK   13  A    between atoms: C14_22  and  C16_25 
REMARK       I    between atoms: C15_23  and  N6_40 
REMARK   14  A    between atoms: C16_25  and  C17_26 
REMARK   15  A    between atoms: C17_26  and  C18_27 
REMARK   16  A    between atoms: C17_26  and  C19_28 
REMARK   17  A    between atoms: C20_29  and  C21_30 
REMARK   18  A    between atoms: C20_29  and  C24_33 
REMARK   19  A    between atoms: C20_29  and  N6_40 
REMARK   20  A    between atoms: C21_30  and  C22_31 
REMARK   21  A    between atoms: C22_31  and  C23_32 
REMARK   22  A    between atoms: C23_32  and  O8_43 
REMARK   23  A    between atoms: C24_33  and  C25_34 
REMARK   24  A    between atoms: C28_38  and  O6_39 
REMARK   25  A    between atoms: C29_42  and  O8_43 
REMARK   26  A    between atoms: C29_42  and  C35_49 
ROOT
ATOM      1  C14 non d ame     -10.941   8.941  69.503  0.00  0.00     0.089 C 
ATOM      2  H20 non d ame     -11.971   8.587  69.457  0.00  0.00     0.087 H 
ENDROOT
BRANCH   1   3
ATOM      3  N4  non d ame     -10.075   7.772  69.517  0.00  0.00    -0.346 N 
ATOM      4  C10 non d ame     -10.667   6.386  69.565  0.00  0.00     0.241 C 
ATOM      5  O4  non d ame     -11.844   6.237  69.594  0.00  0.00    -0.271 OA
ATOM      6  H19 non d ame      -9.076   7.920  69.494  0.00  0.00     0.163 HD
BRANCH   4   7
ATOM      7  C9  non d ame      -9.756   5.187  69.573  0.00  0.00     0.092 C 
ATOM      8  H11 non d ame     -10.348   4.286  69.411  0.00  0.00     0.088 H 
BRANCH   7   9
ATOM      9  N3  non d ame      -8.807   5.287  68.460  0.00  0.00    -0.346 N 
ATOM     10  C7  non d ame      -8.723   4.225  67.487  0.00  0.00     0.240 C 
ATOM     11  O3  non d ame      -9.411   3.283  67.585  0.00  0.00    -0.271 OA
ATOM     12  H10 non d ame      -8.205   6.092  68.363  0.00  0.00     0.163 HD
BRANCH  10  13
ATOM     13  C6  non d ame      -7.708   4.336  66.307  0.00  0.00     0.086 C 
ATOM     14  H6  non d ame      -8.010   3.754  65.436  0.00  0.00     0.086 H 
BRANCH  13  15
ATOM     15  N2  non d ame      -7.635   5.722  65.876  0.00  0.00    -0.343 N 
ATOM     16  C5  non d ame      -8.006   6.071  64.503  0.00  0.00     0.273 C 
ATOM     17  O2  non d ame      -8.359   5.229  63.752  0.00  0.00    -0.266 OA
ATOM     18  H5  non d ame      -7.330   6.434  66.524  0.00  0.00     0.163 HD
BRANCH  16  19
ATOM     19  C4  non d ame      -7.935   7.533  64.035  0.00  0.00     0.154 A 
ATOM     20  C1  non d ame      -7.881   8.007  62.686  0.00  0.00    -0.017 A 
ATOM     21  C2  non d ame      -7.827   9.415  62.797  0.00  0.00     0.077 A 
ATOM     22  H1  non d ame      -7.880   7.420  61.767  0.00  0.00     0.091 H 
ATOM     23  O1  non d ame      -7.850   9.704  64.065  0.00  0.00    -0.218 OA
ATOM     24  N1  non d ame      -7.912   8.623  64.807  0.00  0.00    -0.123 NA
BRANCH  21  25
ATOM     25  C3  non d ame      -7.757  10.408  61.644  0.00  0.00    -0.029 C 
ATOM     26  H2  non d ame      -8.662  11.016  61.632  0.00  0.00     0.036 H 
ATOM     27  H3  non d ame      -6.888  11.053  61.773  0.00  0.00     0.036 H 
ATOM     28  H4  non d ame      -7.670   9.866  60.702  0.00  0.00     0.036 H 
ENDBRANCH  21  25
ENDBRANCH  16  19
ENDBRANCH  13  15
BRANCH  13  29
ATOM     29  C8  non d ame      -6.351   3.864  66.762  0.00  0.00    -0.049 C 
ATOM     30  H7  non d ame      -6.441   3.378  67.733  0.00  0.00     0.030 H 
ATOM     31  H8  non d ame      -5.951   3.155  66.037  0.00  0.00     0.030 H 
ATOM     32  H9  non d ame      -5.679   4.717  66.845  0.00  0.00     0.030 H 
ENDBRANCH  13  29
ENDBRANCH  10  13
ENDBRANCH   7   9
BRANCH   7  33
ATOM     33  C11 non d ame      -8.972   5.140  70.917  0.00  0.00    -0.033 C 
ATOM     34  H12 non d ame      -8.303   6.000  70.938  0.00  0.00     0.042 H 
BRANCH  33  35
ATOM     35  C12 non d ame      -9.934   5.264  72.140  0.00  0.00    -0.071 C 
ATOM     36  H13 non d ame      -9.430   4.902  73.036  0.00  0.00     0.028 H 
ATOM     37  H14 non d ame     -10.213   6.309  72.278  0.00  0.00     0.028 H 
ATOM     38  H15 non d ame     -10.829   4.669  71.960  0.00  0.00     0.028 H 
ENDBRANCH  33  35
BRANCH  33  39
ATOM     39  C13 non d ame      -8.100   3.847  71.011  0.00  0.00    -0.071 C 
ATOM     40  H16 non d ame      -7.530   3.860  71.940  0.00  0.00     0.028 H 
ATOM     41  H17 non d ame      -8.748   2.970  70.994  0.00  0.00     0.028 H 
ATOM     42  H18 non d ame      -7.415   3.809  70.165  0.00  0.00     0.028 H 
ENDBRANCH  33  39
ENDBRANCH   7  33
ENDBRANCH   4   7
ENDBRANCH   1   3
BRANCH   1  43
ATOM     43  C15 non d ame     -10.567   9.820  68.275  0.00  0.00     0.240 C 
ATOM     44  O5  non d ame     -10.420   9.315  67.210  0.00  0.00    -0.271 OA
ATOM     45  N6  non d ame     -10.400  11.294  68.427  0.00  0.00    -0.355 N 
ATOM     46  H46 non d ame     -10.527  11.735  69.326  0.00  0.00     0.162 HD
BRANCH  45  47
ATOM     47  C20 non d ame     -10.046  12.116  67.250  0.00  0.00     0.013 C 
ATOM     48  H30 non d ame      -9.616  11.456  66.496  0.00  0.00     0.072 H 
BRANCH  47  49
ATOM     49  C21 non d ame      -9.033  13.162  67.657  0.00  0.00    -0.038 C 
ATOM     50  H31 non d ame      -8.971  13.105  68.744  0.00  0.00     0.036 H 
ATOM     51  H32 non d ame      -8.149  12.968  67.050  0.00  0.00     0.036 H 
BRANCH  49  52
ATOM     52  C22 non d ame      -9.487  14.599  67.321  0.00  0.00     0.018 C 
ATOM     53  H33 non d ame      -8.673  15.038  66.742  0.00  0.00     0.048 H 
ATOM     54  H34 non d ame     -10.478  14.500  66.878  0.00  0.00     0.048 H 
BRANCH  52  55
ATOM     55  C23 non d ame      -9.664  15.508  68.568  0.00  0.00     0.259 C 
ATOM     56  O7  non d ame      -8.730  15.793  69.245  0.00  0.00    -0.265 OA
BRANCH  55  57
ATOM     57  O8  non d ame     -10.961  15.987  68.902  0.00  0.00    -0.317 OA
BRANCH  57  58
ATOM     58  C29 non d ame     -11.885  14.959  69.271  0.00  0.00     0.052 C 
ATOM     59  H47 non d ame     -12.706  15.030  68.557  0.00  0.00     0.082 H 
ATOM     60  H48 non d ame     -11.297  14.044  69.337  0.00  0.00     0.082 H 
BRANCH  58  61
ATOM     61  C35 non d ame     -12.433  15.293  70.684  0.00  0.00    -0.034 A 
ATOM     62  C30 non d ame     -13.778  15.085  70.977  0.00  0.00    -0.075 A 
ATOM     63  C31 non d ame     -14.270  15.385  72.246  0.00  0.00    -0.082 A 
ATOM     64  H49 non d ame     -14.445  14.687  70.212  0.00  0.00     0.084 H 
ATOM     65  C32 non d ame     -13.414  15.897  73.224  0.00  0.00    -0.083 A 
ATOM     66  H50 non d ame     -15.324  15.219  72.472  0.00  0.00     0.083 H 
ATOM     67  C33 non d ame     -12.074  16.106  72.926  0.00  0.00    -0.082 A 
ATOM     68  H51 non d ame     -13.791  16.134  74.219  0.00  0.00     0.083 H 
ATOM     69  C34 non d ame     -11.577  15.805  71.660  0.00  0.00    -0.075 A 
ATOM     70  H52 non d ame     -11.409  16.507  73.691  0.00  0.00     0.083 H 
ATOM     71  H53 non d ame     -10.523  15.971  71.434  0.00  0.00     0.084 H 
ENDBRANCH  58  61
ENDBRANCH  57  58
ENDBRANCH  55  57
ENDBRANCH  52  55
ENDBRANCH  49  52
ENDBRANCH  47  49
BRANCH  47  72
ATOM     72  C24 non d ame     -11.296  12.802  66.703  0.00  0.00    -0.039 C 
ATOM     73  H35 non d ame     -12.045  12.709  67.490  0.00  0.00     0.036 H 
ATOM     74  H36 non d ame     -10.967  13.790  66.379  0.00  0.00     0.036 H 
BRANCH  72  75
ATOM     75  C25 non d ame     -11.870  12.048  65.412  0.00  0.00    -0.001 C 
ATOM     76  C26 non d ame     -10.634  11.383  64.556  0.00  0.00    -0.035 C 
ATOM     77  C27 non d ame     -10.744  11.766  63.262  0.00  0.00     0.085 C 
ATOM     78  H38 non d ame      -9.685  11.817  64.871  0.00  0.00     0.036 H 
ATOM     79  H39 non d ame     -10.749  10.300  64.512  0.00  0.00     0.036 H 
ATOM     80  N5  non d ame     -11.749  12.892  63.218  0.00  0.00    -0.049 N 
ATOM     81  H40 non d ame      -9.762  12.155  62.988  0.00  0.00     0.075 H 
ATOM     82  H41 non d ame     -11.154  10.904  62.737  0.00  0.00     0.075 H 
ATOM     83  C28 non d ame     -12.511  12.862  64.641  0.00  0.00     0.193 C 
ATOM     84  H42 non d ame     -11.217  13.748  63.156  0.00  0.00     0.280 HD
ATOM     85  H43 non d ame     -12.412  12.656  62.494  0.00  0.00     0.280 HD
ATOM     86  H44 non d ame     -13.520  12.457  64.720  0.00  0.00     0.129 H 
ATOM     87  H37 non d ame     -12.712  11.398  65.654  0.00  0.00     0.046 H 
BRANCH  83  88
ATOM     88  O6  non d ame     -12.583  14.179  65.189  0.00  0.00    -0.369 OA
ATOM     89  H45 non d ame     -12.886  14.790  64.514  0.00  0.00     0.212 HD
ENDBRANCH  83  88
ENDBRANCH  72  75
ENDBRANCH  47  72
ENDBRANCH  45  47
ENDBRANCH   1  43
BRANCH   1  90
ATOM     90  C16 non d ame     -10.726   9.733  70.783  0.00  0.00    -0.035 C 
ATOM     91  H21 non d ame     -10.124   9.089  71.424  0.00  0.00     0.037 H 
ATOM     92  H22 non d ame     -10.337  10.700  70.463  0.00  0.00     0.037 H 
BRANCH  90  93
ATOM     93  C17 non d ame     -12.045  10.026  71.567  0.00  0.00    -0.059 C 
ATOM     94  H23 non d ame     -11.791  10.104  72.624  0.00  0.00     0.038 H 
BRANCH  93  95
ATOM     95  C18 non d ame     -12.700  11.377  71.134  0.00  0.00    -0.073 C 
ATOM     96  H24 non d ame     -13.747  11.386  71.436  0.00  0.00     0.028 H 
ATOM     97  H25 non d ame     -12.176  12.205  71.614  0.00  0.00     0.028 H 
ATOM     98  H26 non d ame     -12.632  11.483  70.052  0.00  0.00     0.028 H 
ENDBRANCH  93  95
BRANCH  93  99
ATOM     99  C19 non d ame     -13.036   8.869  71.421  0.00  0.00    -0.073 C 
ATOM    100  H27 non d ame     -12.645   7.989  71.932  0.00  0.00     0.028 H 
ATOM    101  H28 non d ame     -13.992   9.152  71.864  0.00  0.00     0.028 H 
ATOM    102  H29 non d ame     -13.179   8.644  70.365  0.00  0.00     0.028 H 
ENDBRANCH  93  99
ENDBRANCH  90  93
ENDBRANCH   1  90
TORSDOF 26
ENDMDL
MODEL 10
REMARK VINA RESULT:      -7.0      3.639      9.576
REMARK  26 active torsions:
REMARK  status: ('A' for Active; 'I' for Inactive)
REMARK    1  A    between atoms: C2_2  and  C3_3 
REMARK    2  A    between atoms: C4_6  and  C5_7 
REMARK       I    between atoms: C5_7  and  N2_9 
REMARK    3  A    between atoms: N2_9  and  C6_10 
REMARK    4  A    between atoms: C6_10  and  C7_11 
REMARK    5  A    between atoms: C6_10  and  C8_13 
REMARK       I    between atoms: C7_11  and  N3_14 
REMARK    6  A    between atoms: N3_14  and  C9_15 
REMARK    7  A    between atoms: C9_15  and  C10_16 
REMARK    8  A    between atoms: C9_15  and  C11_18 
REMARK       I    between atoms: C10_16  and  N4_21 
REMARK    9  A    between atoms: C11_18  and  C12_19 
REMARK   10  A    between atoms: C11_18  and  C13_20 
REMARK   11  A    between atoms: N4_21  and  C14_22 
REMARK   12  A    between atoms: C14_22  and  C15_23 
REMARK   13  A    between atoms: C14_22  and  C16_25 
REMARK       I    between atoms: C15_23  and  N6_40 
REMARK   14  A    between atoms: C16_25  and  C17_26 
REMARK   15  A    between atoms: C17_26  and  C18_27 
REMARK   16  A    between atoms: C17_26  and  C19_28 
REMARK   17  A    between atoms: C20_29  and  C21_30 
REMARK   18  A    between atoms: C20_29  and  C24_33 
REMARK   19  A    between atoms: C20_29  and  N6_40 
REMARK   20  A    between atoms: C21_30  and  C22_31 
REMARK   21  A    between atoms: C22_31  and  C23_32 
REMARK   22  A    between atoms: C23_32  and  O8_43 
REMARK   23  A    between atoms: C24_33  and  C25_34 
REMARK   24  A    between atoms: C28_38  and  O6_39 
REMARK   25  A    between atoms: C29_42  and  O8_43 
REMARK   26  A    between atoms: C29_42  and  C35_49 
ROOT
ATOM      1  C14 non d ame     -10.606   9.832  68.473  0.00  0.00     0.089 C 
ATOM      2  H20 non d ame      -9.600   9.948  68.877  0.00  0.00     0.087 H 
ENDROOT
BRANCH   1   3
ATOM      3  N4  non d ame     -11.309   8.876  69.315  0.00  0.00    -0.346 N 
ATOM      4  C10 non d ame     -11.020   8.806  70.793  0.00  0.00     0.241 C 
ATOM      5  O4  non d ame     -10.214   9.528  71.282  0.00  0.00    -0.271 OA
ATOM      6  H19 non d ame     -11.989   8.269  68.879  0.00  0.00     0.163 HD
BRANCH   4   7
ATOM      7  C9  non d ame     -11.761   7.814  71.651  0.00  0.00     0.092 C 
ATOM      8  H11 non d ame     -11.912   6.894  71.086  0.00  0.00     0.088 H 
BRANCH   7   9
ATOM      9  N3  non d ame     -10.946   7.474  72.821  0.00  0.00    -0.346 N 
ATOM     10  C7  non d ame     -10.062   6.335  72.778  0.00  0.00     0.240 C 
ATOM     11  O3  non d ame      -9.995   5.680  71.810  0.00  0.00    -0.271 OA
ATOM     12  H10 non d ame     -10.994   8.029  73.664  0.00  0.00     0.163 HD
BRANCH  10  13
ATOM     13  C6  non d ame      -9.199   5.977  74.027  0.00  0.00     0.086 C 
ATOM     14  H6  non d ame      -8.376   5.303  73.792  0.00  0.00     0.086 H 
BRANCH  13  15
ATOM     15  N2  non d ame      -8.603   7.193  74.553  0.00  0.00    -0.343 N 
ATOM     16  C5  non d ame      -7.186   7.467  74.307  0.00  0.00     0.273 C 
ATOM     17  O2  non d ame      -6.533   6.701  73.686  0.00  0.00    -0.266 OA
ATOM     18  H5  non d ame      -9.168   7.841  75.085  0.00  0.00     0.163 HD
BRANCH  16  19
ATOM     19  C4  non d ame      -6.543   8.751  74.855  0.00  0.00     0.154 A 
ATOM     20  C1  non d ame      -5.177   9.157  74.725  0.00  0.00    -0.017 A 
ATOM     21  C2  non d ame      -5.101  10.397  75.397  0.00  0.00     0.077 A 
ATOM     22  H1  non d ame      -4.366   8.633  74.219  0.00  0.00     0.091 H 
ATOM     23  O1  non d ame      -6.289  10.663  75.855  0.00  0.00    -0.218 OA
ATOM     24  N1  non d ame      -7.148   9.717  75.552  0.00  0.00    -0.123 NA
BRANCH  21  25
ATOM     25  C3  non d ame      -3.858  11.263  75.555  0.00  0.00    -0.029 C 
ATOM     26  H2  non d ame      -4.001  11.958  76.383  0.00  0.00     0.036 H 
ATOM     27  H3  non d ame      -2.997  10.627  75.759  0.00  0.00     0.036 H 
ATOM     28  H4  non d ame      -3.686  11.823  74.636  0.00  0.00     0.036 H 
ENDBRANCH  21  25
ENDBRANCH  16  19
ENDBRANCH  13  15
BRANCH  13  29
ATOM     29  C8  non d ame     -10.071   5.334  75.076  0.00  0.00    -0.049 C 
ATOM     30  H7  non d ame     -10.717   4.592  74.606  0.00  0.00     0.030 H 
ATOM     31  H8  non d ame      -9.444   4.849  75.823  0.00  0.00     0.030 H 
ATOM     32  H9  non d ame     -10.684   6.096  75.555  0.00  0.00     0.030 H 
ENDBRANCH  13  29
ENDBRANCH  10  13
ENDBRANCH   7   9
BRANCH   7  33
ATOM     33  C11 non d ame     -13.106   8.440  72.123  0.00  0.00    -0.033 C 
ATOM     34  H12 non d ame     -13.094   8.460  73.213  0.00  0.00     0.042 H 
BRANCH  33  35
ATOM     35  C12 non d ame     -13.252   9.912  71.628  0.00  0.00    -0.071 C 
ATOM     36  H13 non d ame     -13.792   9.925  70.681  0.00  0.00     0.028 H 
ATOM     37  H14 non d ame     -13.805  10.491  72.368  0.00  0.00     0.028 H 
ATOM     38  H15 non d ame     -12.264  10.348  71.489  0.00  0.00     0.028 H 
ENDBRANCH  33  35
BRANCH  33  39
ATOM     39  C13 non d ame     -14.319   7.566  71.669  0.00  0.00    -0.071 C 
ATOM     40  H16 non d ame     -14.138   6.525  71.937  0.00  0.00     0.028 H 
ATOM     41  H17 non d ame     -15.225   7.916  72.164  0.00  0.00     0.028 H 
ATOM     42  H18 non d ame     -14.441   7.648  70.589  0.00  0.00     0.028 H 
ENDBRANCH  33  39
ENDBRANCH   7  33
ENDBRANCH   4   7
ENDBRANCH   1   3
BRANCH   1  43
ATOM     43  C15 non d ame     -11.397  11.171  68.477  0.00  0.00     0.240 C 
ATOM     44  O5  non d ame     -12.018  11.494  67.516  0.00  0.00    -0.271 OA
ATOM     45  N6  non d ame     -11.388  12.048  69.682  0.00  0.00    -0.355 N 
ATOM     46  H46 non d ame     -10.869  11.783  70.506  0.00  0.00     0.162 HD
BRANCH  45  47
ATOM     47  C20 non d ame     -12.147  13.318  69.670  0.00  0.00     0.013 C 
ATOM     48  H30 non d ame     -12.922  13.238  68.908  0.00  0.00     0.072 H 
BRANCH  47  49
ATOM     49  C21 non d ame     -11.210  14.457  69.338  0.00  0.00    -0.038 C 
ATOM     50  H31 non d ame     -11.389  15.217  70.098  0.00  0.00     0.036 H 
ATOM     51  H32 non d ame     -10.223  14.006  69.239  0.00  0.00     0.036 H 
BRANCH  49  52
ATOM     52  C22 non d ame     -11.528  15.116  67.978  0.00  0.00     0.018 C 
ATOM     53  H33 non d ame     -12.434  14.628  67.617  0.00  0.00     0.048 H 
ATOM     54  H34 non d ame     -11.524  16.190  68.162  0.00  0.00     0.048 H 
BRANCH  52  55
ATOM     55  C23 non d ame     -10.445  14.864  66.892  0.00  0.00     0.259 C 
ATOM     56  O7  non d ame     -10.736  14.358  65.856  0.00  0.00    -0.265 OA
BRANCH  55  57
ATOM     57  O8  non d ame      -9.097  15.232  67.153  0.00  0.00    -0.317 OA
BRANCH  57  58
ATOM     58  C29 non d ame      -8.610  16.289  66.321  0.00  0.00     0.052 C 
ATOM     59  H47 non d ame      -7.530  16.310  66.472  0.00  0.00     0.082 H 
ATOM     60  H48 non d ame      -9.018  16.096  65.330  0.00  0.00     0.082 H 
BRANCH  58  61
ATOM     61  C35 non d ame      -9.204  17.624  66.845  0.00  0.00    -0.034 A 
ATOM     62  C30 non d ame      -9.962  18.428  66.001  0.00  0.00    -0.075 A 
ATOM     63  C31 non d ame     -10.496  19.627  66.471  0.00  0.00    -0.082 A 
ATOM     64  H49 non d ame     -10.138  18.119  64.970  0.00  0.00     0.084 H 
ATOM     65  C32 non d ame     -10.267  20.022  67.792  0.00  0.00    -0.083 A 
ATOM     66  H50 non d ame     -11.091  20.254  65.807  0.00  0.00     0.083 H 
ATOM     67  C33 non d ame      -9.508  19.217  68.630  0.00  0.00    -0.082 A 
ATOM     68  H51 non d ame     -10.681  20.957  68.168  0.00  0.00     0.083 H 
ATOM     69  C34 non d ame      -8.974  18.017  68.165  0.00  0.00    -0.075 A 
ATOM     70  H52 non d ame      -9.329  19.529  69.660  0.00  0.00     0.083 H 
ATOM     71  H53 non d ame      -8.379  17.391  68.830  0.00  0.00     0.084 H 
ENDBRANCH  58  61
ENDBRANCH  57  58
ENDBRANCH  55  57
ENDBRANCH  52  55
ENDBRANCH  49  52
ENDBRANCH  47  49
BRANCH  47  72
ATOM     72  C24 non d ame     -12.774  13.557  71.042  0.00  0.00    -0.039 C 
ATOM     73  H35 non d ame     -13.786  13.156  70.973  0.00  0.00     0.036 H 
ATOM     74  H36 non d ame     -12.070  13.138  71.761  0.00  0.00     0.036 H 
BRANCH  72  75
ATOM     75  C25 non d ame     -12.908  15.120  71.368  0.00  0.00    -0.001 C 
ATOM     76  C26 non d ame     -11.770  15.562  72.470  0.00  0.00    -0.035 C 
ATOM     77  C27 non d ame     -12.378  16.223  73.484  0.00  0.00     0.085 C 
ATOM     78  H38 non d ame     -11.357  14.678  72.955  0.00  0.00     0.036 H 
ATOM     79  H39 non d ame     -11.104  16.310  72.041  0.00  0.00     0.036 H 
ATOM     80  N5  non d ame     -13.862  15.988  73.337  0.00  0.00    -0.049 N 
ATOM     81  H40 non d ame     -12.031  15.740  74.398  0.00  0.00     0.075 H 
ATOM     82  H41 non d ame     -12.167  17.278  73.311  0.00  0.00     0.075 H 
ATOM     83  C28 non d ame     -14.073  15.400  71.848  0.00  0.00     0.193 C 
ATOM     84  H42 non d ame     -14.106  15.271  74.004  0.00  0.00     0.280 HD
ATOM     85  H43 non d ame     -14.302  16.896  73.388  0.00  0.00     0.280 HD
ATOM     86  H44 non d ame     -14.469  16.032  71.054  0.00  0.00     0.129 H 
ATOM     87  H37 non d ame     -12.984  15.725  70.464  0.00  0.00     0.046 H 
BRANCH  83  88
ATOM     88  O6  non d ame     -14.929  14.256  71.888  0.00  0.00    -0.369 OA
ATOM     89  H45 non d ame     -15.801  14.519  72.191  0.00  0.00     0.212 HD
ENDBRANCH  83  88
ENDBRANCH  72  75
ENDBRANCH  47  72
ENDBRANCH  45  47
ENDBRANCH   1  43
BRANCH   1  90
ATOM     90  C16 non d ame     -10.533   9.285  67.056  0.00  0.00    -0.035 C 
ATOM     91  H21 non d ame     -11.343   8.560  66.984  0.00  0.00     0.037 H 
ATOM     92  H22 non d ame     -10.527  10.162  66.408  0.00  0.00     0.037 H 
BRANCH  90  93
ATOM     93  C17 non d ame      -9.214   8.505  66.753  0.00  0.00    -0.059 C 
ATOM     94  H23 non d ame      -9.427   7.442  66.861  0.00  0.00     0.038 H 
BRANCH  93  95
ATOM     95  C18 non d ame      -8.710   8.745  65.294  0.00  0.00    -0.073 C 
ATOM     96  H24 non d ame      -9.535   8.603  64.597  0.00  0.00     0.028 H 
ATOM     97  H25 non d ame      -8.328   9.762  65.204  0.00  0.00     0.028 H 
ATOM     98  H26 non d ame      -7.914   8.036  65.064  0.00  0.00     0.028 H 
ENDBRANCH  93  95
BRANCH  93  99
ATOM     99  C19 non d ame      -8.125   8.856  67.770  0.00  0.00    -0.073 C 
ATOM    100  H27 non d ame      -7.514   9.671  67.382  0.00  0.00     0.028 H 
ATOM    101  H28 non d ame      -8.589   9.164  68.708  0.00  0.00     0.028 H 
ATOM    102  H29 non d ame      -7.497   7.983  67.946  0.00  0.00     0.028 H 
ENDBRANCH  93  99
ENDBRANCH  90  93
ENDBRANCH   1  90
TORSDOF 26
ENDMDL
MODEL 11
REMARK VINA RESULT:      -7.0      2.766      6.600
REMARK  26 active torsions:
REMARK  status: ('A' for Active; 'I' for Inactive)
REMARK    1  A    between atoms: C2_2  and  C3_3 
REMARK    2  A    between atoms: C4_6  and  C5_7 
REMARK       I    between atoms: C5_7  and  N2_9 
REMARK    3  A    between atoms: N2_9  and  C6_10 
REMARK    4  A    between atoms: C6_10  and  C7_11 
REMARK    5  A    between atoms: C6_10  and  C8_13 
REMARK       I    between atoms: C7_11  and  N3_14 
REMARK    6  A    between atoms: N3_14  and  C9_15 
REMARK    7  A    between atoms: C9_15  and  C10_16 
REMARK    8  A    between atoms: C9_15  and  C11_18 
REMARK       I    between atoms: C10_16  and  N4_21 
REMARK    9  A    between atoms: C11_18  and  C12_19 
REMARK   10  A    between atoms: C11_18  and  C13_20 
REMARK   11  A    between atoms: N4_21  and  C14_22 
REMARK   12  A    between atoms: C14_22  and  C15_23 
REMARK   13  A    between atoms: C14_22  and  C16_25 
REMARK       I    between atoms: C15_23  and  N6_40 
REMARK   14  A    between atoms: C16_25  and  C17_26 
REMARK   15  A    between atoms: C17_26  and  C18_27 
REMARK   16  A    between atoms: C17_26  and  C19_28 
REMARK   17  A    between atoms: C20_29  and  C21_30 
REMARK   18  A    between atoms: C20_29  and  C24_33 
REMARK   19  A    between atoms: C20_29  and  N6_40 
REMARK   20  A    between atoms: C21_30  and  C22_31 
REMARK   21  A    between atoms: C22_31  and  C23_32 
REMARK   22  A    between atoms: C23_32  and  O8_43 
REMARK   23  A    between atoms: C24_33  and  C25_34 
REMARK   24  A    between atoms: C28_38  and  O6_39 
REMARK   25  A    between atoms: C29_42  and  O8_43 
REMARK   26  A    between atoms: C29_42  and  C35_49 
ROOT
ATOM      1  C14 non d ame      -7.676   8.834  67.115  0.00  0.00     0.089 C 
ATOM      2  H20 non d ame      -7.659   8.148  66.267  0.00  0.00     0.087 H 
ENDROOT
BRANCH   1   3
ATOM      3  N4  non d ame      -8.548   9.944  66.763  0.00  0.00    -0.346 N 
ATOM      4  C10 non d ame      -9.753   9.719  65.885  0.00  0.00     0.241 C 
ATOM      5  O4  non d ame      -9.999   8.634  65.470  0.00  0.00    -0.271 OA
ATOM      6  H19 non d ame      -8.320  10.860  67.124  0.00  0.00     0.163 HD
BRANCH   4   7
ATOM      7  C9  non d ame     -10.647  10.879  65.535  0.00  0.00     0.092 C 
ATOM      8  H11 non d ame     -11.643  10.699  65.940  0.00  0.00     0.088 H 
BRANCH   7   9
ATOM      9  N3  non d ame     -10.136  12.099  66.167  0.00  0.00    -0.346 N 
ATOM     10  C7  non d ame     -10.931  12.785  67.156  0.00  0.00     0.240 C 
ATOM     11  O3  non d ame     -11.985  12.371  67.453  0.00  0.00    -0.271 OA
ATOM     12  H10 non d ame      -9.230  12.469  65.920  0.00  0.00     0.163 HD
BRANCH  10  13
ATOM     13  C6  non d ame     -10.383  14.085  67.823  0.00  0.00     0.086 C 
ATOM     14  H6  non d ame     -10.683  14.989  67.294  0.00  0.00     0.086 H 
BRANCH  13  15
ATOM     15  N2  non d ame     -10.926  14.190  69.167  0.00  0.00    -0.343 N 
ATOM     16  C5  non d ame     -11.757  15.342  69.521  0.00  0.00     0.273 C 
ATOM     17  O2  non d ame     -11.980  16.181  68.719  0.00  0.00    -0.266 OA
ATOM     18  H5  non d ame     -10.728  13.469  69.847  0.00  0.00     0.163 HD
BRANCH  16  19
ATOM     19  C4  non d ame     -12.339  15.465  70.938  0.00  0.00     0.154 A 
ATOM     20  C1  non d ame     -11.611  15.538  72.169  0.00  0.00    -0.017 A 
ATOM     21  C2  non d ame     -12.602  15.642  73.171  0.00  0.00     0.077 A 
ATOM     22  H1  non d ame     -10.531  15.519  72.312  0.00  0.00     0.091 H 
ATOM     23  O1  non d ame     -13.758  15.630  72.575  0.00  0.00    -0.218 OA
ATOM     24  N1  non d ame     -13.631  15.528  71.272  0.00  0.00    -0.123 NA
BRANCH  21  25
ATOM     25  C3  non d ame     -12.359  15.748  74.670  0.00  0.00    -0.029 C 
ATOM     26  H2  non d ame     -11.473  16.357  74.853  0.00  0.00     0.036 H 
ATOM     27  H3  non d ame     -13.223  16.212  75.146  0.00  0.00     0.036 H 
ATOM     28  H4  non d ame     -12.208  14.751  75.086  0.00  0.00     0.036 H 
ENDBRANCH  21  25
ENDBRANCH  16  19
ENDBRANCH  13  15
BRANCH  13  29
ATOM     29  C8  non d ame      -8.877  14.028  67.877  0.00  0.00    -0.049 C 
ATOM     30  H7  non d ame      -8.495  13.625  66.939  0.00  0.00     0.030 H 
ATOM     31  H8  non d ame      -8.481  15.032  68.030  0.00  0.00     0.030 H 
ATOM     32  H9  non d ame      -8.568  13.386  68.701  0.00  0.00     0.030 H 
ENDBRANCH  13  29
ENDBRANCH  10  13
ENDBRANCH   7   9
BRANCH   7  33
ATOM     33  C11 non d ame     -10.670  11.069  63.990  0.00  0.00    -0.033 C 
ATOM     34  H12 non d ame     -11.132  10.183  63.556  0.00  0.00     0.042 H 
BRANCH  33  35
ATOM     35  C12 non d ame     -11.539  12.299  63.581  0.00  0.00    -0.071 C 
ATOM     36  H13 non d ame     -12.595  12.044  63.671  0.00  0.00     0.028 H 
ATOM     37  H14 non d ame     -11.312  13.138  64.238  0.00  0.00     0.028 H 
ATOM     38  H15 non d ame     -11.317  12.574  62.550  0.00  0.00     0.028 H 
ENDBRANCH  33  35
BRANCH  33  39
ATOM     39  C13 non d ame      -9.220  11.185  63.420  0.00  0.00    -0.071 C 
ATOM     40  H16 non d ame      -9.075  12.178  62.995  0.00  0.00     0.028 H 
ATOM     41  H17 non d ame      -8.499  11.025  64.222  0.00  0.00     0.028 H 
ATOM     42  H18 non d ame      -9.073  10.433  62.644  0.00  0.00     0.028 H 
ENDBRANCH  33  39
ENDBRANCH   7  33
ENDBRANCH   4   7
ENDBRANCH   1   3
BRANCH   1  43
ATOM     43  C15 non d ame      -8.228   8.160  68.404  0.00  0.00     0.240 C 
ATOM     44  O5  non d ame      -7.492   7.915  69.304  0.00  0.00    -0.271 OA
ATOM     45  N6  non d ame      -9.677   7.828  68.519  0.00  0.00    -0.355 N 
ATOM     46  H46 non d ame     -10.313   8.036  67.763  0.00  0.00     0.162 HD
BRANCH  45  47
ATOM     47  C20 non d ame     -10.187   7.189  69.752  0.00  0.00     0.013 C 
ATOM     48  H30 non d ame      -9.358   7.110  70.456  0.00  0.00     0.072 H 
BRANCH  47  49
ATOM     49  C21 non d ame     -10.715   5.812  69.419  0.00  0.00    -0.038 C 
ATOM     50  H31 non d ame     -11.240   5.474  70.313  0.00  0.00     0.036 H 
ATOM     51  H32 non d ame     -11.254   5.923  68.478  0.00  0.00     0.036 H 
BRANCH  49  52
ATOM     52  C22 non d ame      -9.591   4.786  69.160  0.00  0.00     0.018 C 
ATOM     53  H33 non d ame      -8.669   5.268  69.487  0.00  0.00     0.048 H 
ATOM     54  H34 non d ame      -9.920   3.861  69.634  0.00  0.00     0.048 H 
BRANCH  52  55
ATOM     55  C23 non d ame      -9.386   4.447  67.657  0.00  0.00     0.259 C 
ATOM     56  O7  non d ame      -9.406   3.319  67.284  0.00  0.00    -0.265 OA
BRANCH  55  57
ATOM     57  O8  non d ame      -9.162   5.502  66.729  0.00  0.00    -0.317 OA
BRANCH  57  58
ATOM     58  C29 non d ame      -9.047   5.069  65.371  0.00  0.00     0.052 C 
ATOM     59  H47 non d ame      -9.157   3.985  65.397  0.00  0.00     0.082 H 
ATOM     60  H48 non d ame      -9.756   5.675  64.807  0.00  0.00     0.082 H 
BRANCH  58  61
ATOM     61  C35 non d ame      -7.614   5.406  64.880  0.00  0.00    -0.034 A 
ATOM     62  C30 non d ame      -6.509   4.976  65.607  0.00  0.00    -0.075 A 
ATOM     63  C31 non d ame      -5.222   5.279  65.167  0.00  0.00    -0.082 A 
ATOM     64  H49 non d ame      -6.652   4.401  66.523  0.00  0.00     0.084 H 
ATOM     65  C32 non d ame      -5.042   6.018  63.994  0.00  0.00    -0.083 A 
ATOM     66  H50 non d ame      -4.358   4.939  65.738  0.00  0.00     0.083 H 
ATOM     67  C33 non d ame      -6.148   6.448  63.273  0.00  0.00    -0.082 A 
ATOM     68  H51 non d ame      -4.039   6.259  63.642  0.00  0.00     0.083 H 
ATOM     69  C34 non d ame      -7.436   6.145  63.709  0.00  0.00    -0.075 A 
ATOM     70  H52 non d ame      -6.004   7.026  62.360  0.00  0.00     0.083 H 
ATOM     71  H53 non d ame      -8.299   6.486  63.137  0.00  0.00     0.084 H 
ENDBRANCH  58  61
ENDBRANCH  57  58
ENDBRANCH  55  57
ENDBRANCH  52  55
ENDBRANCH  49  52
ENDBRANCH  47  49
BRANCH  47  72
ATOM     72  C24 non d ame     -11.310   8.036  70.347  0.00  0.00    -0.039 C 
ATOM     73  H35 non d ame     -11.354   8.934  69.729  0.00  0.00     0.036 H 
ATOM     74  H36 non d ame     -12.173   7.373  70.406  0.00  0.00     0.036 H 
BRANCH  72  75
ATOM     75  C25 non d ame     -10.970   8.506  71.840  0.00  0.00    -0.001 C 
ATOM     76  C26 non d ame      -9.421   8.103  72.216  0.00  0.00    -0.035 C 
ATOM     77  C27 non d ame      -9.418   7.433  73.394  0.00  0.00     0.085 C 
ATOM     78  H38 non d ame      -9.043   7.369  71.505  0.00  0.00     0.036 H 
ATOM     79  H39 non d ame      -8.842   9.001  72.432  0.00  0.00     0.036 H 
ATOM     80  N5  non d ame     -10.850   7.058  73.692  0.00  0.00    -0.049 N 
ATOM     81  H40 non d ame      -8.843   6.525  73.211  0.00  0.00     0.075 H 
ATOM     82  H41 non d ame      -9.078   8.154  74.137  0.00  0.00     0.075 H 
ATOM     83  C28 non d ame     -11.758   7.947  72.697  0.00  0.00     0.193 C 
ATOM     84  H42 non d ame     -10.950   6.086  73.437  0.00  0.00     0.280 HD
ATOM     85  H43 non d ame     -11.031   7.353  74.641  0.00  0.00     0.280 HD
ATOM     86  H44 non d ame     -12.297   8.819  73.069  0.00  0.00     0.129 H 
ATOM     87  H37 non d ame     -11.274   9.537  72.028  0.00  0.00     0.046 H 
BRANCH  83  88
ATOM     88  O6  non d ame     -12.745   7.128  72.067  0.00  0.00    -0.369 OA
ATOM     89  H45 non d ame     -12.343   6.643  71.342  0.00  0.00     0.212 HD
ENDBRANCH  83  88
ENDBRANCH  72  75
ENDBRANCH  47  72
ENDBRANCH  45  47
ENDBRANCH   1  43
BRANCH   1  90
ATOM     90  C16 non d ame      -6.276   9.365  67.376  0.00  0.00    -0.035 C 
ATOM     91  H21 non d ame      -6.311  10.419  67.098  0.00  0.00     0.037 H 
ATOM     92  H22 non d ame      -6.045   9.080  68.402  0.00  0.00     0.037 H 
BRANCH  90  93
ATOM     93  C17 non d ame      -5.179   8.708  66.478  0.00  0.00    -0.059 C 
ATOM     94  H23 non d ame      -5.656   7.917  65.899  0.00  0.00     0.038 H 
BRANCH  93  95
ATOM     95  C18 non d ame      -4.556   9.726  65.470  0.00  0.00    -0.073 C 
ATOM     96  H24 non d ame      -4.889  10.734  65.718  0.00  0.00     0.028 H 
ATOM     97  H25 non d ame      -3.468   9.678  65.531  0.00  0.00     0.028 H 
ATOM     98  H26 non d ame      -4.874   9.476  64.458  0.00  0.00     0.028 H 
ENDBRANCH  93  95
BRANCH  93  99
ATOM     99  C19 non d ame      -4.092   8.054  67.334  0.00  0.00    -0.073 C 
ATOM    100  H27 non d ame      -3.392   8.816  67.677  0.00  0.00     0.028 H 
ATOM    101  H28 non d ame      -4.552   7.568  68.195  0.00  0.00     0.028 H 
ATOM    102  H29 non d ame      -3.560   7.312  66.740  0.00  0.00     0.028 H 
ENDBRANCH  93  99
ENDBRANCH  90  93
ENDBRANCH   1  90
TORSDOF 26
ENDMDL
MODEL 12
REMARK VINA RESULT:      -7.0      2.239      5.152
REMARK  26 active torsions:
REMARK  status: ('A' for Active; 'I' for Inactive)
REMARK    1  A    between atoms: C2_2  and  C3_3 
REMARK    2  A    between atoms: C4_6  and  C5_7 
REMARK       I    between atoms: C5_7  and  N2_9 
REMARK    3  A    between atoms: N2_9  and  C6_10 
REMARK    4  A    between atoms: C6_10  and  C7_11 
REMARK    5  A    between atoms: C6_10  and  C8_13 
REMARK       I    between atoms: C7_11  and  N3_14 
REMARK    6  A    between atoms: N3_14  and  C9_15 
REMARK    7  A    between atoms: C9_15  and  C10_16 
REMARK    8  A    between atoms: C9_15  and  C11_18 
REMARK       I    between atoms: C10_16  and  N4_21 
REMARK    9  A    between atoms: C11_18  and  C12_19 
REMARK   10  A    between atoms: C11_18  and  C13_20 
REMARK   11  A    between atoms: N4_21  and  C14_22 
REMARK   12  A    between atoms: C14_22  and  C15_23 
REMARK   13  A    between atoms: C14_22  and  C16_25 
REMARK       I    between atoms: C15_23  and  N6_40 
REMARK   14  A    between atoms: C16_25  and  C17_26 
REMARK   15  A    between atoms: C17_26  and  C18_27 
REMARK   16  A    between atoms: C17_26  and  C19_28 
REMARK   17  A    between atoms: C20_29  and  C21_30 
REMARK   18  A    between atoms: C20_29  and  C24_33 
REMARK   19  A    between atoms: C20_29  and  N6_40 
REMARK   20  A    between atoms: C21_30  and  C22_31 
REMARK   21  A    between atoms: C22_31  and  C23_32 
REMARK   22  A    between atoms: C23_32  and  O8_43 
REMARK   23  A    between atoms: C24_33  and  C25_34 
REMARK   24  A    between atoms: C28_38  and  O6_39 
REMARK   25  A    between atoms: C29_42  and  O8_43 
REMARK   26  A    between atoms: C29_42  and  C35_49 
ROOT
ATOM      1  C14 non d ame      -9.078   8.785  68.545  0.00  0.00     0.089 C 
ATOM      2  H20 non d ame      -8.342   7.999  68.371  0.00  0.00     0.087 H 
ENDROOT
BRANCH   1   3
ATOM      3  N4  non d ame      -8.369   9.939  69.079  0.00  0.00    -0.346 N 
ATOM      4  C10 non d ame      -6.983  10.275  68.591  0.00  0.00     0.241 C 
ATOM      5  O4  non d ame      -6.456   9.601  67.769  0.00  0.00    -0.271 OA
ATOM      6  H19 non d ame      -8.834  10.498  69.780  0.00  0.00     0.163 HD
BRANCH   4   7
ATOM      7  C9  non d ame      -6.267  11.476  69.152  0.00  0.00     0.092 C 
ATOM      8  H11 non d ame      -5.406  11.705  68.524  0.00  0.00     0.088 H 
BRANCH   7   9
ATOM      9  N3  non d ame      -7.157  12.640  69.109  0.00  0.00    -0.346 N 
ATOM     10  C7  non d ame      -6.898  13.711  68.178  0.00  0.00     0.240 C 
ATOM     11  O3  non d ame      -5.978  13.653  67.458  0.00  0.00    -0.271 OA
ATOM     12  H10 non d ame      -7.954  12.705  69.726  0.00  0.00     0.163 HD
BRANCH  10  13
ATOM     13  C6  non d ame      -7.848  14.949  68.140  0.00  0.00     0.086 C 
ATOM     14  H6  non d ame      -8.396  15.031  67.202  0.00  0.00     0.086 H 
BRANCH  13  15
ATOM     15  N2  non d ame      -8.841  14.814  69.192  0.00  0.00    -0.343 N 
ATOM     16  C5  non d ame     -10.198  15.319  68.972  0.00  0.00     0.273 C 
ATOM     17  O2  non d ame     -10.479  15.835  67.947  0.00  0.00    -0.266 OA
ATOM     18  H5  non d ame      -8.591  14.374  70.067  0.00  0.00     0.163 HD
BRANCH  16  19
ATOM     19  C4  non d ame     -11.259  15.182  70.075  0.00  0.00     0.154 A 
ATOM     20  C1  non d ame     -12.014  14.013  70.408  0.00  0.00    -0.017 A 
ATOM     21  C2  non d ame     -12.842  14.408  71.482  0.00  0.00     0.077 A 
ATOM     22  H1  non d ame     -11.969  13.029  69.941  0.00  0.00     0.091 H 
ATOM     23  O1  non d ame     -12.584  15.659  71.731  0.00  0.00    -0.218 OA
ATOM     24  N1  non d ame     -11.663  16.132  70.923  0.00  0.00    -0.123 NA
BRANCH  21  25
ATOM     25  C3  non d ame     -13.850  13.531  72.214  0.00  0.00    -0.029 C 
ATOM     26  H2  non d ame     -14.587  14.162  72.711  0.00  0.00     0.036 H 
ATOM     27  H3  non d ame     -14.352  12.881  71.498  0.00  0.00     0.036 H 
ATOM     28  H4  non d ame     -13.332  12.923  72.956  0.00  0.00     0.036 H 
ENDBRANCH  21  25
ENDBRANCH  16  19
ENDBRANCH  13  15
BRANCH  13  29
ATOM     29  C8  non d ame      -7.044  16.208  68.347  0.00  0.00    -0.049 C 
ATOM     30  H7  non d ame      -7.659  17.075  68.104  0.00  0.00     0.030 H 
ATOM     31  H8  non d ame      -6.724  16.268  69.387  0.00  0.00     0.030 H 
ATOM     32  H9  non d ame      -6.170  16.191  67.697  0.00  0.00     0.030 H 
ENDBRANCH  13  29
ENDBRANCH  10  13
ENDBRANCH   7   9
BRANCH   7  33
ATOM     33  C11 non d ame      -5.857  11.193  70.627  0.00  0.00    -0.033 C 
ATOM     34  H12 non d ame      -6.773  11.046  71.200  0.00  0.00     0.042 H 
BRANCH  33  35
ATOM     35  C12 non d ame      -5.016   9.884  70.742  0.00  0.00    -0.071 C 
ATOM     36  H13 non d ame      -5.362   9.304  71.598  0.00  0.00     0.028 H 
ATOM     37  H14 non d ame      -5.136   9.294  69.833  0.00  0.00     0.028 H 
ATOM     38  H15 non d ame      -3.965  10.138  70.876  0.00  0.00     0.028 H 
ENDBRANCH  33  35
BRANCH  33  39
ATOM     39  C13 non d ame      -5.094  12.412  71.239  0.00  0.00    -0.071 C 
ATOM     40  H16 non d ame      -4.171  12.578  70.684  0.00  0.00     0.028 H 
ATOM     41  H17 non d ame      -5.721  13.302  71.175  0.00  0.00     0.028 H 
ATOM     42  H18 non d ame      -4.860  12.206  72.283  0.00  0.00     0.028 H 
ENDBRANCH  33  39
ENDBRANCH   7  33
ENDBRANCH   4   7
ENDBRANCH   1   3
BRANCH   1  43
ATOM     43  C15 non d ame      -9.801   9.212  67.235  0.00  0.00     0.240 C 
ATOM     44  O5  non d ame     -10.972   9.045  67.125  0.00  0.00    -0.271 OA
ATOM     45  N6  non d ame      -9.033   9.837  66.120  0.00  0.00    -0.355 N 
ATOM     46  H46 non d ame      -8.039   9.988  66.203  0.00  0.00     0.162 HD
BRANCH  45  47
ATOM     47  C20 non d ame      -9.736  10.238  64.882  0.00  0.00     0.013 C 
ATOM     48  H30 non d ame     -10.703   9.736  64.867  0.00  0.00     0.072 H 
BRANCH  47  49
ATOM     49  C21 non d ame      -8.916   9.815  63.683  0.00  0.00    -0.038 C 
ATOM     50  H31 non d ame      -9.294   8.833  63.400  0.00  0.00     0.036 H 
ATOM     51  H32 non d ame      -8.975  10.646  62.980  0.00  0.00     0.036 H 
BRANCH  49  52
ATOM     52  C22 non d ame      -7.420   9.629  64.016  0.00  0.00     0.018 C 
ATOM     53  H33 non d ame      -6.943  10.579  63.773  0.00  0.00     0.048 H 
ATOM     54  H34 non d ame      -7.390   9.249  65.038  0.00  0.00     0.048 H 
BRANCH  52  55
ATOM     55  C23 non d ame      -6.713   8.558  63.140  0.00  0.00     0.259 C 
ATOM     56  O7  non d ame      -5.540   8.610  62.953  0.00  0.00    -0.265 OA
BRANCH  55  57
ATOM     57  O8  non d ame      -7.485   7.518  62.552  0.00  0.00    -0.317 OA
BRANCH  57  58
ATOM     58  C29 non d ame      -7.032   6.201  62.878  0.00  0.00     0.052 C 
ATOM     59  H47 non d ame      -6.663   5.776  61.944  0.00  0.00     0.082 H 
ATOM     60  H48 non d ame      -6.358   6.322  63.726  0.00  0.00     0.082 H 
BRANCH  58  61
ATOM     61  C35 non d ame      -8.260   5.374  63.342  0.00  0.00    -0.034 A 
ATOM     62  C30 non d ame      -9.001   4.647  62.416  0.00  0.00    -0.075 A 
ATOM     63  C31 non d ame     -10.105   3.904  62.833  0.00  0.00    -0.082 A 
ATOM     64  H49 non d ame      -8.717   4.658  61.364  0.00  0.00     0.084 H 
ATOM     65  C32 non d ame     -10.468   3.891  64.182  0.00  0.00    -0.083 A 
ATOM     66  H50 non d ame     -10.682   3.333  62.105  0.00  0.00     0.083 H 
ATOM     67  C33 non d ame      -9.728   4.621  65.102  0.00  0.00    -0.082 A 
ATOM     68  H51 non d ame     -11.329   3.313  64.517  0.00  0.00     0.083 H 
ATOM     69  C34 non d ame      -8.623   5.363  64.691  0.00  0.00    -0.075 A 
ATOM     70  H52 non d ame     -10.016   4.611  66.154  0.00  0.00     0.083 H 
ATOM     71  H53 non d ame      -8.046   5.933  65.420  0.00  0.00     0.084 H 
ENDBRANCH  58  61
ENDBRANCH  57  58
ENDBRANCH  55  57
ENDBRANCH  52  55
ENDBRANCH  49  52
ENDBRANCH  47  49
BRANCH  47  72
ATOM     72  C24 non d ame      -9.923  11.754  64.862  0.00  0.00    -0.039 C 
ATOM     73  H35 non d ame      -9.311  12.132  65.682  0.00  0.00     0.036 H 
ATOM     74  H36 non d ame      -9.711  12.059  63.838  0.00  0.00     0.036 H 
BRANCH  72  75
ATOM     75  C25 non d ame     -11.439  12.167  65.174  0.00  0.00    -0.001 C 
ATOM     76  C26 non d ame     -11.957  13.272  64.071  0.00  0.00    -0.035 C 
ATOM     77  C27 non d ame     -12.486  14.331  64.730  0.00  0.00     0.085 C 
ATOM     78  H38 non d ame     -11.105  13.699  63.543  0.00  0.00     0.036 H 
ATOM     79  H39 non d ame     -12.802  12.872  63.511  0.00  0.00     0.036 H 
ATOM     80  N5  non d ame     -12.081  14.198  66.178  0.00  0.00    -0.049 N 
ATOM     81  H40 non d ame     -12.000  15.210  64.304  0.00  0.00     0.075 H 
ATOM     82  H41 non d ame     -13.566  14.213  64.651  0.00  0.00     0.075 H 
ATOM     83  C28 non d ame     -11.550  12.683  66.353  0.00  0.00     0.193 C 
ATOM     84  H42 non d ame     -11.305  14.829  66.317  0.00  0.00     0.280 HD
ATOM     85  H43 non d ame     -12.925  14.307  66.722  0.00  0.00     0.280 HD
ATOM     86  H44 non d ame     -12.171  11.932  66.841  0.00  0.00     0.129 H 
ATOM     87  H37 non d ame     -12.077  11.300  65.345  0.00  0.00     0.046 H 
BRANCH  83  88
ATOM     88  O6  non d ame     -10.310  12.675  67.064  0.00  0.00    -0.369 OA
ATOM     89  H45 non d ame     -10.483  12.625  68.006  0.00  0.00     0.212 HD
ENDBRANCH  83  88
ENDBRANCH  72  75
ENDBRANCH  47  72
ENDBRANCH  45  47
ENDBRANCH   1  43
BRANCH   1  90
ATOM     90  C16 non d ame     -10.103   8.316  69.564  0.00  0.00    -0.035 C 
ATOM     91  H21 non d ame     -11.042   8.241  69.016  0.00  0.00     0.037 H 
ATOM     92  H22 non d ame      -9.667   7.427  70.023  0.00  0.00     0.037 H 
BRANCH  90  93
ATOM     93  C17 non d ame     -10.347   9.335  70.722  0.00  0.00    -0.059 C 
ATOM     94  H23 non d ame      -9.480   9.993  70.772  0.00  0.00     0.038 H 
BRANCH  93  95
ATOM     95  C18 non d ame     -11.606  10.224  70.468  0.00  0.00    -0.073 C 
ATOM     96  H24 non d ame     -12.452   9.589  70.206  0.00  0.00     0.028 H 
ATOM     97  H25 non d ame     -11.841  10.788  71.372  0.00  0.00     0.028 H 
ATOM     98  H26 non d ame     -11.403  10.916  69.651  0.00  0.00     0.028 H 
ENDBRANCH  93  95
BRANCH  93  99
ATOM     99  C19 non d ame     -10.450   8.617  72.070  0.00  0.00    -0.073 C 
ATOM    100  H27 non d ame     -11.439   8.167  72.168  0.00  0.00     0.028 H 
ATOM    101  H28 non d ame      -9.690   7.838  72.126  0.00  0.00     0.028 H 
ATOM    102  H29 non d ame     -10.295   9.333  72.877  0.00  0.00     0.028 H 
ENDBRANCH  93  99
ENDBRANCH  90  93
ENDBRANCH   1  90
TORSDOF 26
ENDMDL
MODEL 13
REMARK VINA RESULT:      -7.0      2.258      9.029
REMARK  26 active torsions:
REMARK  status: ('A' for Active; 'I' for Inactive)
REMARK    1  A    between atoms: C2_2  and  C3_3 
REMARK    2  A    between atoms: C4_6  and  C5_7 
REMARK       I    between atoms: C5_7  and  N2_9 
REMARK    3  A    between atoms: N2_9  and  C6_10 
REMARK    4  A    between atoms: C6_10  and  C7_11 
REMARK    5  A    between atoms: C6_10  and  C8_13 
REMARK       I    between atoms: C7_11  and  N3_14 
REMARK    6  A    between atoms: N3_14  and  C9_15 
REMARK    7  A    between atoms: C9_15  and  C10_16 
REMARK    8  A    between atoms: C9_15  and  C11_18 
REMARK       I    between atoms: C10_16  and  N4_21 
REMARK    9  A    between atoms: C11_18  and  C12_19 
REMARK   10  A    between atoms: C11_18  and  C13_20 
REMARK   11  A    between atoms: N4_21  and  C14_22 
REMARK   12  A    between atoms: C14_22  and  C15_23 
REMARK   13  A    between atoms: C14_22  and  C16_25 
REMARK       I    between atoms: C15_23  and  N6_40 
REMARK   14  A    between atoms: C16_25  and  C17_26 
REMARK   15  A    between atoms: C17_26  and  C18_27 
REMARK   16  A    between atoms: C17_26  and  C19_28 
REMARK   17  A    between atoms: C20_29  and  C21_30 
REMARK   18  A    between atoms: C20_29  and  C24_33 
REMARK   19  A    between atoms: C20_29  and  N6_40 
REMARK   20  A    between atoms: C21_30  and  C22_31 
REMARK   21  A    between atoms: C22_31  and  C23_32 
REMARK   22  A    between atoms: C23_32  and  O8_43 
REMARK   23  A    between atoms: C24_33  and  C25_34 
REMARK   24  A    between atoms: C28_38  and  O6_39 
REMARK   25  A    between atoms: C29_42  and  O8_43 
REMARK   26  A    between atoms: C29_42  and  C35_49 
ROOT
ATOM      1  C14 non d ame      -8.449   9.889  65.062  0.00  0.00     0.089 C 
ATOM      2  H20 non d ame      -7.360   9.896  65.112  0.00  0.00     0.087 H 
ENDROOT
BRANCH   1   3
ATOM      3  N4  non d ame      -8.901   8.589  65.535  0.00  0.00    -0.346 N 
ATOM      4  C10 non d ame      -7.952   7.673  66.267  0.00  0.00     0.241 C 
ATOM      5  O4  non d ame      -6.829   8.003  66.461  0.00  0.00    -0.271 OA
ATOM      6  H19 non d ame      -9.860   8.326  65.358  0.00  0.00     0.163 HD
BRANCH   4   7
ATOM      7  C9  non d ame      -8.438   6.333  66.754  0.00  0.00     0.092 C 
ATOM      8  H11 non d ame      -7.642   5.846  67.318  0.00  0.00     0.088 H 
BRANCH   7   9
ATOM      9  N3  non d ame      -9.564   6.526  67.674  0.00  0.00    -0.346 N 
ATOM     10  C7  non d ame      -9.320   6.939  69.034  0.00  0.00     0.240 C 
ATOM     11  O3  non d ame      -8.225   7.119  69.406  0.00  0.00    -0.271 OA
ATOM     12  H10 non d ame     -10.514   6.373  67.368  0.00  0.00     0.163 HD
BRANCH  10  13
ATOM     13  C6  non d ame     -10.522   7.140  70.008  0.00  0.00     0.086 C 
ATOM     14  H6  non d ame     -10.244   7.006  71.054  0.00  0.00     0.086 H 
BRANCH  13  15
ATOM     15  N2  non d ame     -11.012   8.502  69.879  0.00  0.00    -0.343 N 
ATOM     16  C5  non d ame     -11.468   9.221  71.071  0.00  0.00     0.273 C 
ATOM     17  O2  non d ame     -11.441   8.693  72.128  0.00  0.00    -0.266 OA
ATOM     18  H5  non d ame     -11.034   8.945  68.971  0.00  0.00     0.163 HD
BRANCH  16  19
ATOM     19  C4  non d ame     -11.987  10.662  70.949  0.00  0.00     0.154 A 
ATOM     20  C1  non d ame     -11.604  11.640  69.977  0.00  0.00    -0.017 A 
ATOM     21  C2  non d ame     -12.362  12.788  70.297  0.00  0.00     0.077 A 
ATOM     22  H1  non d ame     -10.886  11.532  69.163  0.00  0.00     0.091 H 
ATOM     23  O1  non d ame     -13.092  12.493  71.333  0.00  0.00    -0.218 OA
ATOM     24  N1  non d ame     -12.890  11.259  71.732  0.00  0.00    -0.123 NA
BRANCH  21  25
ATOM     25  C3  non d ame     -12.330  14.123  69.565  0.00  0.00    -0.029 C 
ATOM     26  H2  non d ame     -11.490  14.716  69.926  0.00  0.00     0.036 H 
ATOM     27  H3  non d ame     -12.217  13.947  68.495  0.00  0.00     0.036 H 
ATOM     28  H4  non d ame     -13.260  14.661  69.748  0.00  0.00     0.036 H 
ENDBRANCH  21  25
ENDBRANCH  16  19
ENDBRANCH  13  15
BRANCH  13  29
ATOM     29  C8  non d ame     -11.618   6.163  69.667  0.00  0.00    -0.049 C 
ATOM     30  H7  non d ame     -11.397   5.195  70.118  0.00  0.00     0.030 H 
ATOM     31  H8  non d ame     -12.569   6.534  70.050  0.00  0.00     0.030 H 
ATOM     32  H9  non d ame     -11.681   6.052  68.585  0.00  0.00     0.030 H 
ENDBRANCH  13  29
ENDBRANCH  10  13
ENDBRANCH   7   9
BRANCH   7  33
ATOM     33  C11 non d ame      -8.904   5.478  65.540  0.00  0.00    -0.033 C 
ATOM     34  H12 non d ame      -9.672   6.045  65.014  0.00  0.00     0.042 H 
BRANCH  33  35
ATOM     35  C12 non d ame      -7.735   5.229  64.538  0.00  0.00    -0.071 C 
ATOM     36  H13 non d ame      -7.346   4.220  64.676  0.00  0.00     0.028 H 
ATOM     37  H14 non d ame      -8.101   5.339  63.517  0.00  0.00     0.028 H 
ATOM     38  H15 non d ame      -6.941   5.953  64.719  0.00  0.00     0.028 H 
ENDBRANCH  33  35
BRANCH  33  39
ATOM     39  C13 non d ame      -9.539   4.131  66.015  0.00  0.00    -0.071 C 
ATOM     40  H16 non d ame      -8.870   3.307  65.768  0.00  0.00     0.028 H 
ATOM     41  H17 non d ame      -9.693   4.163  67.094  0.00  0.00     0.028 H 
ATOM     42  H18 non d ame     -10.497   3.985  65.516  0.00  0.00     0.028 H 
ENDBRANCH  33  39
ENDBRANCH   7  33
ENDBRANCH   4   7
ENDBRANCH   1   3
BRANCH   1  43
ATOM     43  C15 non d ame      -9.085  10.990  65.958  0.00  0.00     0.240 C 
ATOM     44  O5  non d ame      -9.344  10.752  67.094  0.00  0.00    -0.271 OA
ATOM     45  N6  non d ame      -9.364  12.345  65.403  0.00  0.00    -0.355 N 
ATOM     46  H46 non d ame      -9.144  12.561  64.441  0.00  0.00     0.162 HD
BRANCH  45  47
ATOM     47  C20 non d ame      -9.967  13.382  66.268  0.00  0.00     0.013 C 
ATOM     48  H30 non d ame     -10.441  12.880  67.111  0.00  0.00     0.072 H 
BRANCH  47  49
ATOM     49  C21 non d ame     -11.001  14.152  65.478  0.00  0.00    -0.038 C 
ATOM     50  H31 non d ame     -10.563  14.306  64.491  0.00  0.00     0.036 H 
ATOM     51  H32 non d ame     -11.929  13.590  65.581  0.00  0.00     0.036 H 
BRANCH  49  52
ATOM     52  C22 non d ame     -11.274  15.557  66.058  0.00  0.00     0.018 C 
ATOM     53  H33 non d ame     -12.331  15.565  66.328  0.00  0.00     0.048 H 
ATOM     54  H34 non d ame     -10.515  15.712  66.825  0.00  0.00     0.048 H 
BRANCH  52  55
ATOM     55  C23 non d ame     -11.086  16.707  65.030  0.00  0.00     0.259 C 
ATOM     56  O7  non d ame     -11.607  16.654  63.964  0.00  0.00    -0.265 OA
BRANCH  55  57
ATOM     57  O8  non d ame     -10.271  17.821  65.373  0.00  0.00    -0.317 OA
BRANCH  57  58
ATOM     58  C29 non d ame     -10.321  18.175  66.758  0.00  0.00     0.052 C 
ATOM     59  H47 non d ame     -10.849  19.128  66.800  0.00  0.00     0.082 H 
ATOM     60  H48 non d ame     -10.729  17.304  67.270  0.00  0.00     0.082 H 
BRANCH  58  61
ATOM     61  C35 non d ame      -8.866  18.397  67.248  0.00  0.00    -0.034 A 
ATOM     62  C30 non d ame      -7.798  17.891  66.514  0.00  0.00    -0.075 A 
ATOM     63  C31 non d ame      -6.491  18.090  66.955  0.00  0.00    -0.082 A 
ATOM     64  H49 non d ame      -7.986  17.338  65.594  0.00  0.00     0.084 H 
ATOM     65  C32 non d ame      -6.253  18.797  68.137  0.00  0.00    -0.083 A 
ATOM     66  H50 non d ame      -5.656  17.693  66.376  0.00  0.00     0.083 H 
ATOM     67  C33 non d ame      -7.321  19.298  68.867  0.00  0.00    -0.082 A 
ATOM     68  H51 non d ame      -5.233  18.958  68.488  0.00  0.00     0.083 H 
ATOM     69  C34 non d ame      -8.630  19.103  68.430  0.00  0.00    -0.075 A 
ATOM     70  H52 non d ame      -7.132  19.848  69.790  0.00  0.00     0.083 H 
ATOM     71  H53 non d ame      -9.464  19.501  69.009  0.00  0.00     0.084 H 
ENDBRANCH  58  61
ENDBRANCH  57  58
ENDBRANCH  55  57
ENDBRANCH  52  55
ENDBRANCH  49  52
ENDBRANCH  47  49
BRANCH  47  72
ATOM     72  C24 non d ame      -8.884  14.339  66.760  0.00  0.00    -0.039 C 
ATOM     73  H35 non d ame      -8.023  14.159  66.115  0.00  0.00     0.036 H 
ATOM     74  H36 non d ame      -9.353  15.323  66.780  0.00  0.00     0.036 H 
BRANCH  72  75
ATOM     75  C25 non d ame      -8.431  14.001  68.259  0.00  0.00    -0.001 C 
ATOM     76  C26 non d ame      -8.404  15.377  69.160  0.00  0.00    -0.035 C 
ATOM     77  C27 non d ame      -7.204  15.468  69.782  0.00  0.00     0.085 C 
ATOM     78  H38 non d ame      -8.421  16.250  68.508  0.00  0.00     0.036 H 
ATOM     79  H39 non d ame      -9.113  15.298  69.984  0.00  0.00     0.036 H 
ATOM     80  N5  non d ame      -6.293  14.455  69.133  0.00  0.00    -0.049 N 
ATOM     81  H40 non d ame      -6.837  16.470  69.560  0.00  0.00     0.075 H 
ATOM     82  H41 non d ame      -7.388  15.171  70.814  0.00  0.00     0.075 H 
ATOM     83  C28 non d ame      -7.252  13.473  68.283  0.00  0.00     0.193 C 
ATOM     84  H42 non d ame      -5.706  14.967  68.490  0.00  0.00     0.280 HD
ATOM     85  H43 non d ame      -5.874  13.924  69.884  0.00  0.00     0.280 HD
ATOM     86  H44 non d ame      -7.490  12.475  68.652  0.00  0.00     0.129 H 
ATOM     87  H37 non d ame      -8.971  13.149  68.671  0.00  0.00     0.046 H 
BRANCH  83  88
ATOM     88  O6  non d ame      -6.721  13.279  66.971  0.00  0.00    -0.369 OA
ATOM     89  H45 non d ame      -7.373  12.834  66.425  0.00  0.00     0.212 HD
ENDBRANCH  83  88
ENDBRANCH  72  75
ENDBRANCH  47  72
ENDBRANCH  45  47
ENDBRANCH   1  43
BRANCH   1  90
ATOM     90  C16 non d ame      -8.900  10.077  63.623  0.00  0.00    -0.035 C 
ATOM     91  H21 non d ame      -9.704   9.356  63.475  0.00  0.00     0.037 H 
ATOM     92  H22 non d ame      -9.100  11.144  63.520  0.00  0.00     0.037 H 
BRANCH  90  93
ATOM     93  C17 non d ame      -7.799   9.731  62.571  0.00  0.00    -0.059 C 
ATOM     94  H23 non d ame      -6.829   9.888  63.043  0.00  0.00     0.038 H 
BRANCH  93  95
ATOM     95  C18 non d ame      -7.870   8.240  62.112  0.00  0.00    -0.073 C 
ATOM     96  H24 non d ame      -6.936   7.737  62.364  0.00  0.00     0.028 H 
ATOM     97  H25 non d ame      -8.698   7.743  62.618  0.00  0.00     0.028 H 
ATOM     98  H26 non d ame      -8.026   8.199  61.034  0.00  0.00     0.028 H 
ENDBRANCH  93  95
BRANCH  93  99
ATOM     99  C19 non d ame      -7.876  10.675  61.368  0.00  0.00    -0.073 C 
ATOM    100  H27 non d ame      -7.036  10.482  60.700  0.00  0.00     0.028 H 
ATOM    101  H28 non d ame      -8.812  10.508  60.834  0.00  0.00     0.028 H 
ATOM    102  H29 non d ame      -7.835  11.708  61.713  0.00  0.00     0.028 H 
ENDBRANCH  93  99
ENDBRANCH  90  93
ENDBRANCH   1  90
TORSDOF 26
ENDMDL
MODEL 14
REMARK VINA RESULT:      -7.0      2.834      5.376
REMARK  26 active torsions:
REMARK  status: ('A' for Active; 'I' for Inactive)
REMARK    1  A    between atoms: C2_2  and  C3_3 
REMARK    2  A    between atoms: C4_6  and  C5_7 
REMARK       I    between atoms: C5_7  and  N2_9 
REMARK    3  A    between atoms: N2_9  and  C6_10 
REMARK    4  A    between atoms: C6_10  and  C7_11 
REMARK    5  A    between atoms: C6_10  and  C8_13 
REMARK       I    between atoms: C7_11  and  N3_14 
REMARK    6  A    between atoms: N3_14  and  C9_15 
REMARK    7  A    between atoms: C9_15  and  C10_16 
REMARK    8  A    between atoms: C9_15  and  C11_18 
REMARK       I    between atoms: C10_16  and  N4_21 
REMARK    9  A    between atoms: C11_18  and  C12_19 
REMARK   10  A    between atoms: C11_18  and  C13_20 
REMARK   11  A    between atoms: N4_21  and  C14_22 
REMARK   12  A    between atoms: C14_22  and  C15_23 
REMARK   13  A    between atoms: C14_22  and  C16_25 
REMARK       I    between atoms: C15_23  and  N6_40 
REMARK   14  A    between atoms: C16_25  and  C17_26 
REMARK   15  A    between atoms: C17_26  and  C18_27 
REMARK   16  A    between atoms: C17_26  and  C19_28 
REMARK   17  A    between atoms: C20_29  and  C21_30 
REMARK   18  A    between atoms: C20_29  and  C24_33 
REMARK   19  A    between atoms: C20_29  and  N6_40 
REMARK   20  A    between atoms: C21_30  and  C22_31 
REMARK   21  A    between atoms: C22_31  and  C23_32 
REMARK   22  A    between atoms: C23_32  and  O8_43 
REMARK   23  A    between atoms: C24_33  and  C25_34 
REMARK   24  A    between atoms: C28_38  and  O6_39 
REMARK   25  A    between atoms: C29_42  and  O8_43 
REMARK   26  A    between atoms: C29_42  and  C35_49 
ROOT
ATOM      1  C14 non d ame      -7.096  13.260  68.194  0.00  0.00     0.089 C 
ATOM      2  H20 non d ame      -6.416  13.033  67.372  0.00  0.00     0.087 H 
ENDROOT
BRANCH   1   3
ATOM      3  N4  non d ame      -7.285  14.702  68.221  0.00  0.00    -0.346 N 
ATOM      4  C10 non d ame      -6.187  15.623  67.753  0.00  0.00     0.241 C 
ATOM      5  O4  non d ame      -5.158  15.180  67.361  0.00  0.00    -0.271 OA
ATOM      6  H19 non d ame      -8.167  15.060  68.561  0.00  0.00     0.163 HD
BRANCH   4   7
ATOM      7  C9  non d ame      -6.401  17.114  67.783  0.00  0.00     0.092 C 
ATOM      8  H11 non d ame      -6.136  17.534  66.813  0.00  0.00     0.088 H 
BRANCH   7   9
ATOM      9  N3  non d ame      -7.822  17.399  68.004  0.00  0.00    -0.346 N 
ATOM     10  C7  non d ame      -8.654  17.812  66.901  0.00  0.00     0.240 C 
ATOM     11  O3  non d ame      -8.197  17.921  65.829  0.00  0.00    -0.271 OA
ATOM     12  H10 non d ame      -8.231  17.311  68.924  0.00  0.00     0.163 HD
BRANCH  10  13
ATOM     13  C6  non d ame     -10.165  18.117  67.143  0.00  0.00     0.086 C 
ATOM     14  H6  non d ame     -10.813  17.661  66.394  0.00  0.00     0.086 H 
BRANCH  13  15
ATOM     15  N2  non d ame     -10.559  17.559  68.426  0.00  0.00    -0.343 N 
ATOM     16  C5  non d ame     -11.232  16.259  68.472  0.00  0.00     0.273 C 
ATOM     17  O2  non d ame     -11.455  15.672  67.471  0.00  0.00    -0.266 OA
ATOM     18  H5  non d ame     -10.367  18.069  69.277  0.00  0.00     0.163 HD
BRANCH  16  19
ATOM     19  C4  non d ame     -11.653  15.657  69.822  0.00  0.00     0.154 A 
ATOM     20  C1  non d ame     -12.464  14.498  70.037  0.00  0.00    -0.017 A 
ATOM     21  C2  non d ame     -12.551  14.370  71.441  0.00  0.00     0.077 A 
ATOM     22  H1  non d ame     -12.919  13.849  69.289  0.00  0.00     0.091 H 
ATOM     23  O1  non d ame     -11.866  15.346  71.962  0.00  0.00    -0.218 OA
ATOM     24  N1  non d ame     -11.332  16.110  71.037  0.00  0.00    -0.123 NA
BRANCH  21  25
ATOM     25  C3  non d ame     -13.307  13.290  72.203  0.00  0.00    -0.029 C 
ATOM     26  H2  non d ame     -14.324  13.217  71.818  0.00  0.00     0.036 H 
ATOM     27  H3  non d ame     -12.800  12.333  72.075  0.00  0.00     0.036 H 
ATOM     28  H4  non d ame     -13.337  13.546  73.263  0.00  0.00     0.036 H 
ENDBRANCH  21  25
ENDBRANCH  16  19
ENDBRANCH  13  15
BRANCH  13  29
ATOM     29  C8  non d ame     -10.387  19.608  67.138  0.00  0.00    -0.049 C 
ATOM     30  H7  non d ame      -9.645  20.088  67.776  0.00  0.00     0.030 H 
ATOM     31  H8  non d ame     -10.290  19.986  66.120  0.00  0.00     0.030 H 
ATOM     32  H9  non d ame     -11.386  19.827  67.514  0.00  0.00     0.030 H 
ENDBRANCH  13  29
ENDBRANCH  10  13
ENDBRANCH   7   9
BRANCH   7  33
ATOM     33  C11 non d ame      -5.564  17.735  68.939  0.00  0.00    -0.033 C 
ATOM     34  H12 non d ame      -4.530  17.794  68.602  0.00  0.00     0.042 H 
BRANCH  33  35
ATOM     35  C12 non d ame      -6.034  19.187  69.264  0.00  0.00    -0.071 C 
ATOM     36  H13 non d ame      -7.123  19.212  69.323  0.00  0.00     0.028 H 
ATOM     37  H14 non d ame      -5.613  19.500  70.219  0.00  0.00     0.028 H 
ATOM     38  H15 non d ame      -5.697  19.862  68.479  0.00  0.00     0.028 H 
ENDBRANCH  33  35
BRANCH  33  39
ATOM     39  C13 non d ame      -5.607  16.828  70.211  0.00  0.00    -0.071 C 
ATOM     40  H16 non d ame      -6.334  16.030  70.064  0.00  0.00     0.028 H 
ATOM     41  H17 non d ame      -4.621  16.394  70.381  0.00  0.00     0.028 H 
ATOM     42  H18 non d ame      -5.895  17.427  71.075  0.00  0.00     0.028 H 
ENDBRANCH  33  39
ENDBRANCH   7  33
ENDBRANCH   4   7
ENDBRANCH   1   3
BRANCH   1  43
ATOM     43  C15 non d ame      -8.484  12.582  68.012  0.00  0.00     0.240 C 
ATOM     44  O5  non d ame      -9.471  13.159  68.337  0.00  0.00    -0.271 OA
ATOM     45  N6  non d ame      -8.584  11.215  67.425  0.00  0.00    -0.355 N 
ATOM     46  H46 non d ame      -7.753  10.716  67.141  0.00  0.00     0.162 HD
BRANCH  45  47
ATOM     47  C20 non d ame      -9.911  10.585  67.257  0.00  0.00     0.013 C 
ATOM     48  H30 non d ame     -10.669  11.323  67.521  0.00  0.00     0.072 H 
BRANCH  47  49
ATOM     49  C21 non d ame     -10.015   9.387  68.175  0.00  0.00    -0.038 C 
ATOM     50  H31 non d ame     -10.121   9.794  69.180  0.00  0.00     0.036 H 
ATOM     51  H32 non d ame     -10.803   8.762  67.754  0.00  0.00     0.036 H 
BRANCH  49  52
ATOM     52  C22 non d ame      -8.733   8.527  68.185  0.00  0.00     0.018 C 
ATOM     53  H33 non d ame      -8.730   7.990  67.236  0.00  0.00     0.048 H 
ATOM     54  H34 non d ame      -7.920   9.212  68.425  0.00  0.00     0.048 H 
BRANCH  52  55
ATOM     55  C23 non d ame      -8.718   7.438  69.293  0.00  0.00     0.259 C 
ATOM     56  O7  non d ame      -7.689   6.994  69.689  0.00  0.00    -0.265 OA
BRANCH  55  57
ATOM     57  O8  non d ame      -9.951   6.966  69.823  0.00  0.00    -0.317 OA
BRANCH  57  58
ATOM     58  C29 non d ame     -10.140   7.262  71.210  0.00  0.00     0.052 C 
ATOM     59  H47 non d ame     -10.050   6.308  71.730  0.00  0.00     0.082 H 
ATOM     60  H48 non d ame      -9.449   8.073  71.435  0.00  0.00     0.082 H 
BRANCH  58  61
ATOM     61  C35 non d ame     -11.589   7.786  71.394  0.00  0.00    -0.034 A 
ATOM     62  C30 non d ame     -11.814   9.133  71.661  0.00  0.00    -0.075 A 
ATOM     63  C31 non d ame     -13.115   9.604  71.827  0.00  0.00    -0.082 A 
ATOM     64  H49 non d ame     -10.970   9.819  71.740  0.00  0.00     0.084 H 
ATOM     65  C32 non d ame     -14.195   8.722  71.727  0.00  0.00    -0.083 A 
ATOM     66  H50 non d ame     -13.288  10.661  72.034  0.00  0.00     0.083 H 
ATOM     67  C33 non d ame     -13.965   7.379  71.464  0.00  0.00    -0.082 A 
ATOM     68  H51 non d ame     -15.215   9.083  71.855  0.00  0.00     0.083 H 
ATOM     69  C34 non d ame     -12.666   6.904  71.295  0.00  0.00    -0.075 A 
ATOM     70  H52 non d ame     -14.810   6.693  71.389  0.00  0.00     0.083 H 
ATOM     71  H53 non d ame     -12.494   5.847  71.088  0.00  0.00     0.084 H 
ENDBRANCH  58  61
ENDBRANCH  57  58
ENDBRANCH  55  57
ENDBRANCH  52  55
ENDBRANCH  49  52
ENDBRANCH  47  49
BRANCH  47  72
ATOM     72  C24 non d ame     -10.090  10.135  65.809  0.00  0.00    -0.039 C 
ATOM     73  H35 non d ame      -9.175   9.598  65.557  0.00  0.00     0.036 H 
ATOM     74  H36 non d ame     -11.050   9.618  65.782  0.00  0.00     0.036 H 
BRANCH  72  75
ATOM     75  C25 non d ame     -10.197  11.383  64.810  0.00  0.00    -0.001 C 
ATOM     76  C26 non d ame     -11.633  12.154  65.029  0.00  0.00    -0.035 C 
ATOM     77  C27 non d ame     -12.239  12.297  63.826  0.00  0.00     0.085 C 
ATOM     78  H38 non d ame     -12.319  11.516  65.586  0.00  0.00     0.036 H 
ATOM     79  H39 non d ame     -11.460  13.181  65.351  0.00  0.00     0.036 H 
ATOM     80  N5  non d ame     -11.505  11.407  62.853  0.00  0.00    -0.049 N 
ATOM     81  H40 non d ame     -13.252  11.916  63.963  0.00  0.00     0.075 H 
ATOM     82  H41 non d ame     -12.082  13.338  63.544  0.00  0.00     0.075 H 
ATOM     83  C28 non d ame     -10.121  11.003  63.578  0.00  0.00     0.193 C 
ATOM     84  H42 non d ame     -12.067  10.575  62.746  0.00  0.00     0.280 HD
ATOM     85  H43 non d ame     -11.291  11.979  62.048  0.00  0.00     0.280 HD
ATOM     86  H44 non d ame      -9.183  11.474  63.283  0.00  0.00     0.129 H 
ATOM     87  H37 non d ame      -9.297  11.998  64.820  0.00  0.00     0.046 H 
BRANCH  83  88
ATOM     88  O6  non d ame      -9.895   9.597  63.460  0.00  0.00    -0.369 OA
ATOM     89  H45 non d ame      -9.713   9.229  64.328  0.00  0.00     0.212 HD
ENDBRANCH  83  88
ENDBRANCH  72  75
ENDBRANCH  47  72
ENDBRANCH  45  47
ENDBRANCH   1  43
BRANCH   1  90
ATOM     90  C16 non d ame      -6.478  12.815  69.510  0.00  0.00    -0.035 C 
ATOM     91  H21 non d ame      -5.969  13.696  69.902  0.00  0.00     0.037 H 
ATOM     92  H22 non d ame      -7.295  12.363  70.074  0.00  0.00     0.037 H 
BRANCH  90  93
ATOM     93  C17 non d ame      -5.388  11.709  69.349  0.00  0.00    -0.059 C 
ATOM     94  H23 non d ame      -4.542  11.984  69.978  0.00  0.00     0.038 H 
BRANCH  93  95
ATOM     95  C18 non d ame      -5.895  10.308  69.818  0.00  0.00    -0.073 C 
ATOM     96  H24 non d ame      -6.956  10.211  69.591  0.00  0.00     0.028 H 
ATOM     97  H25 non d ame      -5.339   9.527  69.298  0.00  0.00     0.028 H 
ATOM     98  H26 non d ame      -5.742  10.208  70.893  0.00  0.00     0.028 H 
ENDBRANCH  93  95
BRANCH  93  99
ATOM     99  C19 non d ame      -4.879  11.649  67.906  0.00  0.00    -0.073 C 
ATOM    100  H27 non d ame      -5.660  12.000  67.231  0.00  0.00     0.028 H 
ATOM    101  H28 non d ame      -3.998  12.283  67.804  0.00  0.00     0.028 H 
ATOM    102  H29 non d ame      -4.617  10.621  67.655  0.00  0.00     0.028 H 
ENDBRANCH  93  99
ENDBRANCH  90  93
ENDBRANCH   1  90
TORSDOF 26
ENDMDL
MODEL 15
REMARK VINA RESULT:      -7.0      2.453      5.867
REMARK  26 active torsions:
REMARK  status: ('A' for Active; 'I' for Inactive)
REMARK    1  A    between atoms: C2_2  and  C3_3 
REMARK    2  A    between atoms: C4_6  and  C5_7 
REMARK       I    between atoms: C5_7  and  N2_9 
REMARK    3  A    between atoms: N2_9  and  C6_10 
REMARK    4  A    between atoms: C6_10  and  C7_11 
REMARK    5  A    between atoms: C6_10  and  C8_13 
REMARK       I    between atoms: C7_11  and  N3_14 
REMARK    6  A    between atoms: N3_14  and  C9_15 
REMARK    7  A    between atoms: C9_15  and  C10_16 
REMARK    8  A    between atoms: C9_15  and  C11_18 
REMARK       I    between atoms: C10_16  and  N4_21 
REMARK    9  A    between atoms: C11_18  and  C12_19 
REMARK   10  A    between atoms: C11_18  and  C13_20 
REMARK   11  A    between atoms: N4_21  and  C14_22 
REMARK   12  A    between atoms: C14_22  and  C15_23 
REMARK   13  A    between atoms: C14_22  and  C16_25 
REMARK       I    between atoms: C15_23  and  N6_40 
REMARK   14  A    between atoms: C16_25  and  C17_26 
REMARK   15  A    between atoms: C17_26  and  C18_27 
REMARK   16  A    between atoms: C17_26  and  C19_28 
REMARK   17  A    between atoms: C20_29  and  C21_30 
REMARK   18  A    between atoms: C20_29  and  C24_33 
REMARK   19  A    between atoms: C20_29  and  N6_40 
REMARK   20  A    between atoms: C21_30  and  C22_31 
REMARK   21  A    between atoms: C22_31  and  C23_32 
REMARK   22  A    between atoms: C23_32  and  O8_43 
REMARK   23  A    between atoms: C24_33  and  C25_34 
REMARK   24  A    between atoms: C28_38  and  O6_39 
REMARK   25  A    between atoms: C29_42  and  O8_43 
REMARK   26  A    between atoms: C29_42  and  C35_49 
ROOT
ATOM      1  C14 non d ame     -10.584  11.607  68.976  0.00  0.00     0.089 C 
ATOM      2  H20 non d ame     -10.012  11.056  69.722  0.00  0.00     0.087 H 
ENDROOT
BRANCH   1   3
ATOM      3  N4  non d ame      -9.908  12.877  68.756  0.00  0.00    -0.346 N 
ATOM      4  C10 non d ame      -8.428  12.913  68.473  0.00  0.00     0.241 C 
ATOM      5  O4  non d ame      -7.800  11.906  68.430  0.00  0.00    -0.271 OA
ATOM      6  H19 non d ame     -10.459  13.723  68.799  0.00  0.00     0.163 HD
BRANCH   4   7
ATOM      7  C9  non d ame      -7.745  14.235  68.242  0.00  0.00     0.092 C 
ATOM      8  H11 non d ame      -7.438  14.303  67.199  0.00  0.00     0.088 H 
BRANCH   7   9
ATOM      9  N3  non d ame      -8.695  15.325  68.486  0.00  0.00    -0.346 N 
ATOM     10  C7  non d ame      -9.303  16.013  67.373  0.00  0.00     0.240 C 
ATOM     11  O3  non d ame      -9.038  15.703  66.276  0.00  0.00    -0.271 OA
ATOM     12  H10 non d ame      -8.932  15.604  69.427  0.00  0.00     0.163 HD
BRANCH  10  13
ATOM     13  C6  non d ame     -10.311  17.174  67.639  0.00  0.00     0.086 C 
ATOM     14  H6  non d ame     -11.160  17.160  66.955  0.00  0.00     0.086 H 
BRANCH  13  15
ATOM     15  N2  non d ame     -10.855  17.029  68.979  0.00  0.00    -0.343 N 
ATOM     16  C5  non d ame     -11.742  15.903  69.279  0.00  0.00     0.273 C 
ATOM     17  O2  non d ame     -12.015  15.122  68.436  0.00  0.00    -0.266 OA
ATOM     18  H5  non d ame     -10.618  17.703  69.693  0.00  0.00     0.163 HD
BRANCH  16  19
ATOM     19  C4  non d ame     -12.323  15.737  70.692  0.00  0.00     0.154 A 
ATOM     20  C1  non d ame     -11.608  15.779  71.931  0.00  0.00    -0.017 A 
ATOM     21  C2  non d ame     -12.591  15.574  72.925  0.00  0.00     0.077 A 
ATOM     22  H1  non d ame     -10.540  15.935  72.086  0.00  0.00     0.091 H 
ATOM     23  O1  non d ame     -13.733  15.433  72.318  0.00  0.00    -0.218 OA
ATOM     24  N1  non d ame     -13.602  15.524  71.014  0.00  0.00    -0.123 NA
BRANCH  21  25
ATOM     25  C3  non d ame     -12.357  15.528  74.429  0.00  0.00    -0.029 C 
ATOM     26  H2  non d ame     -12.160  14.500  74.735  0.00  0.00     0.036 H 
ATOM     27  H3  non d ame     -11.501  16.153  74.683  0.00  0.00     0.036 H 
ATOM     28  H4  non d ame     -13.242  15.898  74.947  0.00  0.00     0.036 H 
ENDBRANCH  21  25
ENDBRANCH  16  19
ENDBRANCH  13  15
BRANCH  13  29
ATOM     29  C8  non d ame      -9.602  18.498  67.509  0.00  0.00    -0.049 C 
ATOM     30  H7  non d ame      -8.608  18.422  67.949  0.00  0.00     0.030 H 
ATOM     31  H8  non d ame      -9.515  18.762  66.455  0.00  0.00     0.030 H 
ATOM     32  H9  non d ame     -10.172  19.267  68.031  0.00  0.00     0.030 H 
ENDBRANCH  13  29
ENDBRANCH  10  13
ENDBRANCH   7   9
BRANCH   7  33
ATOM     33  C11 non d ame      -6.540  14.374  69.218  0.00  0.00    -0.033 C 
ATOM     34  H12 non d ame      -6.670  13.634  70.008  0.00  0.00     0.042 H 
BRANCH  33  35
ATOM     35  C12 non d ame      -5.189  14.062  68.501  0.00  0.00    -0.071 C 
ATOM     36  H13 non d ame      -5.168  13.013  68.207  0.00  0.00     0.028 H 
ATOM     37  H14 non d ame      -5.096  14.689  67.614  0.00  0.00     0.028 H 
ATOM     38  H15 non d ame      -4.362  14.267  69.180  0.00  0.00     0.028 H 
ENDBRANCH  33  35
BRANCH  33  39
ATOM     39  C13 non d ame      -6.516  15.789  69.880  0.00  0.00    -0.071 C 
ATOM     40  H16 non d ame      -6.569  15.685  70.963  0.00  0.00     0.028 H 
ATOM     41  H17 non d ame      -5.592  16.302  69.609  0.00  0.00     0.028 H 
ATOM     42  H18 non d ame      -7.369  16.369  69.528  0.00  0.00     0.028 H 
ENDBRANCH  33  39
ENDBRANCH   7  33
ENDBRANCH   4   7
ENDBRANCH   1   3
BRANCH   1  43
ATOM     43  C15 non d ame     -10.667  10.849  67.620  0.00  0.00     0.240 C 
ATOM     44  O5  non d ame     -11.599  11.020  66.903  0.00  0.00    -0.271 OA
ATOM     45  N6  non d ame      -9.579   9.915  67.212  0.00  0.00    -0.355 N 
ATOM     46  H46 non d ame      -8.780   9.765  67.811  0.00  0.00     0.162 HD
BRANCH  45  47
ATOM     47  C20 non d ame      -9.671   9.202  65.920  0.00  0.00     0.013 C 
ATOM     48  H30 non d ame     -10.650   9.413  65.490  0.00  0.00     0.072 H 
BRANCH  47  49
ATOM     49  C21 non d ame      -9.519   7.717  66.156  0.00  0.00    -0.038 C 
ATOM     50  H31 non d ame      -9.565   7.255  65.170  0.00  0.00     0.036 H 
ATOM     51  H32 non d ame      -8.625   7.607  66.769  0.00  0.00     0.036 H 
BRANCH  49  52
ATOM     52  C22 non d ame     -10.685   7.118  66.972  0.00  0.00     0.018 C 
ATOM     53  H33 non d ame     -10.654   7.616  67.942  0.00  0.00     0.048 H 
ATOM     54  H34 non d ame     -11.568   7.212  66.339  0.00  0.00     0.048 H 
BRANCH  52  55
ATOM     55  C23 non d ame     -10.529   5.600  67.266  0.00  0.00     0.259 C 
ATOM     56  O7  non d ame     -10.459   4.817  66.375  0.00  0.00    -0.265 OA
BRANCH  55  57
ATOM     57  O8  non d ame     -10.483   5.153  68.616  0.00  0.00    -0.317 OA
BRANCH  57  58
ATOM     58  C29 non d ame      -9.336   5.606  69.341  0.00  0.00     0.052 C 
ATOM     59  H47 non d ame      -8.864   4.708  69.739  0.00  0.00     0.082 H 
ATOM     60  H48 non d ame      -8.788   6.250  68.653  0.00  0.00     0.082 H 
BRANCH  58  61
ATOM     61  C35 non d ame      -9.832   6.469  70.531  0.00  0.00    -0.034 A 
ATOM     62  C30 non d ame     -10.782   5.961  71.411  0.00  0.00    -0.075 A 
ATOM     63  C31 non d ame     -11.229   6.737  72.481  0.00  0.00    -0.082 A 
ATOM     64  H49 non d ame     -11.177   4.956  71.264  0.00  0.00     0.084 H 
ATOM     65  C32 non d ame     -10.723   8.026  72.667  0.00  0.00    -0.083 A 
ATOM     66  H50 non d ame     -11.971   6.335  73.170  0.00  0.00     0.083 H 
ATOM     67  C33 non d ame      -9.777   8.530  71.784  0.00  0.00    -0.082 A 
ATOM     68  H51 non d ame     -11.066   8.638  73.501  0.00  0.00     0.083 H 
ATOM     69  C34 non d ame      -9.327   7.758  70.715  0.00  0.00    -0.075 A 
ATOM     70  H52 non d ame      -9.386   9.537  71.931  0.00  0.00     0.083 H 
ATOM     71  H53 non d ame      -8.583   8.160  70.027  0.00  0.00     0.084 H 
ENDBRANCH  58  61
ENDBRANCH  57  58
ENDBRANCH  55  57
ENDBRANCH  52  55
ENDBRANCH  49  52
ENDBRANCH  47  49
BRANCH  47  72
ATOM     72  C24 non d ame      -8.565   9.685  64.983  0.00  0.00    -0.039 C 
ATOM     73  H35 non d ame      -8.462  10.752  65.183  0.00  0.00     0.036 H 
ATOM     74  H36 non d ame      -7.724   9.015  65.158  0.00  0.00     0.036 H 
BRANCH  72  75
ATOM     75  C25 non d ame      -8.982   9.531  63.444  0.00  0.00    -0.001 C 
ATOM     76  C26 non d ame      -7.748   8.853  62.595  0.00  0.00    -0.035 C 
ATOM     77  C27 non d ame      -7.492   9.622  61.509  0.00  0.00     0.085 C 
ATOM     78  H38 non d ame      -6.824   8.909  63.170  0.00  0.00     0.036 H 
ATOM     79  H39 non d ame      -8.067   7.904  62.165  0.00  0.00     0.036 H 
ATOM     80  N5  non d ame      -8.215  10.931  61.715  0.00  0.00    -0.049 N 
ATOM     81  H40 non d ame      -6.417   9.803  61.527  0.00  0.00     0.075 H 
ATOM     82  H41 non d ame      -7.942   9.096  60.668  0.00  0.00     0.075 H 
ATOM     83  C28 non d ame      -9.261  10.677  62.918  0.00  0.00     0.193 C 
ATOM     84  H42 non d ame      -7.521  11.596  62.026  0.00  0.00     0.280 HD
ATOM     85  H43 non d ame      -8.737  11.106  60.867  0.00  0.00     0.280 HD
ATOM     86  H44 non d ame     -10.323  10.547  62.711  0.00  0.00     0.129 H 
ATOM     87  H37 non d ame      -9.970   9.084  63.327  0.00  0.00     0.046 H 
BRANCH  83  88
ATOM     88  O6  non d ame      -9.184  11.740  63.870  0.00  0.00    -0.369 OA
ATOM     89  H45 non d ame      -8.626  12.440  63.524  0.00  0.00     0.212 HD
ENDBRANCH  83  88
ENDBRANCH  72  75
ENDBRANCH  47  72
ENDBRANCH  45  47
ENDBRANCH   1  43
BRANCH   1  90
ATOM     90  C16 non d ame     -11.987  11.876  69.497  0.00  0.00    -0.035 C 
ATOM     91  H21 non d ame     -12.014  12.944  69.717  0.00  0.00     0.037 H 
ATOM     92  H22 non d ame     -12.659  11.457  68.748  0.00  0.00     0.037 H 
BRANCH  90  93
ATOM     93  C17 non d ame     -12.308  11.142  70.838  0.00  0.00    -0.059 C 
ATOM     94  H23 non d ame     -11.360  10.886  71.310  0.00  0.00     0.038 H 
BRANCH  93  95
ATOM     95  C18 non d ame     -13.106  12.048  71.830  0.00  0.00    -0.073 C 
ATOM     96  H24 non d ame     -12.440  12.395  72.619  0.00  0.00     0.028 H 
ATOM     97  H25 non d ame     -13.511  12.906  71.292  0.00  0.00     0.028 H 
ATOM     98  H26 non d ame     -13.923  11.475  72.268  0.00  0.00     0.028 H 
ENDBRANCH  93  95
BRANCH  93  99
ATOM     99  C19 non d ame     -13.055   9.831  70.578  0.00  0.00    -0.073 C 
ATOM    100  H27 non d ame     -12.384   8.989  70.751  0.00  0.00     0.028 H 
ATOM    101  H28 non d ame     -13.909   9.760  71.252  0.00  0.00     0.028 H 
ATOM    102  H29 non d ame     -13.405   9.810  69.546  0.00  0.00     0.028 H 
ENDBRANCH  93  99
ENDBRANCH  90  93
ENDBRANCH   1  90
TORSDOF 26
ENDMDL
MODEL 16
REMARK VINA RESULT:      -7.0      2.465      9.064
REMARK  26 active torsions:
REMARK  status: ('A' for Active; 'I' for Inactive)
REMARK    1  A    between atoms: C2_2  and  C3_3 
REMARK    2  A    between atoms: C4_6  and  C5_7 
REMARK       I    between atoms: C5_7  and  N2_9 
REMARK    3  A    between atoms: N2_9  and  C6_10 
REMARK    4  A    between atoms: C6_10  and  C7_11 
REMARK    5  A    between atoms: C6_10  and  C8_13 
REMARK       I    between atoms: C7_11  and  N3_14 
REMARK    6  A    between atoms: N3_14  and  C9_15 
REMARK    7  A    between atoms: C9_15  and  C10_16 
REMARK    8  A    between atoms: C9_15  and  C11_18 
REMARK       I    between atoms: C10_16  and  N4_21 
REMARK    9  A    between atoms: C11_18  and  C12_19 
REMARK   10  A    between atoms: C11_18  and  C13_20 
REMARK   11  A    between atoms: N4_21  and  C14_22 
REMARK   12  A    between atoms: C14_22  and  C15_23 
REMARK   13  A    between atoms: C14_22  and  C16_25 
REMARK       I    between atoms: C15_23  and  N6_40 
REMARK   14  A    between atoms: C16_25  and  C17_26 
REMARK   15  A    between atoms: C17_26  and  C18_27 
REMARK   16  A    between atoms: C17_26  and  C19_28 
REMARK   17  A    between atoms: C20_29  and  C21_30 
REMARK   18  A    between atoms: C20_29  and  C24_33 
REMARK   19  A    between atoms: C20_29  and  N6_40 
REMARK   20  A    between atoms: C21_30  and  C22_31 
REMARK   21  A    between atoms: C22_31  and  C23_32 
REMARK   22  A    between atoms: C23_32  and  O8_43 
REMARK   23  A    between atoms: C24_33  and  C25_34 
REMARK   24  A    between atoms: C28_38  and  O6_39 
REMARK   25  A    between atoms: C29_42  and  O8_43 
REMARK   26  A    between atoms: C29_42  and  C35_49 
ROOT
ATOM      1  C14 non d ame     -10.886  12.850  65.024  0.00  0.00     0.089 C 
ATOM      2  H20 non d ame     -11.327  12.768  64.031  0.00  0.00     0.087 H 
ENDROOT
BRANCH   1   3
ATOM      3  N4  non d ame      -9.848  11.835  65.128  0.00  0.00    -0.346 N 
ATOM      4  C10 non d ame      -9.725  10.761  64.077  0.00  0.00     0.241 C 
ATOM      5  O4  non d ame     -10.476  10.733  63.158  0.00  0.00    -0.271 OA
ATOM      6  H19 non d ame      -9.221  11.876  65.919  0.00  0.00     0.163 HD
BRANCH   4   7
ATOM      7  C9  non d ame      -8.642   9.722  64.197  0.00  0.00     0.092 C 
ATOM      8  H11 non d ame      -7.754  10.179  64.635  0.00  0.00     0.088 H 
BRANCH   7   9
ATOM      9  N3  non d ame      -9.080   8.662  65.110  0.00  0.00    -0.346 N 
ATOM     10  C7  non d ame      -8.478   8.541  66.415  0.00  0.00     0.240 C 
ATOM     11  O3  non d ame      -7.639   9.288  66.746  0.00  0.00    -0.271 OA
ATOM     12  H10 non d ame      -9.801   8.010  64.837  0.00  0.00     0.163 HD
BRANCH  10  13
ATOM     13  C6  non d ame      -8.946   7.409  67.381  0.00  0.00     0.086 C 
ATOM     14  H6  non d ame      -8.159   7.082  68.060  0.00  0.00     0.086 H 
BRANCH  13  15
ATOM     15  N2  non d ame     -10.028   7.914  68.210  0.00  0.00    -0.343 N 
ATOM     16  C5  non d ame     -10.141   7.465  69.599  0.00  0.00     0.273 C 
ATOM     17  O2  non d ame      -9.360   6.695  70.040  0.00  0.00    -0.266 OA
ATOM     18  H5  non d ame     -10.693   8.570  67.825  0.00  0.00     0.163 HD
BRANCH  16  19
ATOM     19  C4  non d ame     -11.279   7.992  70.488  0.00  0.00     0.154 A 
ATOM     20  C1  non d ame     -12.535   7.359  70.751  0.00  0.00    -0.017 A 
ATOM     21  C2  non d ame     -13.214   8.243  71.619  0.00  0.00     0.077 A 
ATOM     22  H1  non d ame     -12.899   6.404  70.370  0.00  0.00     0.091 H 
ATOM     23  O1  non d ame     -12.430   9.261  71.825  0.00  0.00    -0.218 OA
ATOM     24  N1  non d ame     -11.295   9.137  71.175  0.00  0.00    -0.123 NA
BRANCH  21  25
ATOM     25  C3  non d ame     -14.605   8.041  72.205  0.00  0.00    -0.029 C 
ATOM     26  H2  non d ame     -15.156   8.981  72.166  0.00  0.00     0.036 H 
ATOM     27  H3  non d ame     -15.136   7.284  71.627  0.00  0.00     0.036 H 
ATOM     28  H4  non d ame     -14.519   7.713  73.241  0.00  0.00     0.036 H 
ENDBRANCH  21  25
ENDBRANCH  16  19
ENDBRANCH  13  15
BRANCH  13  29
ATOM     29  C8  non d ame      -9.420   6.224  66.579  0.00  0.00    -0.049 C 
ATOM     30  H7  non d ame      -8.840   5.343  66.853  0.00  0.00     0.030 H 
ATOM     31  H8  non d ame     -10.475   6.044  66.786  0.00  0.00     0.030 H 
ATOM     32  H9  non d ame      -9.288   6.429  65.516  0.00  0.00     0.030 H 
ENDBRANCH  13  29
ENDBRANCH  10  13
ENDBRANCH   7   9
BRANCH   7  33
ATOM     33  C11 non d ame      -8.353   9.109  62.795  0.00  0.00    -0.033 C 
ATOM     34  H12 non d ame      -9.237   9.272  62.177  0.00  0.00     0.042 H 
BRANCH  33  35
ATOM     35  C12 non d ame      -7.155   9.825  62.097  0.00  0.00    -0.071 C 
ATOM     36  H13 non d ame      -6.284   9.170  62.107  0.00  0.00     0.028 H 
ATOM     37  H14 non d ame      -7.421  10.058  61.066  0.00  0.00     0.028 H 
ATOM     38  H15 non d ame      -6.923  10.747  62.630  0.00  0.00     0.028 H 
ENDBRANCH  33  35
BRANCH  33  39
ATOM     39  C13 non d ame      -8.111   7.569  62.897  0.00  0.00    -0.071 C 
ATOM     40  H16 non d ame      -7.135   7.326  62.477  0.00  0.00     0.028 H 
ATOM     41  H17 non d ame      -8.143   7.265  63.943  0.00  0.00     0.028 H 
ATOM     42  H18 non d ame      -8.887   7.042  62.342  0.00  0.00     0.028 H 
ENDBRANCH  33  39
ENDBRANCH   7  33
ENDBRANCH   4   7
ENDBRANCH   1   3
BRANCH   1  43
ATOM     43  C15 non d ame     -10.241  14.245  65.267  0.00  0.00     0.240 C 
ATOM     44  O5  non d ame     -10.671  15.201  64.707  0.00  0.00    -0.271 OA
ATOM     45  N6  non d ame      -9.091  14.390  66.205  0.00  0.00    -0.355 N 
ATOM     46  H46 non d ame      -8.720  13.586  66.690  0.00  0.00     0.162 HD
BRANCH  45  47
ATOM     47  C20 non d ame      -8.490  15.723  66.427  0.00  0.00     0.013 C 
ATOM     48  H30 non d ame      -8.266  16.156  65.452  0.00  0.00     0.072 H 
BRANCH  47  49
ATOM     49  C21 non d ame      -7.218  15.571  67.229  0.00  0.00    -0.038 C 
ATOM     50  H31 non d ame      -6.777  14.627  66.906  0.00  0.00     0.036 H 
ATOM     51  H32 non d ame      -6.670  16.503  67.093  0.00  0.00     0.036 H 
BRANCH  49  52
ATOM     52  C22 non d ame      -7.478  15.434  68.745  0.00  0.00     0.018 C 
ATOM     53  H33 non d ame      -8.387  16.004  68.941  0.00  0.00     0.048 H 
ATOM     54  H34 non d ame      -7.449  14.365  68.955  0.00  0.00     0.048 H 
BRANCH  52  55
ATOM     55  C23 non d ame      -6.373  16.075  69.630  0.00  0.00     0.259 C 
ATOM     56  O7  non d ame      -5.605  15.390  70.225  0.00  0.00    -0.265 OA
BRANCH  55  57
ATOM     57  O8  non d ame      -6.296  17.491  69.733  0.00  0.00    -0.317 OA
BRANCH  57  58
ATOM     58  C29 non d ame      -5.118  18.054  69.149  0.00  0.00     0.052 C 
ATOM     59  H47 non d ame      -4.646  18.636  69.940  0.00  0.00     0.082 H 
ATOM     60  H48 non d ame      -4.586  17.219  68.695  0.00  0.00     0.082 H 
BRANCH  58  61
ATOM     61  C35 non d ame      -5.560  19.026  68.022  0.00  0.00    -0.034 A 
ATOM     62  C30 non d ame      -5.436  18.648  66.689  0.00  0.00    -0.075 A 
ATOM     63  C31 non d ame      -5.833  19.521  65.676  0.00  0.00    -0.082 A 
ATOM     64  H49 non d ame      -5.030  17.669  66.437  0.00  0.00     0.084 H 
ATOM     65  C32 non d ame      -6.352  20.777  66.001  0.00  0.00    -0.083 A 
ATOM     66  H50 non d ame      -5.737  19.221  64.633  0.00  0.00     0.083 H 
ATOM     67  C33 non d ame      -6.471  21.150  67.333  0.00  0.00    -0.082 A 
ATOM     68  H51 non d ame      -6.665  21.465  65.216  0.00  0.00     0.083 H 
ATOM     69  C34 non d ame      -6.078  20.281  68.348  0.00  0.00    -0.075 A 
ATOM     70  H52 non d ame      -6.874  22.132  67.584  0.00  0.00     0.083 H 
ATOM     71  H53 non d ame      -6.175  20.581  69.392  0.00  0.00     0.084 H 
ENDBRANCH  58  61
ENDBRANCH  57  58
ENDBRANCH  55  57
ENDBRANCH  52  55
ENDBRANCH  49  52
ENDBRANCH  47  49
BRANCH  47  72
ATOM     72  C24 non d ame      -9.470  16.612  67.189  0.00  0.00    -0.039 C 
ATOM     73  H35 non d ame     -10.417  16.525  66.655  0.00  0.00     0.036 H 
ATOM     74  H36 non d ame      -9.401  16.294  68.229  0.00  0.00     0.036 H 
BRANCH  72  75
ATOM     75  C25 non d ame      -9.038  18.154  67.135  0.00  0.00    -0.001 C 
ATOM     76  C26 non d ame      -9.362  18.877  68.576  0.00  0.00    -0.035 C 
ATOM     77  C27 non d ame     -10.074  20.006  68.347  0.00  0.00     0.085 C 
ATOM     78  H38 non d ame     -10.045  18.259  69.159  0.00  0.00     0.036 H 
ATOM     79  H39 non d ame      -8.440  19.244  69.026  0.00  0.00     0.036 H 
ATOM     80  N5  non d ame     -10.546  19.948  66.914  0.00  0.00    -0.049 N 
ATOM     81  H40 non d ame     -10.939  19.944  69.009  0.00  0.00     0.075 H 
ATOM     82  H41 non d ame      -9.363  20.825  68.454  0.00  0.00     0.075 H 
ATOM     83  C28 non d ame      -9.676  18.786  66.207  0.00  0.00     0.193 C 
ATOM     84  H42 non d ame     -11.512  19.654  66.943  0.00  0.00     0.280 HD
ATOM     85  H43 non d ame     -10.299  20.833  66.496  0.00  0.00     0.280 HD
ATOM     86  H44 non d ame      -8.853  19.039  65.539  0.00  0.00     0.129 H 
ATOM     87  H37 non d ame      -8.036  18.287  66.728  0.00  0.00     0.046 H 
BRANCH  83  88
ATOM     88  O6  non d ame     -10.528  17.922  65.454  0.00  0.00    -0.369 OA
ATOM     89  H45 non d ame     -10.815  18.371  64.656  0.00  0.00     0.212 HD
ENDBRANCH  83  88
ENDBRANCH  72  75
ENDBRANCH  47  72
ENDBRANCH  45  47
ENDBRANCH   1  43
BRANCH   1  90
ATOM     90  C16 non d ame     -11.945  12.586  66.082  0.00  0.00    -0.035 C 
ATOM     91  H21 non d ame     -12.616  13.445  66.040  0.00  0.00     0.037 H 
ATOM     92  H22 non d ame     -12.325  11.587  65.867  0.00  0.00     0.037 H 
BRANCH  90  93
ATOM     93  C17 non d ame     -11.380  12.539  67.537  0.00  0.00    -0.059 C 
ATOM     94  H23 non d ame     -10.303  12.693  67.479  0.00  0.00     0.038 H 
BRANCH  93  95
ATOM     95  C18 non d ame     -11.975  13.669  68.438  0.00  0.00    -0.073 C 
ATOM     96  H24 non d ame     -12.977  13.386  68.760  0.00  0.00     0.028 H 
ATOM     97  H25 non d ame     -11.338  13.810  69.311  0.00  0.00     0.028 H 
ATOM     98  H26 non d ame     -12.024  14.598  67.869  0.00  0.00     0.028 H 
ENDBRANCH  93  95
BRANCH  93  99
ATOM     99  C19 non d ame     -11.609  11.163  68.168  0.00  0.00    -0.073 C 
ATOM    100  H27 non d ame     -10.656  10.755  68.507  0.00  0.00     0.028 H 
ATOM    101  H28 non d ame     -12.285  11.261  69.018  0.00  0.00     0.028 H 
ATOM    102  H29 non d ame     -12.049  10.493  67.430  0.00  0.00     0.028 H 
ENDBRANCH  93  99
ENDBRANCH  90  93
ENDBRANCH   1  90
TORSDOF 26
ENDMDL
MODEL 17
REMARK VINA RESULT:      -6.9      2.886      6.643
REMARK  26 active torsions:
REMARK  status: ('A' for Active; 'I' for Inactive)
REMARK    1  A    between atoms: C2_2  and  C3_3 
REMARK    2  A    between atoms: C4_6  and  C5_7 
REMARK       I    between atoms: C5_7  and  N2_9 
REMARK    3  A    between atoms: N2_9  and  C6_10 
REMARK    4  A    between atoms: C6_10  and  C7_11 
REMARK    5  A    between atoms: C6_10  and  C8_13 
REMARK       I    between atoms: C7_11  and  N3_14 
REMARK    6  A    between atoms: N3_14  and  C9_15 
REMARK    7  A    between atoms: C9_15  and  C10_16 
REMARK    8  A    between atoms: C9_15  and  C11_18 
REMARK       I    between atoms: C10_16  and  N4_21 
REMARK    9  A    between atoms: C11_18  and  C12_19 
REMARK   10  A    between atoms: C11_18  and  C13_20 
REMARK   11  A    between atoms: N4_21  and  C14_22 
REMARK   12  A    between atoms: C14_22  and  C15_23 
REMARK   13  A    between atoms: C14_22  and  C16_25 
REMARK       I    between atoms: C15_23  and  N6_40 
REMARK   14  A    between atoms: C16_25  and  C17_26 
REMARK   15  A    between atoms: C17_26  and  C18_27 
REMARK   16  A    between atoms: C17_26  and  C19_28 
REMARK   17  A    between atoms: C20_29  and  C21_30 
REMARK   18  A    between atoms: C20_29  and  C24_33 
REMARK   19  A    between atoms: C20_29  and  N6_40 
REMARK   20  A    between atoms: C21_30  and  C22_31 
REMARK   21  A    between atoms: C22_31  and  C23_32 
REMARK   22  A    between atoms: C23_32  and  O8_43 
REMARK   23  A    between atoms: C24_33  and  C25_34 
REMARK   24  A    between atoms: C28_38  and  O6_39 
REMARK   25  A    between atoms: C29_42  and  O8_43 
REMARK   26  A    between atoms: C29_42  and  C35_49 
ROOT
ATOM      1  C14 non d ame      -6.472  16.422  67.602  0.00  0.00     0.089 C 
ATOM      2  H20 non d ame      -5.954  16.908  66.775  0.00  0.00     0.087 H 
ENDROOT
BRANCH   1   3
ATOM      3  N4  non d ame      -7.901  16.547  67.358  0.00  0.00    -0.346 N 
ATOM      4  C10 non d ame      -8.407  17.379  66.206  0.00  0.00     0.241 C 
ATOM      5  O4  non d ame      -7.644  17.941  65.491  0.00  0.00    -0.271 OA
ATOM      6  H19 non d ame      -8.534  16.063  67.979  0.00  0.00     0.163 HD
BRANCH   4   7
ATOM      7  C9  non d ame      -9.889  17.494  65.965  0.00  0.00     0.092 C 
ATOM      8  H11 non d ame     -10.060  17.998  65.013  0.00  0.00     0.088 H 
BRANCH   7   9
ATOM      9  N3  non d ame     -10.472  16.153  65.855  0.00  0.00    -0.346 N 
ATOM     10  C7  non d ame     -11.354  15.838  64.758  0.00  0.00     0.240 C 
ATOM     11  O3  non d ame     -11.606  16.652  63.955  0.00  0.00    -0.271 OA
ATOM     12  H10 non d ame     -10.265  15.441  66.541  0.00  0.00     0.163 HD
BRANCH  10  13
ATOM     13  C6  non d ame     -11.973  14.410  64.648  0.00  0.00     0.086 C 
ATOM     14  H6  non d ame     -12.692  14.324  63.834  0.00  0.00     0.086 H 
BRANCH  13  15
ATOM     15  N2  non d ame     -10.912  13.456  64.370  0.00  0.00    -0.343 N 
ATOM     16  C5  non d ame     -11.214  12.247  63.600  0.00  0.00     0.273 C 
ATOM     17  O2  non d ame     -12.313  12.049  63.213  0.00  0.00    -0.266 OA
ATOM     18  H5  non d ame      -9.977  13.632  64.707  0.00  0.00     0.163 HD
BRANCH  16  19
ATOM     19  C4  non d ame     -10.102  11.231  63.297  0.00  0.00     0.154 A 
ATOM     20  C1  non d ame      -9.679  10.140  64.121  0.00  0.00    -0.017 A 
ATOM     21  C2  non d ame      -8.638   9.518  63.396  0.00  0.00     0.077 A 
ATOM     22  H1  non d ame     -10.068   9.844  65.096  0.00  0.00     0.091 H 
ATOM     23  O1  non d ame      -8.489  10.181  62.287  0.00  0.00    -0.218 OA
ATOM     24  N1  non d ame      -9.332  11.185  62.206  0.00  0.00    -0.123 NA
BRANCH  21  25
ATOM     25  C3  non d ame      -7.839   8.297  63.832  0.00  0.00    -0.029 C 
ATOM     26  H2  non d ame      -8.516   7.547  64.243  0.00  0.00     0.036 H 
ATOM     27  H3  non d ame      -7.314   7.881  62.973  0.00  0.00     0.036 H 
ATOM     28  H4  non d ame      -7.115   8.589  64.594  0.00  0.00     0.036 H 
ENDBRANCH  21  25
ENDBRANCH  16  19
ENDBRANCH  13  15
BRANCH  13  29
ATOM     29  C8  non d ame     -12.659  14.056  65.943  0.00  0.00    -0.049 C 
ATOM     30  H7  non d ame     -12.184  14.592  66.765  0.00  0.00     0.030 H 
ATOM     31  H8  non d ame     -13.711  14.337  65.886  0.00  0.00     0.030 H 
ATOM     32  H9  non d ame     -12.578  12.983  66.115  0.00  0.00     0.030 H 
ENDBRANCH  13  29
ENDBRANCH  10  13
ENDBRANCH   7   9
BRANCH   7  33
ATOM     33  C11 non d ame     -10.552  18.248  67.154  0.00  0.00    -0.033 C 
ATOM     34  H12 non d ame     -11.604  18.389  66.909  0.00  0.00     0.042 H 
BRANCH  33  35
ATOM     35  C12 non d ame     -10.484  17.409  68.468  0.00  0.00    -0.071 C 
ATOM     36  H13 non d ame     -11.401  17.555  69.040  0.00  0.00     0.028 H 
ATOM     37  H14 non d ame     -10.376  16.354  68.219  0.00  0.00     0.028 H 
ATOM     38  H15 non d ame      -9.630  17.732  69.062  0.00  0.00     0.028 H 
ENDBRANCH  33  35
BRANCH  33  39
ATOM     39  C13 non d ame      -9.908  19.659  67.349  0.00  0.00    -0.071 C 
ATOM     40  H16 non d ame      -9.554  20.033  66.389  0.00  0.00     0.028 H 
ATOM     41  H17 non d ame     -10.653  20.345  67.754  0.00  0.00     0.028 H 
ATOM     42  H18 non d ame      -9.070  19.583  68.042  0.00  0.00     0.028 H 
ENDBRANCH  33  39
ENDBRANCH   7  33
ENDBRANCH   4   7
ENDBRANCH   1   3
BRANCH   1  43
ATOM     43  C15 non d ame      -6.119  14.910  67.708  0.00  0.00     0.240 C 
ATOM     44  O5  non d ame      -4.984  14.575  67.821  0.00  0.00    -0.271 OA
ATOM     45  N6  non d ame      -7.197  13.881  67.679  0.00  0.00    -0.355 N 
ATOM     46  H46 non d ame      -8.164  14.154  67.589  0.00  0.00     0.162 HD
BRANCH  45  47
ATOM     47  C20 non d ame      -6.844  12.448  67.782  0.00  0.00     0.013 C 
ATOM     48  H30 non d ame      -5.857  12.313  67.342  0.00  0.00     0.072 H 
BRANCH  47  49
ATOM     49  C21 non d ame      -7.864  11.627  67.026  0.00  0.00    -0.038 C 
ATOM     50  H31 non d ame      -8.833  11.901  67.446  0.00  0.00     0.036 H 
ATOM     51  H32 non d ame      -7.658  11.802  65.970  0.00  0.00     0.036 H 
BRANCH  49  52
ATOM     52  C22 non d ame      -7.702  10.109  67.258  0.00  0.00     0.018 C 
ATOM     53  H33 non d ame      -7.586   9.670  66.266  0.00  0.00     0.048 H 
ATOM     54  H34 non d ame      -6.906  10.006  67.995  0.00  0.00     0.048 H 
BRANCH  52  55
ATOM     55  C23 non d ame      -8.954   9.433  67.882  0.00  0.00     0.259 C 
ATOM     56  O7  non d ame      -9.639   8.714  67.231  0.00  0.00    -0.265 OA
BRANCH  55  57
ATOM     57  O8  non d ame      -9.281   9.694  69.242  0.00  0.00    -0.317 OA
BRANCH  57  58
ATOM     58  C29 non d ame     -10.409  10.557  69.414  0.00  0.00     0.052 C 
ATOM     59  H47 non d ame     -10.009  11.486  69.821  0.00  0.00     0.082 H 
ATOM     60  H48 non d ame     -10.927  10.560  68.456  0.00  0.00     0.082 H 
BRANCH  58  61
ATOM     61  C35 non d ame     -11.343   9.918  70.476  0.00  0.00    -0.034 A 
ATOM     62  C30 non d ame     -11.009   8.697  71.053  0.00  0.00    -0.075 A 
ATOM     63  C31 non d ame     -11.849   8.123  72.007  0.00  0.00    -0.082 A 
ATOM     64  H49 non d ame     -10.090   8.190  70.759  0.00  0.00     0.084 H 
ATOM     65  C32 non d ame     -13.027   8.773  72.381  0.00  0.00    -0.083 A 
ATOM     66  H50 non d ame     -11.583   7.167  72.459  0.00  0.00     0.083 H 
ATOM     67  C33 non d ame     -13.358   9.990  71.800  0.00  0.00    -0.082 A 
ATOM     68  H51 non d ame     -13.689   8.331  73.126  0.00  0.00     0.083 H 
ATOM     69  C34 non d ame     -12.521  10.568  70.848  0.00  0.00    -0.075 A 
ATOM     70  H52 non d ame     -14.280  10.494  72.093  0.00  0.00     0.083 H 
ATOM     71  H53 non d ame     -12.787  11.525  70.397  0.00  0.00     0.084 H 
ENDBRANCH  58  61
ENDBRANCH  57  58
ENDBRANCH  55  57
ENDBRANCH  52  55
ENDBRANCH  49  52
ENDBRANCH  47  49
BRANCH  47  72
ATOM     72  C24 non d ame      -6.834  12.024  69.250  0.00  0.00    -0.039 C 
ATOM     73  H35 non d ame      -7.070  12.926  69.814  0.00  0.00     0.036 H 
ATOM     74  H36 non d ame      -7.493  11.158  69.306  0.00  0.00     0.036 H 
BRANCH  72  75
ATOM     75  C25 non d ame      -5.380  11.541  69.717  0.00  0.00    -0.001 C 
ATOM     76  C26 non d ame      -4.471  11.148  68.403  0.00  0.00    -0.035 C 
ATOM     77  C27 non d ame      -3.947   9.913  68.589  0.00  0.00     0.085 C 
ATOM     78  H38 non d ame      -5.111  11.025  67.530  0.00  0.00     0.036 H 
ATOM     79  H39 non d ame      -3.593  11.792  68.349  0.00  0.00     0.036 H 
ATOM     80  N5  non d ame      -4.676   9.295  69.758  0.00  0.00    -0.049 N 
ATOM     81  H40 non d ame      -4.188   9.355  67.684  0.00  0.00     0.075 H 
ATOM     82  H41 non d ame      -2.906  10.078  68.867  0.00  0.00     0.075 H 
ATOM     83  C28 non d ame      -5.455  10.507  70.486  0.00  0.00     0.193 C 
ATOM     84  H42 non d ame      -5.359   8.663  69.367  0.00  0.00     0.280 HD
ATOM     85  H43 non d ame      -3.966   8.946  70.386  0.00  0.00     0.280 HD
ATOM     86  H44 non d ame      -5.077  10.927  71.419  0.00  0.00     0.129 H 
ATOM     87  H37 non d ame      -4.933  12.220  70.443  0.00  0.00     0.046 H 
BRANCH  83  88
ATOM     88  O6  non d ame      -6.807  10.133  70.756  0.00  0.00    -0.369 OA
ATOM     89  H45 non d ame      -7.275  10.879  71.138  0.00  0.00     0.212 HD
ENDBRANCH  83  88
ENDBRANCH  72  75
ENDBRANCH  47  72
ENDBRANCH  45  47
ENDBRANCH   1  43
BRANCH   1  90
ATOM     90  C16 non d ame      -6.129  17.120  68.908  0.00  0.00    -0.035 C 
ATOM     91  H21 non d ame      -7.084  17.283  69.408  0.00  0.00     0.037 H 
ATOM     92  H22 non d ame      -5.368  16.496  69.377  0.00  0.00     0.037 H 
BRANCH  90  93
ATOM     93  C17 non d ame      -5.486  18.530  68.714  0.00  0.00    -0.059 C 
ATOM     94  H23 non d ame      -4.763  18.678  69.516  0.00  0.00     0.038 H 
BRANCH  93  95
ATOM     95  C18 non d ame      -4.721  18.648  67.357  0.00  0.00    -0.073 C 
ATOM     96  H24 non d ame      -5.249  19.340  66.701  0.00  0.00     0.028 H 
ATOM     97  H25 non d ame      -3.712  19.018  67.539  0.00  0.00     0.028 H 
ATOM     98  H26 non d ame      -4.668  17.667  66.884  0.00  0.00     0.028 H 
ENDBRANCH  93  95
BRANCH  93  99
ATOM     99  C19 non d ame      -6.539  19.634  68.843  0.00  0.00    -0.073 C 
ATOM    100  H27 non d ame      -6.159  20.426  69.489  0.00  0.00     0.028 H 
ATOM    101  H28 non d ame      -6.759  20.043  67.856  0.00  0.00     0.028 H 
ATOM    102  H29 non d ame      -7.450  19.218  69.274  0.00  0.00     0.028 H 
ENDBRANCH  93  99
ENDBRANCH  90  93
ENDBRANCH   1  90
TORSDOF 26
ENDMDL
MODEL 18
REMARK VINA RESULT:      -6.9      2.904      7.308
REMARK  26 active torsions:
REMARK  status: ('A' for Active; 'I' for Inactive)
REMARK    1  A    between atoms: C2_2  and  C3_3 
REMARK    2  A    between atoms: C4_6  and  C5_7 
REMARK       I    between atoms: C5_7  and  N2_9 
REMARK    3  A    between atoms: N2_9  and  C6_10 
REMARK    4  A    between atoms: C6_10  and  C7_11 
REMARK    5  A    between atoms: C6_10  and  C8_13 
REMARK       I    between atoms: C7_11  and  N3_14 
REMARK    6  A    between atoms: N3_14  and  C9_15 
REMARK    7  A    between atoms: C9_15  and  C10_16 
REMARK    8  A    between atoms: C9_15  and  C11_18 
REMARK       I    between atoms: C10_16  and  N4_21 
REMARK    9  A    between atoms: C11_18  and  C12_19 
REMARK   10  A    between atoms: C11_18  and  C13_20 
REMARK   11  A    between atoms: N4_21  and  C14_22 
REMARK   12  A    between atoms: C14_22  and  C15_23 
REMARK   13  A    between atoms: C14_22  and  C16_25 
REMARK       I    between atoms: C15_23  and  N6_40 
REMARK   14  A    between atoms: C16_25  and  C17_26 
REMARK   15  A    between atoms: C17_26  and  C18_27 
REMARK   16  A    between atoms: C17_26  and  C19_28 
REMARK   17  A    between atoms: C20_29  and  C21_30 
REMARK   18  A    between atoms: C20_29  and  C24_33 
REMARK   19  A    between atoms: C20_29  and  N6_40 
REMARK   20  A    between atoms: C21_30  and  C22_31 
REMARK   21  A    between atoms: C22_31  and  C23_32 
REMARK   22  A    between atoms: C23_32  and  O8_43 
REMARK   23  A    between atoms: C24_33  and  C25_34 
REMARK   24  A    between atoms: C28_38  and  O6_39 
REMARK   25  A    between atoms: C29_42  and  O8_43 
REMARK   26  A    between atoms: C29_42  and  C35_49 
ROOT
ATOM      1  C14 non d ame      -5.963  14.384  69.303  0.00  0.00     0.089 C 
ATOM      2  H20 non d ame      -4.929  14.413  68.957  0.00  0.00     0.087 H 
ENDROOT
BRANCH   1   3
ATOM      3  N4  non d ame      -6.524  15.714  69.121  0.00  0.00    -0.346 N 
ATOM      4  C10 non d ame      -5.690  16.817  68.518  0.00  0.00     0.241 C 
ATOM      5  O4  non d ame      -4.568  16.609  68.189  0.00  0.00    -0.271 OA
ATOM      6  H19 non d ame      -7.479  15.871  69.410  0.00  0.00     0.163 HD
BRANCH   4   7
ATOM      7  C9  non d ame      -6.288  18.186  68.332  0.00  0.00     0.092 C 
ATOM      8  H11 non d ame      -5.878  18.637  67.428  0.00  0.00     0.088 H 
BRANCH   7   9
ATOM      9  N3  non d ame      -7.736  18.065  68.138  0.00  0.00    -0.346 N 
ATOM     10  C7  non d ame      -8.276  17.939  66.806  0.00  0.00     0.240 C 
ATOM     11  O3  non d ame      -7.560  17.934  65.880  0.00  0.00    -0.271 OA
ATOM     12  H10 non d ame      -8.367  18.069  68.927  0.00  0.00     0.163 HD
BRANCH  10  13
ATOM     13  C6  non d ame      -9.818  17.813  66.605  0.00  0.00     0.086 C 
ATOM     14  H6  non d ame     -10.188  18.426  65.783  0.00  0.00     0.086 H 
BRANCH  13  15
ATOM     15  N2  non d ame     -10.140  16.435  66.274  0.00  0.00    -0.343 N 
ATOM     16  C5  non d ame     -10.887  16.143  65.048  0.00  0.00     0.273 C 
ATOM     17  O2  non d ame     -11.228  17.024  64.338  0.00  0.00    -0.266 OA
ATOM     18  H5  non d ame      -9.847  15.688  66.888  0.00  0.00     0.163 HD
BRANCH  16  19
ATOM     19  C4  non d ame     -11.233  14.690  64.685  0.00  0.00     0.154 A 
ATOM     20  C1  non d ame     -10.351  13.563  64.696  0.00  0.00    -0.017 A 
ATOM     21  C2  non d ame     -11.150  12.473  64.286  0.00  0.00     0.077 A 
ATOM     22  H1  non d ame      -9.294  13.540  64.962  0.00  0.00     0.091 H 
ATOM     23  O1  non d ame     -12.348  12.931  64.069  0.00  0.00    -0.218 OA
ATOM     24  N1  non d ame     -12.421  14.222  64.294  0.00  0.00    -0.123 NA
BRANCH  21  25
ATOM     25  C3  non d ame     -10.693  11.029  64.129  0.00  0.00    -0.029 C 
ATOM     26  H2  non d ame     -11.543  10.406  63.847  0.00  0.00     0.036 H 
ATOM     27  H3  non d ame      -9.928  10.972  63.355  0.00  0.00     0.036 H 
ATOM     28  H4  non d ame     -10.280  10.673  65.074  0.00  0.00     0.036 H 
ENDBRANCH  21  25
ENDBRANCH  16  19
ENDBRANCH  13  15
BRANCH  13  29
ATOM     29  C8  non d ame     -10.528  18.219  67.872  0.00  0.00    -0.049 C 
ATOM     30  H7  non d ame     -11.433  18.772  67.621  0.00  0.00     0.030 H 
ATOM     31  H8  non d ame     -10.792  17.328  68.441  0.00  0.00     0.030 H 
ATOM     32  H9  non d ame      -9.871  18.850  68.469  0.00  0.00     0.030 H 
ENDBRANCH  13  29
ENDBRANCH  10  13
ENDBRANCH   7   9
BRANCH   7  33
ATOM     33  C11 non d ame      -6.008  19.050  69.596  0.00  0.00    -0.033 C 
ATOM     34  H12 non d ame      -6.971  19.308  70.038  0.00  0.00     0.042 H 
BRANCH  33  35
ATOM     35  C12 non d ame      -5.202  18.249  70.665  0.00  0.00    -0.071 C 
ATOM     36  H13 non d ame      -4.426  17.663  70.171  0.00  0.00     0.028 H 
ATOM     37  H14 non d ame      -4.740  18.943  71.367  0.00  0.00     0.028 H 
ATOM     38  H15 non d ame      -5.874  17.582  71.203  0.00  0.00     0.028 H 
ENDBRANCH  33  35
BRANCH  33  39
ATOM     39  C13 non d ame      -5.280  20.379  69.216  0.00  0.00    -0.071 C 
ATOM     40  H16 non d ame      -4.372  20.149  68.658  0.00  0.00     0.028 H 
ATOM     41  H17 non d ame      -5.939  20.992  68.600  0.00  0.00     0.028 H 
ATOM     42  H18 non d ame      -5.020  20.924  70.123  0.00  0.00     0.028 H 
ENDBRANCH  33  39
ENDBRANCH   7  33
ENDBRANCH   4   7
ENDBRANCH   1   3
BRANCH   1  43
ATOM     43  C15 non d ame      -6.823  13.369  68.496  0.00  0.00     0.240 C 
ATOM     44  O5  non d ame      -6.947  13.502  67.322  0.00  0.00    -0.271 OA
ATOM     45  N6  non d ame      -7.485  12.226  69.187  0.00  0.00    -0.355 N 
ATOM     46  H46 non d ame      -7.383  12.100  70.184  0.00  0.00     0.162 HD
BRANCH  45  47
ATOM     47  C20 non d ame      -8.298  11.269  68.406  0.00  0.00     0.013 C 
ATOM     48  H30 non d ame      -8.944  11.843  67.741  0.00  0.00     0.072 H 
BRANCH  47  49
ATOM     49  C21 non d ame      -9.137  10.439  69.351  0.00  0.00    -0.038 C 
ATOM     50  H31 non d ame      -8.622   9.482  69.438  0.00  0.00     0.036 H 
ATOM     51  H32 non d ame      -9.288  11.060  70.234  0.00  0.00     0.036 H 
BRANCH  49  52
ATOM     52  C22 non d ame     -10.542  10.129  68.790  0.00  0.00     0.018 C 
ATOM     53  H33 non d ame     -10.379   9.721  67.793  0.00  0.00     0.048 H 
ATOM     54  H34 non d ame     -11.037   9.525  69.552  0.00  0.00     0.048 H 
BRANCH  52  55
ATOM     55  C23 non d ame     -11.431  11.389  68.598  0.00  0.00     0.259 C 
ATOM     56  O7  non d ame     -11.847  11.675  67.522  0.00  0.00    -0.265 OA
BRANCH  55  57
ATOM     57  O8  non d ame     -11.734  12.206  69.721  0.00  0.00    -0.317 OA
BRANCH  57  58
ATOM     58  C29 non d ame     -11.704  13.610  69.445  0.00  0.00     0.052 C 
ATOM     59  H47 non d ame     -10.660  13.847  69.237  0.00  0.00     0.082 H 
ATOM     60  H48 non d ame     -12.463  13.777  68.682  0.00  0.00     0.082 H 
BRANCH  58  61
ATOM     61  C35 non d ame     -12.130  14.361  70.735  0.00  0.00    -0.034 A 
ATOM     62  C30 non d ame     -13.060  13.790  71.598  0.00  0.00    -0.075 A 
ATOM     63  C31 non d ame     -13.443  14.464  72.756  0.00  0.00    -0.082 A 
ATOM     64  H49 non d ame     -13.487  12.814  71.368  0.00  0.00     0.084 H 
ATOM     65  C32 non d ame     -12.896  15.717  73.048  0.00  0.00    -0.083 A 
ATOM     66  H50 non d ame     -14.170  14.013  73.432  0.00  0.00     0.083 H 
ATOM     67  C33 non d ame     -11.971  16.284  72.182  0.00  0.00    -0.082 A 
ATOM     68  H51 non d ame     -13.189  16.251  73.952  0.00  0.00     0.083 H 
ATOM     69  C34 non d ame     -11.583  15.612  71.024  0.00  0.00    -0.075 A 
ATOM     70  H52 non d ame     -11.547  17.262  72.411  0.00  0.00     0.083 H 
ATOM     71  H53 non d ame     -10.856  16.064  70.349  0.00  0.00     0.084 H 
ENDBRANCH  58  61
ENDBRANCH  57  58
ENDBRANCH  55  57
ENDBRANCH  52  55
ENDBRANCH  49  52
ENDBRANCH  47  49
BRANCH  47  72
ATOM     72  C24 non d ame      -7.383  10.353  67.597  0.00  0.00    -0.039 C 
ATOM     73  H35 non d ame      -6.453  10.908  67.473  0.00  0.00     0.036 H 
ATOM     74  H36 non d ame      -7.383   9.401  68.128  0.00  0.00     0.036 H 
BRANCH  72  75
ATOM     75  C25 non d ame      -7.966  10.077  66.131  0.00  0.00    -0.001 C 
ATOM     76  C26 non d ame      -8.198   8.463  65.915  0.00  0.00    -0.035 C 
ATOM     77  C27 non d ame      -7.597   8.087  64.761  0.00  0.00     0.085 C 
ATOM     78  H38 non d ame      -7.658   7.903  66.678  0.00  0.00     0.036 H 
ATOM     79  H39 non d ame      -9.253   8.258  65.732  0.00  0.00     0.036 H 
ATOM     80  N5  non d ame      -6.701   9.226  64.338  0.00  0.00    -0.049 N 
ATOM     81  H40 non d ame      -6.979   7.226  65.021  0.00  0.00     0.075 H 
ATOM     82  H41 non d ame      -8.402   7.980  64.035  0.00  0.00     0.075 H 
ATOM     83  C28 non d ame      -7.157  10.500  65.218  0.00  0.00     0.193 C 
ATOM     84  H42 non d ame      -5.763   8.967  64.607  0.00  0.00     0.280 HD
ATOM     85  H43 non d ame      -6.915   9.412  63.368  0.00  0.00     0.280 HD
ATOM     86  H44 non d ame      -7.757  11.294  64.773  0.00  0.00     0.129 H 
ATOM     87  H37 non d ame      -8.802  10.734  65.888  0.00  0.00     0.046 H 
BRANCH  83  88
ATOM     88  O6  non d ame      -6.012  11.151  65.772  0.00  0.00    -0.369 OA
ATOM     89  H45 non d ame      -6.120  11.232  66.723  0.00  0.00     0.212 HD
ENDBRANCH  83  88
ENDBRANCH  72  75
ENDBRANCH  47  72
ENDBRANCH  45  47
ENDBRANCH   1  43
BRANCH   1  90
ATOM     90  C16 non d ame      -6.002  14.026  70.780  0.00  0.00    -0.035 C 
ATOM     91  H21 non d ame      -6.319  14.937  71.289  0.00  0.00     0.037 H 
ATOM     92  H22 non d ame      -6.613  13.126  70.843  0.00  0.00     0.037 H 
BRANCH  90  93
ATOM     93  C17 non d ame      -4.605  13.654  71.371  0.00  0.00    -0.059 C 
ATOM     94  H23 non d ame      -4.456  12.585  71.221  0.00  0.00     0.038 H 
BRANCH  93  95
ATOM     95  C18 non d ame      -3.440  14.403  70.648  0.00  0.00    -0.073 C 
ATOM     96  H24 non d ame      -3.211  15.323  71.186  0.00  0.00     0.028 H 
ATOM     97  H25 non d ame      -2.556  13.765  70.626  0.00  0.00     0.028 H 
ATOM     98  H26 non d ame      -3.740  14.643  69.628  0.00  0.00     0.028 H 
ENDBRANCH  93  95
BRANCH  93  99
ATOM     99  C19 non d ame      -4.564  13.911  72.880  0.00  0.00    -0.073 C 
ATOM    100  H27 non d ame      -4.332  14.960  73.064  0.00  0.00     0.028 H 
ATOM    101  H28 non d ame      -5.535  13.672  73.315  0.00  0.00     0.028 H 
ATOM    102  H29 non d ame      -3.798  13.283  73.335  0.00  0.00     0.028 H 
ENDBRANCH  93  99
ENDBRANCH  90  93
ENDBRANCH   1  90
TORSDOF 26
ENDMDL
MODEL 19
REMARK VINA RESULT:      -6.8      2.528      5.890
REMARK  26 active torsions:
REMARK  status: ('A' for Active; 'I' for Inactive)
REMARK    1  A    between atoms: C2_2  and  C3_3 
REMARK    2  A    between atoms: C4_6  and  C5_7 
REMARK       I    between atoms: C5_7  and  N2_9 
REMARK    3  A    between atoms: N2_9  and  C6_10 
REMARK    4  A    between atoms: C6_10  and  C7_11 
REMARK    5  A    between atoms: C6_10  and  C8_13 
REMARK       I    between atoms: C7_11  and  N3_14 
REMARK    6  A    between atoms: N3_14  and  C9_15 
REMARK    7  A    between atoms: C9_15  and  C10_16 
REMARK    8  A    between atoms: C9_15  and  C11_18 
REMARK       I    between atoms: C10_16  and  N4_21 
REMARK    9  A    between atoms: C11_18  and  C12_19 
REMARK   10  A    between atoms: C11_18  and  C13_20 
REMARK   11  A    between atoms: N4_21  and  C14_22 
REMARK   12  A    between atoms: C14_22  and  C15_23 
REMARK   13  A    between atoms: C14_22  and  C16_25 
REMARK       I    between atoms: C15_23  and  N6_40 
REMARK   14  A    between atoms: C16_25  and  C17_26 
REMARK   15  A    between atoms: C17_26  and  C18_27 
REMARK   16  A    between atoms: C17_26  and  C19_28 
REMARK   17  A    between atoms: C20_29  and  C21_30 
REMARK   18  A    between atoms: C20_29  and  C24_33 
REMARK   19  A    between atoms: C20_29  and  N6_40 
REMARK   20  A    between atoms: C21_30  and  C22_31 
REMARK   21  A    between atoms: C22_31  and  C23_32 
REMARK   22  A    between atoms: C23_32  and  O8_43 
REMARK   23  A    between atoms: C24_33  and  C25_34 
REMARK   24  A    between atoms: C28_38  and  O6_39 
REMARK   25  A    between atoms: C29_42  and  O8_43 
REMARK   26  A    between atoms: C29_42  and  C35_49 
ROOT
ATOM      1  C14 non d ame      -7.752   9.039  66.784  0.00  0.00     0.089 C 
ATOM      2  H20 non d ame      -8.051   8.267  66.074  0.00  0.00     0.087 H 
ENDROOT
BRANCH   1   3
ATOM      3  N4  non d ame      -8.456  10.261  66.426  0.00  0.00    -0.346 N 
ATOM      4  C10 non d ame      -9.922  10.220  66.076  0.00  0.00     0.241 C 
ATOM      5  O4  non d ame     -10.513   9.191  66.085  0.00  0.00    -0.271 OA
ATOM      6  H19 non d ame      -7.935  11.126  66.421  0.00  0.00     0.163 HD
BRANCH   4   7
ATOM      7  C9  non d ame     -10.637  11.495  65.713  0.00  0.00     0.092 C 
ATOM      8  H11 non d ame     -11.694  11.397  65.962  0.00  0.00     0.088 H 
BRANCH   7   9
ATOM      9  N3  non d ame     -10.104  12.600  66.516  0.00  0.00    -0.346 N 
ATOM     10  C7  non d ame     -10.961  13.698  66.890  0.00  0.00     0.240 C 
ATOM     11  O3  non d ame     -12.081  13.710  66.551  0.00  0.00    -0.271 OA
ATOM     12  H10 non d ame      -9.139  12.604  66.814  0.00  0.00     0.163 HD
BRANCH  10  13
ATOM     13  C6  non d ame     -10.387  14.872  67.742  0.00  0.00     0.086 C 
ATOM     14  H6  non d ame     -10.810  15.839  67.467  0.00  0.00     0.086 H 
BRANCH  13  15
ATOM     15  N2  non d ame     -10.726  14.652  69.138  0.00  0.00    -0.343 N 
ATOM     16  C5  non d ame     -11.781  15.455  69.759  0.00  0.00     0.273 C 
ATOM     17  O2  non d ame     -12.349  16.278  69.129  0.00  0.00    -0.266 OA
ATOM     18  H5  non d ame     -10.234  13.948  69.670  0.00  0.00     0.163 HD
BRANCH  16  19
ATOM     19  C4  non d ame     -12.151  15.231  71.234  0.00  0.00     0.154 A 
ATOM     20  C1  non d ame     -11.863  16.094  72.338  0.00  0.00    -0.017 A 
ATOM     21  C2  non d ame     -12.412  15.440  73.464  0.00  0.00     0.077 A 
ATOM     22  H1  non d ame     -11.338  17.049  72.325  0.00  0.00     0.091 H 
ATOM     23  O1  non d ame     -12.950  14.333  73.044  0.00  0.00    -0.218 OA
ATOM     24  N1  non d ame     -12.810  14.188  71.746  0.00  0.00    -0.123 NA
BRANCH  21  25
ATOM     25  C3  non d ame     -12.379  15.940  74.902  0.00  0.00    -0.029 C 
ATOM     26  H2  non d ame     -11.961  16.946  74.928  0.00  0.00     0.036 H 
ATOM     27  H3  non d ame     -13.392  15.957  75.304  0.00  0.00     0.036 H 
ATOM     28  H4  non d ame     -11.761  15.274  75.505  0.00  0.00     0.036 H 
ENDBRANCH  21  25
ENDBRANCH  16  19
ENDBRANCH  13  15
BRANCH  13  29
ATOM     29  C8  non d ame      -8.889  14.931  67.577  0.00  0.00    -0.049 C 
ATOM     30  H7  non d ame      -8.427  14.147  68.176  0.00  0.00     0.030 H 
ATOM     31  H8  non d ame      -8.633  14.787  66.528  0.00  0.00     0.030 H 
ATOM     32  H9  non d ame      -8.526  15.903  67.910  0.00  0.00     0.030 H 
ENDBRANCH  13  29
ENDBRANCH  10  13
ENDBRANCH   7   9
BRANCH   7  33
ATOM     33  C11 non d ame     -10.417  11.802  64.203  0.00  0.00    -0.033 C 
ATOM     34  H12 non d ame      -9.812  12.706  64.136  0.00  0.00     0.042 H 
BRANCH  33  35
ATOM     35  C12 non d ame      -9.626  10.656  63.499  0.00  0.00    -0.071 C 
ATOM     36  H13 non d ame      -9.352  10.969  62.492  0.00  0.00     0.028 H 
ATOM     37  H14 non d ame      -8.723  10.435  64.069  0.00  0.00     0.028 H 
ATOM     38  H15 non d ame     -10.250   9.764  63.446  0.00  0.00     0.028 H 
ENDBRANCH  33  35
BRANCH  33  39
ATOM     39  C13 non d ame     -11.777  12.076  63.484  0.00  0.00    -0.071 C 
ATOM     40  H16 non d ame     -11.623  12.790  62.675  0.00  0.00     0.028 H 
ATOM     41  H17 non d ame     -12.167  11.143  63.076  0.00  0.00     0.028 H 
ATOM     42  H18 non d ame     -12.490  12.486  64.200  0.00  0.00     0.028 H 
ENDBRANCH  33  39
ENDBRANCH   7  33
ENDBRANCH   4   7
ENDBRANCH   1   3
BRANCH   1  43
ATOM     43  C15 non d ame      -8.120   8.665  68.248  0.00  0.00     0.240 C 
ATOM     44  O5  non d ame      -7.589   9.224  69.152  0.00  0.00    -0.271 OA
ATOM     45  N6  non d ame      -9.142   7.615  68.523  0.00  0.00    -0.355 N 
ATOM     46  H46 non d ame      -9.604   7.136  67.763  0.00  0.00     0.162 HD
BRANCH  45  47
ATOM     47  C20 non d ame      -9.483   7.272  69.921  0.00  0.00     0.013 C 
ATOM     48  H30 non d ame      -8.863   7.883  70.577  0.00  0.00     0.072 H 
BRANCH  47  49
ATOM     49  C21 non d ame      -9.198   5.806  70.159  0.00  0.00    -0.038 C 
ATOM     50  H31 non d ame      -9.420   5.630  71.211  0.00  0.00     0.036 H 
ATOM     51  H32 non d ame      -9.750   5.270  69.387  0.00  0.00     0.036 H 
BRANCH  49  52
ATOM     52  C22 non d ame      -7.710   5.445  69.961  0.00  0.00     0.018 C 
ATOM     53  H33 non d ame      -7.171   6.393  69.976  0.00  0.00     0.048 H 
ATOM     54  H34 non d ame      -7.489   4.681  70.707  0.00  0.00     0.048 H 
BRANCH  52  55
ATOM     55  C23 non d ame      -7.400   4.798  68.582  0.00  0.00     0.259 C 
ATOM     56  O7  non d ame      -6.509   4.020  68.467  0.00  0.00    -0.265 OA
BRANCH  55  57
ATOM     57  O8  non d ame      -8.187   5.156  67.453  0.00  0.00    -0.317 OA
BRANCH  57  58
ATOM     58  C29 non d ame      -7.422   5.449  66.280  0.00  0.00     0.052 C 
ATOM     59  H47 non d ame      -7.306   6.533  66.267  0.00  0.00     0.082 H 
ATOM     60  H48 non d ame      -6.543   4.808  66.333  0.00  0.00     0.082 H 
BRANCH  58  61
ATOM     61  C35 non d ame      -8.262   5.030  65.044  0.00  0.00    -0.034 A 
ATOM     62  C30 non d ame      -7.857   5.407  63.767  0.00  0.00    -0.075 A 
ATOM     63  C31 non d ame      -8.611   5.031  62.656  0.00  0.00    -0.082 A 
ATOM     64  H49 non d ame      -6.949   5.995  63.636  0.00  0.00     0.084 H 
ATOM     65  C32 non d ame      -9.776   4.277  62.826  0.00  0.00    -0.083 A 
ATOM     66  H50 non d ame      -8.290   5.325  61.657  0.00  0.00     0.083 H 
ATOM     67  C33 non d ame     -10.177   3.907  64.102  0.00  0.00    -0.082 A 
ATOM     68  H51 non d ame     -10.371   3.978  61.963  0.00  0.00     0.083 H 
ATOM     69  C34 non d ame      -9.426   4.279  65.215  0.00  0.00    -0.075 A 
ATOM     70  H52 non d ame     -11.088   3.321  64.232  0.00  0.00     0.083 H 
ATOM     71  H53 non d ame      -9.747   3.983  66.214  0.00  0.00     0.084 H 
ENDBRANCH  58  61
ENDBRANCH  57  58
ENDBRANCH  55  57
ENDBRANCH  52  55
ENDBRANCH  49  52
ENDBRANCH  47  49
BRANCH  47  72
ATOM     72  C24 non d ame     -10.962   7.552  70.176  0.00  0.00    -0.039 C 
ATOM     73  H35 non d ame     -11.394   7.748  69.194  0.00  0.00     0.036 H 
ATOM     74  H36 non d ame     -11.319   6.710  70.769  0.00  0.00     0.036 H 
BRANCH  72  75
ATOM     75  C25 non d ame     -11.172   8.873  71.056  0.00  0.00    -0.001 C 
ATOM     76  C26 non d ame     -12.320   8.606  72.203  0.00  0.00    -0.035 C 
ATOM     77  C27 non d ame     -13.241   9.597  72.138  0.00  0.00     0.085 C 
ATOM     78  H38 non d ame     -12.891   7.711  71.959  0.00  0.00     0.036 H 
ATOM     79  H39 non d ame     -11.889   8.724  73.198  0.00  0.00     0.036 H 
ATOM     80  N5  non d ame     -13.005  10.334  70.841  0.00  0.00    -0.049 N 
ATOM     81  H40 non d ame     -14.208   9.094  72.090  0.00  0.00     0.075 H 
ATOM     82  H41 non d ame     -13.013  10.261  72.970  0.00  0.00     0.075 H 
ATOM     83  C28 non d ame     -11.549   9.868  70.324  0.00  0.00     0.193 C 
ATOM     84  H42 non d ame     -13.701   9.998  70.191  0.00  0.00     0.280 HD
ATOM     85  H43 non d ame     -12.965  11.316  71.074  0.00  0.00     0.280 HD
ATOM     86  H44 non d ame     -10.687  10.528  70.427  0.00  0.00     0.129 H 
ATOM     87  H37 non d ame     -10.227   9.301  71.391  0.00  0.00     0.046 H 
BRANCH  83  88
ATOM     88  O6  non d ame     -11.604   9.526  68.938  0.00  0.00    -0.369 OA
ATOM     89  H45 non d ame     -10.728   9.603  68.555  0.00  0.00     0.212 HD
ENDBRANCH  83  88
ENDBRANCH  72  75
ENDBRANCH  47  72
ENDBRANCH  45  47
ENDBRANCH   1  43
BRANCH   1  90
ATOM     90  C16 non d ame      -6.254   9.281  66.679  0.00  0.00    -0.035 C 
ATOM     91  H21 non d ame      -6.089  10.263  67.121  0.00  0.00     0.037 H 
ATOM     92  H22 non d ame      -5.788   8.399  67.120  0.00  0.00     0.037 H 
BRANCH  90  93
ATOM     93  C17 non d ame      -5.735   9.366  65.209  0.00  0.00    -0.059 C 
ATOM     94  H23 non d ame      -6.603   9.372  64.551  0.00  0.00     0.038 H 
BRANCH  93  95
ATOM     95  C18 non d ame      -4.927  10.676  64.944  0.00  0.00    -0.073 C 
ATOM     96  H24 non d ame      -3.899  10.423  64.685  0.00  0.00     0.028 H 
ATOM     97  H25 non d ame      -5.385  11.225  64.121  0.00  0.00     0.028 H 
ATOM     98  H26 non d ame      -4.934  11.295  65.842  0.00  0.00     0.028 H 
ENDBRANCH  93  95
BRANCH  93  99
ATOM     99  C19 non d ame      -4.902   8.131  64.851  0.00  0.00    -0.073 C 
ATOM    100  H27 non d ame      -4.231   8.372  64.026  0.00  0.00     0.028 H 
ATOM    101  H28 non d ame      -4.317   7.825  65.718  0.00  0.00     0.028 H 
ATOM    102  H29 non d ame      -5.566   7.319  64.556  0.00  0.00     0.028 H 
ENDBRANCH  93  99
ENDBRANCH  90  93
ENDBRANCH   1  90
TORSDOF 26
ENDMDL
MODEL 20
REMARK VINA RESULT:      -6.8      2.479      6.688
REMARK  26 active torsions:
REMARK  status: ('A' for Active; 'I' for Inactive)
REMARK    1  A    between atoms: C2_2  and  C3_3 
REMARK    2  A    between atoms: C4_6  and  C5_7 
REMARK       I    between atoms: C5_7  and  N2_9 
REMARK    3  A    between atoms: N2_9  and  C6_10 
REMARK    4  A    between atoms: C6_10  and  C7_11 
REMARK    5  A    between atoms: C6_10  and  C8_13 
REMARK       I    between atoms: C7_11  and  N3_14 
REMARK    6  A    between atoms: N3_14  and  C9_15 
REMARK    7  A    between atoms: C9_15  and  C10_16 
REMARK    8  A    between atoms: C9_15  and  C11_18 
REMARK       I    between atoms: C10_16  and  N4_21 
REMARK    9  A    between atoms: C11_18  and  C12_19 
REMARK   10  A    between atoms: C11_18  and  C13_20 
REMARK   11  A    between atoms: N4_21  and  C14_22 
REMARK   12  A    between atoms: C14_22  and  C15_23 
REMARK   13  A    between atoms: C14_22  and  C16_25 
REMARK       I    between atoms: C15_23  and  N6_40 
REMARK   14  A    between atoms: C16_25  and  C17_26 
REMARK   15  A    between atoms: C17_26  and  C18_27 
REMARK   16  A    between atoms: C17_26  and  C19_28 
REMARK   17  A    between atoms: C20_29  and  C21_30 
REMARK   18  A    between atoms: C20_29  and  C24_33 
REMARK   19  A    between atoms: C20_29  and  N6_40 
REMARK   20  A    between atoms: C21_30  and  C22_31 
REMARK   21  A    between atoms: C22_31  and  C23_32 
REMARK   22  A    between atoms: C23_32  and  O8_43 
REMARK   23  A    between atoms: C24_33  and  C25_34 
REMARK   24  A    between atoms: C28_38  and  O6_39 
REMARK   25  A    between atoms: C29_42  and  O8_43 
REMARK   26  A    between atoms: C29_42  and  C35_49 
ROOT
ATOM      1  C14 non d ame      -8.893  10.265  66.255  0.00  0.00     0.089 C 
ATOM      2  H20 non d ame      -9.518   9.692  65.569  0.00  0.00     0.087 H 
ENDROOT
BRANCH   1   3
ATOM      3  N4  non d ame      -9.358  11.643  66.224  0.00  0.00    -0.346 N 
ATOM      4  C10 non d ame     -10.821  11.958  66.403  0.00  0.00     0.241 C 
ATOM      5  O4  non d ame     -11.607  11.085  66.568  0.00  0.00    -0.271 OA
ATOM      6  H19 non d ame      -8.673  12.372  66.079  0.00  0.00     0.163 HD
BRANCH   4   7
ATOM      7  C9  non d ame     -11.284  13.392  66.373  0.00  0.00     0.092 C 
ATOM      8  H11 non d ame     -12.351  13.429  66.593  0.00  0.00     0.088 H 
BRANCH   7   9
ATOM      9  N3  non d ame     -10.598  14.149  67.424  0.00  0.00    -0.346 N 
ATOM     10  C7  non d ame     -11.267  14.414  68.674  0.00  0.00     0.240 C 
ATOM     11  O3  non d ame     -12.357  14.028  68.850  0.00  0.00    -0.271 OA
ATOM     12  H10 non d ame      -9.657  14.490  67.286  0.00  0.00     0.163 HD
BRANCH  10  13
ATOM     13  C6  non d ame     -10.532  15.224  69.788  0.00  0.00     0.086 C 
ATOM     14  H6  non d ame      -9.692  14.680  70.220  0.00  0.00     0.086 H 
BRANCH  13  15
ATOM     15  N2  non d ame      -9.986  16.438  69.206  0.00  0.00    -0.343 N 
ATOM     16  C5  non d ame      -8.588  16.464  68.770  0.00  0.00     0.273 C 
ATOM     17  O2  non d ame      -7.911  15.504  68.895  0.00  0.00    -0.266 OA
ATOM     18  H5  non d ame     -10.572  17.255  69.105  0.00  0.00     0.163 HD
BRANCH  16  19
ATOM     19  C4  non d ame      -7.998  17.741  68.152  0.00  0.00     0.154 A 
ATOM     20  C1  non d ame      -7.766  18.002  66.764  0.00  0.00    -0.017 A 
ATOM     21  C2  non d ame      -7.217  19.303  66.725  0.00  0.00     0.077 A 
ATOM     22  H1  non d ame      -7.966  17.348  65.915  0.00  0.00     0.091 H 
ATOM     23  O1  non d ame      -7.148  19.731  67.952  0.00  0.00    -0.218 OA
ATOM     24  N1  non d ame      -7.597  18.837  68.802  0.00  0.00    -0.123 NA
BRANCH  21  25
ATOM     25  C3  non d ame      -6.788  20.065  65.478  0.00  0.00    -0.029 C 
ATOM     26  H2  non d ame      -5.825  19.687  65.135  0.00  0.00     0.036 H 
ATOM     27  H3  non d ame      -7.533  19.927  64.694  0.00  0.00     0.036 H 
ATOM     28  H4  non d ame      -6.700  21.126  65.712  0.00  0.00     0.036 H 
ENDBRANCH  21  25
ENDBRANCH  16  19
ENDBRANCH  13  15
BRANCH  13  29
ATOM     29  C8  non d ame     -11.506  15.570  70.886  0.00  0.00    -0.049 C 
ATOM     30  H7  non d ame     -12.464  15.090  70.687  0.00  0.00     0.030 H 
ATOM     31  H8  non d ame     -11.115  15.219  71.841  0.00  0.00     0.030 H 
ATOM     32  H9  non d ame     -11.641  16.650  70.923  0.00  0.00     0.030 H 
ENDBRANCH  13  29
ENDBRANCH  10  13
ENDBRANCH   7   9
BRANCH   7  33
ATOM     33  C11 non d ame     -10.950  14.015  64.986  0.00  0.00    -0.033 C 
ATOM     34  H12 non d ame      -9.974  13.637  64.682  0.00  0.00     0.042 H 
BRANCH  33  35
ATOM     35  C12 non d ame     -11.982  13.575  63.902  0.00  0.00    -0.071 C 
ATOM     36  H13 non d ame     -12.073  12.489  63.906  0.00  0.00     0.028 H 
ATOM     37  H14 non d ame     -12.952  14.021  64.122  0.00  0.00     0.028 H 
ATOM     38  H15 non d ame     -11.643  13.908  62.921  0.00  0.00     0.028 H 
ENDBRANCH  33  35
BRANCH  33  39
ATOM     39  C13 non d ame     -10.857  15.572  65.081  0.00  0.00    -0.071 C 
ATOM     40  H16 non d ame      -9.981  15.918  64.532  0.00  0.00     0.028 H 
ATOM     41  H17 non d ame     -11.754  16.017  64.650  0.00  0.00     0.028 H 
ATOM     42  H18 non d ame     -10.771  15.867  66.126  0.00  0.00     0.028 H 
ENDBRANCH  33  39
ENDBRANCH   7  33
ENDBRANCH   4   7
ENDBRANCH   1   3
BRANCH   1  43
ATOM     43  C15 non d ame      -8.994   9.741  67.717  0.00  0.00     0.240 C 
ATOM     44  O5  non d ame      -8.776  10.477  68.624  0.00  0.00    -0.271 OA
ATOM     45  N6  non d ame      -9.371   8.324  67.985  0.00  0.00    -0.355 N 
ATOM     46  H46 non d ame      -9.563   7.691  67.223  0.00  0.00     0.162 HD
BRANCH  45  47
ATOM     47  C20 non d ame      -9.464   7.843  69.381  0.00  0.00     0.013 C 
ATOM     48  H30 non d ame      -8.846   8.491  70.001  0.00  0.00     0.072 H 
BRANCH  47  49
ATOM     49  C21 non d ame      -8.955   6.421  69.453  0.00  0.00    -0.038 C 
ATOM     50  H31 non d ame      -8.049   6.400  68.847  0.00  0.00     0.036 H 
ATOM     51  H32 non d ame      -8.907   6.179  70.515  0.00  0.00     0.036 H 
BRANCH  49  52
ATOM     52  C22 non d ame      -9.928   5.403  68.818  0.00  0.00     0.018 C 
ATOM     53  H33 non d ame     -10.542   5.030  69.638  0.00  0.00     0.048 H 
ATOM     54  H34 non d ame     -10.395   5.924  67.981  0.00  0.00     0.048 H 
BRANCH  52  55
ATOM     55  C23 non d ame      -9.224   4.159  68.210  0.00  0.00     0.259 C 
ATOM     56  O7  non d ame      -8.700   3.358  68.914  0.00  0.00    -0.265 OA
BRANCH  55  57
ATOM     57  O8  non d ame      -9.200   3.993  66.797  0.00  0.00    -0.317 OA
BRANCH  57  58
ATOM     58  C29 non d ame      -9.478   5.191  66.065  0.00  0.00     0.052 C 
ATOM     59  H47 non d ame     -10.399   4.993  65.517  0.00  0.00     0.082 H 
ATOM     60  H48 non d ame      -9.441   5.998  66.796  0.00  0.00     0.082 H 
BRANCH  58  61
ATOM     61  C35 non d ame      -8.332   5.403  65.041  0.00  0.00    -0.034 A 
ATOM     62  C30 non d ame      -8.607   5.402  63.677  0.00  0.00    -0.075 A 
ATOM     63  C31 non d ame      -7.578   5.593  62.757  0.00  0.00    -0.082 A 
ATOM     64  H49 non d ame      -9.630   5.252  63.330  0.00  0.00     0.084 H 
ATOM     65  C32 non d ame      -6.268   5.783  63.205  0.00  0.00    -0.083 A 
ATOM     66  H50 non d ame      -7.797   5.593  61.689  0.00  0.00     0.083 H 
ATOM     67  C33 non d ame      -5.997   5.780  64.566  0.00  0.00    -0.082 A 
ATOM     68  H51 non d ame      -5.457   5.933  62.492  0.00  0.00     0.083 H 
ATOM     69  C34 non d ame      -7.023   5.592  65.490  0.00  0.00    -0.075 A 
ATOM     70  H52 non d ame      -4.974   5.926  64.912  0.00  0.00     0.083 H 
ATOM     71  H53 non d ame      -6.803   5.592  66.558  0.00  0.00     0.084 H 
ENDBRANCH  58  61
ENDBRANCH  57  58
ENDBRANCH  55  57
ENDBRANCH  52  55
ENDBRANCH  49  52
ENDBRANCH  47  49
BRANCH  47  72
ATOM     72  C24 non d ame     -10.917   7.889  69.847  0.00  0.00    -0.039 C 
ATOM     73  H35 non d ame     -11.486   8.252  68.991  0.00  0.00     0.036 H 
ATOM     74  H36 non d ame     -11.122   6.900  70.258  0.00  0.00     0.036 H 
BRANCH  72  75
ATOM     75  C25 non d ame     -11.125   8.945  71.034  0.00  0.00    -0.001 C 
ATOM     76  C26 non d ame     -12.076   8.292  72.205  0.00  0.00    -0.035 C 
ATOM     77  C27 non d ame     -13.085   9.153  72.480  0.00  0.00     0.085 C 
ATOM     78  H38 non d ame     -12.591   7.411  71.821  0.00  0.00     0.036 H 
ATOM     79  H39 non d ame     -11.527   8.235  73.145  0.00  0.00     0.036 H 
ATOM     80  N5  non d ame     -13.097  10.184  71.377  0.00  0.00    -0.049 N 
ATOM     81  H40 non d ame     -13.999   8.560  72.422  0.00  0.00     0.075 H 
ATOM     82  H41 non d ame     -12.808   9.637  73.415  0.00  0.00     0.075 H 
ATOM     83  C28 non d ame     -11.688  10.025  70.605  0.00  0.00     0.193 C 
ATOM     84  H42 non d ame     -13.841   9.920  70.747  0.00  0.00     0.280 HD
ATOM     85  H43 non d ame     -13.115  11.087  71.830  0.00  0.00     0.280 HD
ATOM     86  H44 non d ame     -10.885  10.745  70.765  0.00  0.00     0.129 H 
ATOM     87  H37 non d ame     -10.186   9.398  71.353  0.00  0.00     0.046 H 
BRANCH  83  88
ATOM     88  O6  non d ame     -11.901   9.998  69.192  0.00  0.00    -0.369 OA
ATOM     89  H45 non d ame     -12.841  10.058  69.009  0.00  0.00     0.212 HD
ENDBRANCH  83  88
ENDBRANCH  72  75
ENDBRANCH  47  72
ENDBRANCH  45  47
ENDBRANCH   1  43
BRANCH   1  90
ATOM     90  C16 non d ame      -7.445  10.218  65.794  0.00  0.00    -0.035 C 
ATOM     91  H21 non d ame      -7.216  11.230  65.458  0.00  0.00     0.037 H 
ATOM     92  H22 non d ame      -6.891   9.783  66.626  0.00  0.00     0.037 H 
BRANCH  90  93
ATOM     93  C17 non d ame      -7.208   9.281  64.568  0.00  0.00    -0.059 C 
ATOM     94  H23 non d ame      -6.929   8.299  64.950  0.00  0.00     0.038 H 
BRANCH  93  95
ATOM     95  C18 non d ame      -8.496   9.107  63.701  0.00  0.00    -0.073 C 
ATOM     96  H24 non d ame      -9.248   8.566  64.274  0.00  0.00     0.028 H 
ATOM     97  H25 non d ame      -8.884  10.088  63.426  0.00  0.00     0.028 H 
ATOM     98  H26 non d ame      -8.253   8.547  62.798  0.00  0.00     0.028 H 
ENDBRANCH  93  95
BRANCH  93  99
ATOM     99  C19 non d ame      -6.041   9.784  63.714  0.00  0.00    -0.073 C 
ATOM    100  H27 non d ame      -5.329   8.972  63.557  0.00  0.00     0.028 H 
ATOM    101  H28 non d ame      -6.418  10.128  62.750  0.00  0.00     0.028 H 
ATOM    102  H29 non d ame      -5.545  10.608  64.225  0.00  0.00     0.028 H 
ENDBRANCH  93  99
ENDBRANCH  90  93
ENDBRANCH   1  90
TORSDOF 26
ENDMDL
