MODEL 1
REMARK VINA RESULT:      -6.9      0.000      0.000
REMARK  26 active torsions:
REMARK  status: ('A' for Active; 'I' for Inactive)
REMARK    1  A    between atoms: C2_2  and  C3_3 
REMARK    2  A    between atoms: C4_6  and  C5_7 
REMARK       I    between atoms: C5_7  and  N2_9 
REMARK    3  A    between atoms: N2_9  and  C6_10 
REMARK    4  A    between atoms: C6_10  and  C7_11 
REMARK    5  A    between atoms: C6_10  and  C8_13 
REMARK       I    between atoms: C7_11  and  N3_14 
REMARK    6  A    between atoms: N3_14  and  C9_15 
REMARK    7  A    between atoms: C9_15  and  C10_16 
REMARK    8  A    between atoms: C9_15  and  C11_18 
REMARK       I    between atoms: C10_16  and  N4_21 
REMARK    9  A    between atoms: C11_18  and  C12_19 
REMARK   10  A    between atoms: C11_18  and  C13_20 
REMARK   11  A    between atoms: N4_21  and  C14_22 
REMARK   12  A    between atoms: C14_22  and  C15_23 
REMARK   13  A    between atoms: C14_22  and  C16_25 
REMARK       I    between atoms: C15_23  and  N6_40 
REMARK   14  A    between atoms: C16_25  and  C17_26 
REMARK   15  A    between atoms: C17_26  and  C18_27 
REMARK   16  A    between atoms: C17_26  and  C19_28 
REMARK   17  A    between atoms: C20_29  and  C21_30 
REMARK   18  A    between atoms: C20_29  and  C24_33 
REMARK   19  A    between atoms: C20_29  and  N6_40 
REMARK   20  A    between atoms: C21_30  and  C22_31 
REMARK   21  A    between atoms: C22_31  and  C23_32 
REMARK   22  A    between atoms: C23_32  and  O8_43 
REMARK   23  A    between atoms: C24_33  and  C25_34 
REMARK   24  A    between atoms: C28_38  and  O6_39 
REMARK   25  A    between atoms: C29_42  and  O8_43 
REMARK   26  A    between atoms: C29_42  and  C35_49 
ROOT
ATOM      1  C14 non d ame     -12.022  13.787  69.457  0.00  0.00     0.089 C 
ATOM      2  H20 non d ame     -13.010  13.628  69.024  0.00  0.00     0.087 H 
ENDROOT
BRANCH   1   3
ATOM      3  N4  non d ame     -11.508  12.488  69.866  0.00  0.00    -0.346 N 
ATOM      4  C10 non d ame     -11.683  11.285  68.974  0.00  0.00     0.241 C 
ATOM      5  O4  non d ame     -12.243  11.386  67.932  0.00  0.00    -0.271 OA
ATOM      6  H19 non d ame     -11.037  12.423  70.757  0.00  0.00     0.163 HD
BRANCH   4   7
ATOM      7  C9  non d ame     -11.140   9.950  69.410  0.00  0.00     0.092 C 
ATOM      8  H11 non d ame     -11.683   9.157  68.897  0.00  0.00     0.088 H 
BRANCH   7   9
ATOM      9  N3  non d ame      -9.733   9.840  69.012  0.00  0.00    -0.346 N 
ATOM     10  C7  non d ame      -9.379   9.128  67.808  0.00  0.00     0.240 C 
ATOM     11  O3  non d ame     -10.213   8.637  67.150  0.00  0.00    -0.271 OA
ATOM     12  H10 non d ame      -9.003  10.257  69.571  0.00  0.00     0.163 HD
BRANCH  10  13
ATOM     13  C6  non d ame      -7.880   9.012  67.391  0.00  0.00     0.086 C 
ATOM     14  H6  non d ame      -7.749   8.914  66.313  0.00  0.00     0.086 H 
BRANCH  13  15
ATOM     15  N2  non d ame      -7.185  10.226  67.786  0.00  0.00    -0.343 N 
ATOM     16  C5  non d ame      -6.514  11.037  66.768  0.00  0.00     0.273 C 
ATOM     17  O2  non d ame      -6.537  10.703  65.634  0.00  0.00    -0.266 OA
ATOM     18  H5  non d ame      -7.169  10.502  68.757  0.00  0.00     0.163 HD
BRANCH  16  19
ATOM     19  C4  non d ame      -5.777  12.323  67.171  0.00  0.00     0.154 A 
ATOM     20  C1  non d ame      -6.302  13.420  67.925  0.00  0.00    -0.017 A 
ATOM     21  C2  non d ame      -5.233  14.340  68.021  0.00  0.00     0.077 A 
ATOM     22  H1  non d ame      -7.304  13.532  68.339  0.00  0.00     0.091 H 
ATOM     23  O1  non d ame      -4.219  13.821  67.394  0.00  0.00    -0.218 OA
ATOM     24  N1  non d ame      -4.512  12.645  66.889  0.00  0.00    -0.123 NA
BRANCH  21  25
ATOM     25  C3  non d ame      -5.265  15.688  68.729  0.00  0.00    -0.029 C 
ATOM     26  H2  non d ame      -5.659  16.445  68.052  0.00  0.00     0.036 H 
ATOM     27  H3  non d ame      -5.903  15.620  69.610  0.00  0.00     0.036 H 
ATOM     28  H4  non d ame      -4.254  15.963  69.033  0.00  0.00     0.036 H 
ENDBRANCH  21  25
ENDBRANCH  16  19
ENDBRANCH  13  15
BRANCH  13  29
ATOM     29  C8  non d ame      -7.259   7.817  68.068  0.00  0.00    -0.049 C 
ATOM     30  H7  non d ame      -7.963   7.399  68.787  0.00  0.00     0.030 H 
ATOM     31  H8  non d ame      -7.012   7.063  67.320  0.00  0.00     0.030 H 
ATOM     32  H9  non d ame      -6.351   8.125  68.587  0.00  0.00     0.030 H 
ENDBRANCH  13  29
ENDBRANCH  10  13
ENDBRANCH   7   9
BRANCH   7  33
ATOM     33  C11 non d ame     -11.249   9.827  70.959  0.00  0.00    -0.033 C 
ATOM     34  H12 non d ame     -11.024  10.805  71.383  0.00  0.00     0.042 H 
BRANCH  33  35
ATOM     35  C12 non d ame     -12.697   9.446  71.398  0.00  0.00    -0.071 C 
ATOM     36  H13 non d ame     -13.145  10.282  71.935  0.00  0.00     0.028 H 
ATOM     37  H14 non d ame     -13.296   9.218  70.517  0.00  0.00     0.028 H 
ATOM     38  H15 non d ame     -12.661   8.573  72.049  0.00  0.00     0.028 H 
ENDBRANCH  33  35
BRANCH  33  39
ATOM     39  C13 non d ame     -10.202   8.808  71.514  0.00  0.00    -0.071 C 
ATOM     40  H16 non d ame      -9.625   9.277  72.310  0.00  0.00     0.028 H 
ATOM     41  H17 non d ame     -10.720   7.933  71.907  0.00  0.00     0.028 H 
ATOM     42  H18 non d ame      -9.531   8.503  70.710  0.00  0.00     0.028 H 
ENDBRANCH  33  39
ENDBRANCH   7  33
ENDBRANCH   4   7
ENDBRANCH   1   3
BRANCH   1  43
ATOM     43  C15 non d ame     -11.028  14.415  68.438  0.00  0.00     0.240 C 
ATOM     44  O5  non d ame      -9.991  14.854  68.818  0.00  0.00    -0.271 OA
ATOM     45  N6  non d ame     -11.365  14.460  66.987  0.00  0.00    -0.355 N 
ATOM     46  H46 non d ame     -12.241  14.085  66.652  0.00  0.00     0.162 HD
BRANCH  45  47
ATOM     47  C20 non d ame     -10.408  15.058  66.031  0.00  0.00     0.013 C 
ATOM     48  H30 non d ame      -9.437  15.120  66.522  0.00  0.00     0.072 H 
BRANCH  47  49
ATOM     49  C21 non d ame     -10.883  16.442  65.650  0.00  0.00    -0.038 C 
ATOM     50  H31 non d ame     -10.501  16.619  64.644  0.00  0.00     0.036 H 
ATOM     51  H32 non d ame     -11.958  16.446  65.833  0.00  0.00     0.036 H 
BRANCH  49  52
ATOM     52  C22 non d ame     -10.284  17.549  66.544  0.00  0.00     0.018 C 
ATOM     53  H33 non d ame     -10.538  18.492  66.058  0.00  0.00     0.048 H 
ATOM     54  H34 non d ame     -10.645  17.341  67.552  0.00  0.00     0.048 H 
BRANCH  52  55
ATOM     55  C23 non d ame      -8.733  17.515  66.629  0.00  0.00     0.259 C 
ATOM     56  O7  non d ame      -8.076  17.433  65.642  0.00  0.00    -0.265 OA
BRANCH  55  57
ATOM     57  O8  non d ame      -8.104  17.569  67.904  0.00  0.00    -0.317 OA
BRANCH  57  58
ATOM     58  C29 non d ame      -8.391  18.759  68.645  0.00  0.00     0.052 C 
ATOM     59  H47 non d ame      -9.107  19.316  68.041  0.00  0.00     0.082 H 
ATOM     60  H48 non d ame      -8.665  18.424  69.645  0.00  0.00     0.082 H 
BRANCH  58  61
ATOM     61  C35 non d ame      -7.083  19.588  68.746  0.00  0.00    -0.034 A 
ATOM     62  C30 non d ame      -6.294  19.509  69.889  0.00  0.00    -0.075 A 
ATOM     63  C31 non d ame      -5.119  20.253  69.980  0.00  0.00    -0.082 A 
ATOM     64  H49 non d ame      -6.596  18.863  70.714  0.00  0.00     0.084 H 
ATOM     65  C32 non d ame      -4.735  21.082  68.922  0.00  0.00    -0.083 A 
ATOM     66  H50 non d ame      -4.502  20.187  70.876  0.00  0.00     0.083 H 
ATOM     67  C33 non d ame      -5.527  21.160  67.784  0.00  0.00    -0.082 A 
ATOM     68  H51 non d ame      -3.817  21.667  68.984  0.00  0.00     0.083 H 
ATOM     69  C34 non d ame      -6.700  20.416  67.689  0.00  0.00    -0.075 A 
ATOM     70  H52 non d ame      -5.225  21.809  66.962  0.00  0.00     0.083 H 
ATOM     71  H53 non d ame      -7.316  20.482  66.791  0.00  0.00     0.084 H 
ENDBRANCH  58  61
ENDBRANCH  57  58
ENDBRANCH  55  57
ENDBRANCH  52  55
ENDBRANCH  49  52
ENDBRANCH  47  49
BRANCH  47  72
ATOM     72  C24 non d ame     -10.316  14.188  64.779  0.00  0.00    -0.039 C 
ATOM     73  H35 non d ame     -10.870  14.727  64.010  0.00  0.00     0.036 H 
ATOM     74  H36 non d ame      -9.254  13.986  64.644  0.00  0.00     0.036 H 
BRANCH  72  75
ATOM     75  C25 non d ame     -11.044  12.776  64.984  0.00  0.00    -0.001 C 
ATOM     76  C26 non d ame      -9.932  11.565  64.969  0.00  0.00    -0.035 C 
ATOM     77  C27 non d ame     -10.329  10.618  64.086  0.00  0.00     0.085 C 
ATOM     78  H38 non d ame      -8.992  11.926  64.551  0.00  0.00     0.036 H 
ATOM     79  H39 non d ame      -9.937  11.040  65.925  0.00  0.00     0.036 H 
ATOM     80  N5  non d ame     -11.438  11.223  63.260  0.00  0.00    -0.049 N 
ATOM     81  H40 non d ame      -9.466  10.437  63.444  0.00  0.00     0.075 H 
ATOM     82  H41 non d ame     -10.738   9.809  64.691  0.00  0.00     0.075 H 
ATOM     83  C28 non d ame     -11.905  12.553  64.048  0.00  0.00     0.193 C 
ATOM     84  H42 non d ame     -11.023  11.499  62.381  0.00  0.00     0.280 HD
ATOM     85  H43 non d ame     -12.200  10.559  63.272  0.00  0.00     0.280 HD
ATOM     86  H44 non d ame     -12.830  12.560  64.623  0.00  0.00     0.129 H 
ATOM     87  H37 non d ame     -11.749  12.791  65.816  0.00  0.00     0.046 H 
BRANCH  83  88
ATOM     88  O6  non d ame     -12.011  13.652  63.141  0.00  0.00    -0.369 OA
ATOM     89  H45 non d ame     -12.927  13.930  63.081  0.00  0.00     0.212 HD
ENDBRANCH  83  88
ENDBRANCH  72  75
ENDBRANCH  47  72
ENDBRANCH  45  47
ENDBRANCH   1  43
BRANCH   1  90
ATOM     90  C16 non d ame     -12.134  14.684  70.680  0.00  0.00    -0.035 C 
ATOM     91  H21 non d ame     -11.348  14.348  71.357  0.00  0.00     0.037 H 
ATOM     92  H22 non d ame     -12.122  15.703  70.293  0.00  0.00     0.037 H 
BRANCH  90  93
ATOM     93  C17 non d ame     -13.482  14.522  71.453  0.00  0.00    -0.059 C 
ATOM     94  H23 non d ame     -14.290  14.564  70.723  0.00  0.00     0.038 H 
BRANCH  93  95
ATOM     95  C18 non d ame     -13.577  13.148  72.190  0.00  0.00    -0.073 C 
ATOM     96  H24 non d ame     -14.622  12.922  72.404  0.00  0.00     0.028 H 
ATOM     97  H25 non d ame     -13.158  12.366  71.556  0.00  0.00     0.028 H 
ATOM     98  H26 non d ame     -13.017  13.197  73.124  0.00  0.00     0.028 H 
ENDBRANCH  93  95
BRANCH  93  99
ATOM     99  C19 non d ame     -13.693  15.680  72.432  0.00  0.00    -0.073 C 
ATOM    100  H27 non d ame     -13.248  16.588  72.022  0.00  0.00     0.028 H 
ATOM    101  H28 non d ame     -14.761  15.836  72.585  0.00  0.00     0.028 H 
ATOM    102  H29 non d ame     -13.221  15.442  73.385  0.00  0.00     0.028 H 
ENDBRANCH  93  99
ENDBRANCH  90  93
ENDBRANCH   1  90
TORSDOF 26
ENDMDL
MODEL 2
REMARK VINA RESULT:      -6.9      2.114      2.944
REMARK  26 active torsions:
REMARK  status: ('A' for Active; 'I' for Inactive)
REMARK    1  A    between atoms: C2_2  and  C3_3 
REMARK    2  A    between atoms: C4_6  and  C5_7 
REMARK       I    between atoms: C5_7  and  N2_9 
REMARK    3  A    between atoms: N2_9  and  C6_10 
REMARK    4  A    between atoms: C6_10  and  C7_11 
REMARK    5  A    between atoms: C6_10  and  C8_13 
REMARK       I    between atoms: C7_11  and  N3_14 
REMARK    6  A    between atoms: N3_14  and  C9_15 
REMARK    7  A    between atoms: C9_15  and  C10_16 
REMARK    8  A    between atoms: C9_15  and  C11_18 
REMARK       I    between atoms: C10_16  and  N4_21 
REMARK    9  A    between atoms: C11_18  and  C12_19 
REMARK   10  A    between atoms: C11_18  and  C13_20 
REMARK   11  A    between atoms: N4_21  and  C14_22 
REMARK   12  A    between atoms: C14_22  and  C15_23 
REMARK   13  A    between atoms: C14_22  and  C16_25 
REMARK       I    between atoms: C15_23  and  N6_40 
REMARK   14  A    between atoms: C16_25  and  C17_26 
REMARK   15  A    between atoms: C17_26  and  C18_27 
REMARK   16  A    between atoms: C17_26  and  C19_28 
REMARK   17  A    between atoms: C20_29  and  C21_30 
REMARK   18  A    between atoms: C20_29  and  C24_33 
REMARK   19  A    between atoms: C20_29  and  N6_40 
REMARK   20  A    between atoms: C21_30  and  C22_31 
REMARK   21  A    between atoms: C22_31  and  C23_32 
REMARK   22  A    between atoms: C23_32  and  O8_43 
REMARK   23  A    between atoms: C24_33  and  C25_34 
REMARK   24  A    between atoms: C28_38  and  O6_39 
REMARK   25  A    between atoms: C29_42  and  O8_43 
REMARK   26  A    between atoms: C29_42  and  C35_49 
ROOT
ATOM      1  C14 non d ame     -11.876  14.313  70.215  0.00  0.00     0.089 C 
ATOM      2  H20 non d ame     -12.920  14.481  69.947  0.00  0.00     0.087 H 
ENDROOT
BRANCH   1   3
ATOM      3  N4  non d ame     -11.587  12.905  69.991  0.00  0.00    -0.346 N 
ATOM      4  C10 non d ame     -12.339  11.842  70.752  0.00  0.00     0.241 C 
ATOM      5  O4  non d ame     -13.172  12.145  71.542  0.00  0.00    -0.271 OA
ATOM      6  H19 non d ame     -10.873  12.668  69.316  0.00  0.00     0.163 HD
BRANCH   4   7
ATOM      7  C9  non d ame     -12.031  10.389  70.503  0.00  0.00     0.092 C 
ATOM      8  H11 non d ame     -12.551  10.061  69.603  0.00  0.00     0.088 H 
BRANCH   7   9
ATOM      9  N3  non d ame     -10.594  10.229  70.256  0.00  0.00    -0.346 N 
ATOM     10  C7  non d ame     -10.131   9.769  68.970  0.00  0.00     0.240 C 
ATOM     11  O3  non d ame     -10.901   9.522  68.123  0.00  0.00    -0.271 OA
ATOM     12  H10 non d ame      -9.919  10.437  70.978  0.00  0.00     0.163 HD
BRANCH  10  13
ATOM     13  C6  non d ame      -8.602   9.598  68.714  0.00  0.00     0.086 C 
ATOM     14  H6  non d ame      -8.265   8.570  68.846  0.00  0.00     0.086 H 
BRANCH  13  15
ATOM     15  N2  non d ame      -8.311   9.958  67.336  0.00  0.00    -0.343 N 
ATOM     16  C5  non d ame      -7.862   8.925  66.400  0.00  0.00     0.273 C 
ATOM     17  O2  non d ame      -7.735   7.808  66.766  0.00  0.00    -0.266 OA
ATOM     18  H5  non d ame      -8.420  10.915  67.032  0.00  0.00     0.163 HD
BRANCH  16  19
ATOM     19  C4  non d ame      -7.553   9.291  64.940  0.00  0.00     0.154 A 
ATOM     20  C1  non d ame      -8.324  10.132  64.078  0.00  0.00    -0.017 A 
ATOM     21  C2  non d ame      -7.617  10.146  62.855  0.00  0.00     0.077 A 
ATOM     22  H1  non d ame      -9.255  10.653  64.304  0.00  0.00     0.091 H 
ATOM     23  O1  non d ame      -6.564   9.398  63.008  0.00  0.00    -0.218 OA
ATOM     24  N1  non d ame      -6.504   8.888  64.217  0.00  0.00    -0.123 NA
BRANCH  21  25
ATOM     25  C3  non d ame      -8.014  10.898  61.591  0.00  0.00    -0.029 C 
ATOM     26  H2  non d ame      -7.289  11.688  61.395  0.00  0.00     0.036 H 
ATOM     27  H3  non d ame      -8.036  10.207  60.749  0.00  0.00     0.036 H 
ATOM     28  H4  non d ame      -9.003  11.337  61.726  0.00  0.00     0.036 H 
ENDBRANCH  21  25
ENDBRANCH  16  19
ENDBRANCH  13  15
BRANCH  13  29
ATOM     29  C8  non d ame      -7.830  10.488  69.654  0.00  0.00    -0.049 C 
ATOM     30  H7  non d ame      -6.930   9.971  69.988  0.00  0.00     0.030 H 
ATOM     31  H8  non d ame      -7.551  11.407  69.138  0.00  0.00     0.030 H 
ATOM     32  H9  non d ame      -8.450  10.730  70.517  0.00  0.00     0.030 H 
ENDBRANCH  13  29
ENDBRANCH  10  13
ENDBRANCH   7   9
BRANCH   7  33
ATOM     33  C11 non d ame     -12.436   9.552  71.752  0.00  0.00    -0.033 C 
ATOM     34  H12 non d ame     -12.582  10.245  72.579  0.00  0.00     0.042 H 
BRANCH  33  35
ATOM     35  C12 non d ame     -13.787   8.805  71.522  0.00  0.00    -0.071 C 
ATOM     36  H13 non d ame     -14.077   8.289  72.437  0.00  0.00     0.028 H 
ATOM     37  H14 non d ame     -14.558   9.526  71.251  0.00  0.00     0.028 H 
ATOM     38  H15 non d ame     -13.668   8.080  70.717  0.00  0.00     0.028 H 
ENDBRANCH  33  35
BRANCH  33  39
ATOM     39  C13 non d ame     -11.299   8.556  72.150  0.00  0.00    -0.071 C 
ATOM     40  H16 non d ame     -10.864   8.122  71.250  0.00  0.00     0.028 H 
ATOM     41  H17 non d ame     -10.528   9.089  72.706  0.00  0.00     0.028 H 
ATOM     42  H18 non d ame     -11.713   7.763  72.773  0.00  0.00     0.028 H 
ENDBRANCH  33  39
ENDBRANCH   7  33
ENDBRANCH   4   7
ENDBRANCH   1   3
BRANCH   1  43
ATOM     43  C15 non d ame     -10.903  15.163  69.349  0.00  0.00     0.240 C 
ATOM     44  O5  non d ame      -9.865  15.520  69.804  0.00  0.00    -0.271 OA
ATOM     45  N6  non d ame     -11.262  15.524  67.948  0.00  0.00    -0.355 N 
ATOM     46  H46 non d ame     -12.139  15.222  67.548  0.00  0.00     0.162 HD
BRANCH  45  47
ATOM     47  C20 non d ame     -10.325  16.331  67.136  0.00  0.00     0.013 C 
ATOM     48  H30 non d ame      -9.322  16.181  67.534  0.00  0.00     0.072 H 
BRANCH  47  49
ATOM     49  C21 non d ame     -10.707  17.791  67.236  0.00  0.00    -0.038 C 
ATOM     50  H31 non d ame     -11.789  17.821  67.105  0.00  0.00     0.036 H 
ATOM     51  H32 non d ame     -10.260  18.149  68.163  0.00  0.00     0.036 H 
BRANCH  49  52
ATOM     52  C22 non d ame     -10.105  18.647  66.101  0.00  0.00     0.018 C 
ATOM     53  H33 non d ame     -10.094  18.004  65.220  0.00  0.00     0.048 H 
ATOM     54  H34 non d ame     -10.680  19.573  66.093  0.00  0.00     0.048 H 
BRANCH  52  55
ATOM     55  C23 non d ame      -8.628  19.062  66.347  0.00  0.00     0.259 C 
ATOM     56  O7  non d ame      -7.767  18.688  65.618  0.00  0.00    -0.265 OA
BRANCH  55  57
ATOM     57  O8  non d ame      -8.312  19.887  67.462  0.00  0.00    -0.317 OA
BRANCH  57  58
ATOM     58  C29 non d ame      -6.979  20.405  67.444  0.00  0.00     0.052 C 
ATOM     59  H47 non d ame      -6.494  19.941  66.585  0.00  0.00     0.082 H 
ATOM     60  H48 non d ame      -7.082  21.488  67.492  0.00  0.00     0.082 H 
BRANCH  58  61
ATOM     61  C35 non d ame      -6.261  19.922  68.732  0.00  0.00    -0.034 A 
ATOM     62  C30 non d ame      -5.602  20.837  69.547  0.00  0.00    -0.075 A 
ATOM     63  C31 non d ame      -4.956  20.404  70.704  0.00  0.00    -0.082 A 
ATOM     64  H49 non d ame      -5.591  21.894  69.279  0.00  0.00     0.084 H 
ATOM     65  C32 non d ame      -4.970  19.048  71.045  0.00  0.00    -0.083 A 
ATOM     66  H50 non d ame      -4.443  21.124  71.342  0.00  0.00     0.083 H 
ATOM     67  C33 non d ame      -5.626  18.138  70.227  0.00  0.00    -0.082 A 
ATOM     68  H51 non d ame      -4.468  18.701  71.948  0.00  0.00     0.083 H 
ATOM     69  C34 non d ame      -6.274  18.567  69.071  0.00  0.00    -0.075 A 
ATOM     70  H52 non d ame      -5.633  17.081  70.494  0.00  0.00     0.083 H 
ATOM     71  H53 non d ame      -6.788  17.847  68.434  0.00  0.00     0.084 H 
ENDBRANCH  58  61
ENDBRANCH  57  58
ENDBRANCH  55  57
ENDBRANCH  52  55
ENDBRANCH  49  52
ENDBRANCH  47  49
BRANCH  47  72
ATOM     72  C24 non d ame     -10.389  15.886  65.677  0.00  0.00    -0.039 C 
ATOM     73  H35 non d ame     -10.745  16.755  65.124  0.00  0.00     0.036 H 
ATOM     74  H36 non d ame      -9.408  15.465  65.459  0.00  0.00     0.036 H 
BRANCH  72  75
ATOM     75  C25 non d ame     -11.464  14.717  65.461  0.00  0.00    -0.001 C 
ATOM     76  C26 non d ame     -10.692  13.286  65.214  0.00  0.00    -0.035 C 
ATOM     77  C27 non d ame     -11.187  12.712  64.091  0.00  0.00     0.085 C 
ATOM     78  H38 non d ame      -9.645  13.463  64.969  0.00  0.00     0.036 H 
ATOM     79  H39 non d ame     -10.956  12.578  66.000  0.00  0.00     0.036 H 
ATOM     80  N5  non d ame     -11.991  13.768  63.372  0.00  0.00    -0.049 N 
ATOM     81  H40 non d ame     -10.317  12.455  63.487  0.00  0.00     0.075 H 
ATOM     82  H41 non d ame     -11.861  11.928  64.438  0.00  0.00     0.075 H 
ATOM     83  C28 non d ame     -12.217  14.957  64.440  0.00  0.00     0.193 C 
ATOM     84  H42 non d ame     -11.405  14.114  62.625  0.00  0.00     0.280 HD
ATOM     85  H43 non d ame     -12.886  13.352  63.160  0.00  0.00     0.280 HD
ATOM     86  H44 non d ame     -13.182  15.084  64.932  0.00  0.00     0.129 H 
ATOM     87  H37 non d ame     -12.249  14.733  66.217  0.00  0.00     0.046 H 
BRANCH  83  88
ATOM     88  O6  non d ame     -11.925  16.221  63.841  0.00  0.00    -0.369 OA
ATOM     89  H45 non d ame     -11.940  16.132  62.885  0.00  0.00     0.212 HD
ENDBRANCH  83  88
ENDBRANCH  72  75
ENDBRANCH  47  72
ENDBRANCH  45  47
ENDBRANCH   1  43
BRANCH   1  90
ATOM     90  C16 non d ame     -11.665  14.635  71.686  0.00  0.00    -0.035 C 
ATOM     91  H21 non d ame     -11.831  13.696  72.214  0.00  0.00     0.037 H 
ATOM     92  H22 non d ame     -10.692  15.124  71.738  0.00  0.00     0.037 H 
BRANCH  90  93
ATOM     93  C17 non d ame     -12.702  15.653  72.260  0.00  0.00    -0.059 C 
ATOM     94  H23 non d ame     -12.422  16.645  71.905  0.00  0.00     0.038 H 
BRANCH  93  95
ATOM     95  C18 non d ame     -14.153  15.360  71.762  0.00  0.00    -0.073 C 
ATOM     96  H24 non d ame     -14.111  14.843  70.803  0.00  0.00     0.028 H 
ATOM     97  H25 non d ame     -14.667  14.733  72.490  0.00  0.00     0.028 H 
ATOM     98  H26 non d ame     -14.694  16.299  71.645  0.00  0.00     0.028 H 
ENDBRANCH  93  95
BRANCH  93  99
ATOM     99  C19 non d ame     -12.647  15.686  73.789  0.00  0.00    -0.073 C 
ATOM    100  H27 non d ame     -13.152  16.581  74.152  0.00  0.00     0.028 H 
ATOM    101  H28 non d ame     -13.143  14.801  74.189  0.00  0.00     0.028 H 
ATOM    102  H29 non d ame     -11.607  15.697  74.115  0.00  0.00     0.028 H 
ENDBRANCH  93  99
ENDBRANCH  90  93
ENDBRANCH   1  90
TORSDOF 26
ENDMDL
MODEL 3
REMARK VINA RESULT:      -6.8      3.009      6.453
REMARK  26 active torsions:
REMARK  status: ('A' for Active; 'I' for Inactive)
REMARK    1  A    between atoms: C2_2  and  C3_3 
REMARK    2  A    between atoms: C4_6  and  C5_7 
REMARK       I    between atoms: C5_7  and  N2_9 
REMARK    3  A    between atoms: N2_9  and  C6_10 
REMARK    4  A    between atoms: C6_10  and  C7_11 
REMARK    5  A    between atoms: C6_10  and  C8_13 
REMARK       I    between atoms: C7_11  and  N3_14 
REMARK    6  A    between atoms: N3_14  and  C9_15 
REMARK    7  A    between atoms: C9_15  and  C10_16 
REMARK    8  A    between atoms: C9_15  and  C11_18 
REMARK       I    between atoms: C10_16  and  N4_21 
REMARK    9  A    between atoms: C11_18  and  C12_19 
REMARK   10  A    between atoms: C11_18  and  C13_20 
REMARK   11  A    between atoms: N4_21  and  C14_22 
REMARK   12  A    between atoms: C14_22  and  C15_23 
REMARK   13  A    between atoms: C14_22  and  C16_25 
REMARK       I    between atoms: C15_23  and  N6_40 
REMARK   14  A    between atoms: C16_25  and  C17_26 
REMARK   15  A    between atoms: C17_26  and  C18_27 
REMARK   16  A    between atoms: C17_26  and  C19_28 
REMARK   17  A    between atoms: C20_29  and  C21_30 
REMARK   18  A    between atoms: C20_29  and  C24_33 
REMARK   19  A    between atoms: C20_29  and  N6_40 
REMARK   20  A    between atoms: C21_30  and  C22_31 
REMARK   21  A    between atoms: C22_31  and  C23_32 
REMARK   22  A    between atoms: C23_32  and  O8_43 
REMARK   23  A    between atoms: C24_33  and  C25_34 
REMARK   24  A    between atoms: C28_38  and  O6_39 
REMARK   25  A    between atoms: C29_42  and  O8_43 
REMARK   26  A    between atoms: C29_42  and  C35_49 
ROOT
ATOM      1  C14 non d ame     -10.684   9.418  69.205  0.00  0.00     0.089 C 
ATOM      2  H20 non d ame     -11.319   8.538  69.101  0.00  0.00     0.087 H 
ENDROOT
BRANCH   1   3
ATOM      3  N4  non d ame      -9.695   9.375  68.139  0.00  0.00    -0.346 N 
ATOM      4  C10 non d ame      -9.844   8.396  67.001  0.00  0.00     0.241 C 
ATOM      5  O4  non d ame     -10.767   7.651  66.968  0.00  0.00    -0.271 OA
ATOM      6  H19 non d ame      -8.916  10.016  68.187  0.00  0.00     0.163 HD
BRANCH   4   7
ATOM      7  C9  non d ame      -8.814   8.369  65.903  0.00  0.00     0.092 C 
ATOM      8  H11 non d ame      -9.240   8.808  65.001  0.00  0.00     0.088 H 
BRANCH   7   9
ATOM      9  N3  non d ame      -7.667   9.197  66.288  0.00  0.00    -0.346 N 
ATOM     10  C7  non d ame      -7.034  10.049  65.311  0.00  0.00     0.240 C 
ATOM     11  O3  non d ame      -7.434  10.080  64.212  0.00  0.00    -0.271 OA
ATOM     12  H10 non d ame      -7.309   9.179  67.232  0.00  0.00     0.163 HD
BRANCH  10  13
ATOM     13  C6  non d ame      -5.811  10.926  65.726  0.00  0.00     0.086 C 
ATOM     14  H6  non d ame      -5.873  11.944  65.342  0.00  0.00     0.086 H 
BRANCH  13  15
ATOM     15  N2  non d ame      -5.776  11.030  67.175  0.00  0.00    -0.343 N 
ATOM     16  C5  non d ame      -5.662  12.349  67.801  0.00  0.00     0.273 C 
ATOM     17  O2  non d ame      -5.597  13.320  67.130  0.00  0.00    -0.266 OA
ATOM     18  H5  non d ame      -5.830  10.195  67.741  0.00  0.00     0.163 HD
BRANCH  16  19
ATOM     19  C4  non d ame      -5.625  12.474  69.332  0.00  0.00     0.154 A 
ATOM     20  C1  non d ame      -5.337  13.649  70.097  0.00  0.00    -0.017 A 
ATOM     21  C2  non d ame      -5.432  13.237  71.445  0.00  0.00     0.077 A 
ATOM     22  H1  non d ame      -5.097  14.647  69.730  0.00  0.00     0.091 H 
ATOM     23  O1  non d ame      -5.740  11.973  71.443  0.00  0.00    -0.218 OA
ATOM     24  N1  non d ame      -5.858  11.506  70.222  0.00  0.00    -0.123 NA
BRANCH  21  25
ATOM     25  C3  non d ame      -5.214  14.112  72.672  0.00  0.00    -0.029 C 
ATOM     26  H2  non d ame      -4.713  13.533  73.448  0.00  0.00     0.036 H 
ATOM     27  H3  non d ame      -4.597  14.969  72.403  0.00  0.00     0.036 H 
ATOM     28  H4  non d ame      -6.177  14.462  73.045  0.00  0.00     0.036 H 
ENDBRANCH  21  25
ENDBRANCH  16  19
ENDBRANCH  13  15
BRANCH  13  29
ATOM     29  C8  non d ame      -4.540  10.291  65.222  0.00  0.00    -0.049 C 
ATOM     30  H7  non d ame      -4.644   9.206  65.240  0.00  0.00     0.030 H 
ATOM     31  H8  non d ame      -4.348  10.622  64.202  0.00  0.00     0.030 H 
ATOM     32  H9  non d ame      -3.709  10.585  65.863  0.00  0.00     0.030 H 
ENDBRANCH  13  29
ENDBRANCH  10  13
ENDBRANCH   7   9
BRANCH   7  33
ATOM     33  C11 non d ame      -8.339   6.904  65.674  0.00  0.00    -0.033 C 
ATOM     34  H12 non d ame      -9.167   6.245  65.935  0.00  0.00     0.042 H 
BRANCH  33  35
ATOM     35  C12 non d ame      -7.991   6.648  64.174  0.00  0.00    -0.071 C 
ATOM     36  H13 non d ame      -8.846   6.912  63.552  0.00  0.00     0.028 H 
ATOM     37  H14 non d ame      -7.133   7.258  63.891  0.00  0.00     0.028 H 
ATOM     38  H15 non d ame      -7.750   5.595  64.032  0.00  0.00     0.028 H 
ENDBRANCH  33  35
BRANCH  33  39
ATOM     39  C13 non d ame      -7.132   6.555  66.603  0.00  0.00    -0.071 C 
ATOM     40  H16 non d ame      -7.363   5.657  67.175  0.00  0.00     0.028 H 
ATOM     41  H17 non d ame      -6.244   6.381  65.995  0.00  0.00     0.028 H 
ATOM     42  H18 non d ame      -6.949   7.385  67.286  0.00  0.00     0.028 H 
ENDBRANCH  33  39
ENDBRANCH   7  33
ENDBRANCH   4   7
ENDBRANCH   1   3
BRANCH   1  43
ATOM     43  C15 non d ame     -11.492  10.742  69.079  0.00  0.00     0.240 C 
ATOM     44  O5  non d ame     -12.081  10.981  68.075  0.00  0.00    -0.271 OA
ATOM     45  N6  non d ame     -11.536  11.708  70.213  0.00  0.00    -0.355 N 
ATOM     46  H46 non d ame     -11.043  11.514  71.072  0.00  0.00     0.162 HD
BRANCH  45  47
ATOM     47  C20 non d ame     -12.309  12.962  70.078  0.00  0.00     0.013 C 
ATOM     48  H30 non d ame     -13.132  12.776  69.387  0.00  0.00     0.072 H 
BRANCH  47  49
ATOM     49  C21 non d ame     -11.410  14.047  69.529  0.00  0.00    -0.038 C 
ATOM     50  H31 non d ame     -11.475  14.871  70.240  0.00  0.00     0.036 H 
ATOM     51  H32 non d ame     -10.451  13.565  69.337  0.00  0.00     0.036 H 
BRANCH  49  52
ATOM     52  C22 non d ame     -11.899  14.601  68.173  0.00  0.00     0.018 C 
ATOM     53  H33 non d ame     -11.670  13.829  67.438  0.00  0.00     0.048 H 
ATOM     54  H34 non d ame     -12.932  14.910  68.335  0.00  0.00     0.048 H 
BRANCH  52  55
ATOM     55  C23 non d ame     -11.139  15.874  67.707  0.00  0.00     0.259 C 
ATOM     56  O7  non d ame     -11.121  16.849  68.386  0.00  0.00    -0.265 OA
BRANCH  55  57
ATOM     57  O8  non d ame     -10.474  15.867  66.449  0.00  0.00    -0.317 OA
BRANCH  57  58
ATOM     58  C29 non d ame      -9.574  14.768  66.273  0.00  0.00     0.052 C 
ATOM     59  H47 non d ame      -8.737  15.163  65.698  0.00  0.00     0.082 H 
ATOM     60  H48 non d ame      -9.407  14.361  67.269  0.00  0.00     0.082 H 
BRANCH  58  61
ATOM     61  C35 non d ame     -10.295  13.693  65.417  0.00  0.00    -0.034 A 
ATOM     62  C30 non d ame     -11.245  14.073  64.475  0.00  0.00    -0.075 A 
ATOM     63  C31 non d ame     -11.893  13.107  63.707  0.00  0.00    -0.082 A 
ATOM     64  H49 non d ame     -11.483  15.128  64.339  0.00  0.00     0.084 H 
ATOM     65  C32 non d ame     -11.588  11.754  63.884  0.00  0.00    -0.083 A 
ATOM     66  H50 non d ame     -12.635  13.408  62.968  0.00  0.00     0.083 H 
ATOM     67  C33 non d ame     -10.641  11.379  64.828  0.00  0.00    -0.082 A 
ATOM     68  H51 non d ame     -12.088  10.992  63.287  0.00  0.00     0.083 H 
ATOM     69  C34 non d ame      -9.990  12.342  65.596  0.00  0.00    -0.075 A 
ATOM     70  H52 non d ame     -10.407  10.323  64.965  0.00  0.00     0.083 H 
ATOM     71  H53 non d ame      -9.246  12.039  66.335  0.00  0.00     0.084 H 
ENDBRANCH  58  61
ENDBRANCH  57  58
ENDBRANCH  55  57
ENDBRANCH  52  55
ENDBRANCH  49  52
ENDBRANCH  47  49
BRANCH  47  72
ATOM     72  C24 non d ame     -12.847  13.387  71.442  0.00  0.00    -0.039 C 
ATOM     73  H35 non d ame     -13.901  13.106  71.440  0.00  0.00     0.036 H 
ATOM     74  H36 non d ame     -12.168  12.947  72.172  0.00  0.00     0.036 H 
BRANCH  72  75
ATOM     75  C25 non d ame     -12.783  14.976  71.636  0.00  0.00    -0.001 C 
ATOM     76  C26 non d ame     -11.878  15.344  72.958  0.00  0.00    -0.035 C 
ATOM     77  C27 non d ame     -12.584  16.185  73.750  0.00  0.00     0.085 C 
ATOM     78  H38 non d ame     -11.747  14.458  73.579  0.00  0.00     0.036 H 
ATOM     79  H39 non d ame     -11.011  15.937  72.665  0.00  0.00     0.036 H 
ATOM     80  N5  non d ame     -14.010  16.166  73.255  0.00  0.00    -0.049 N 
ATOM     81  H40 non d ame     -12.548  15.745  74.748  0.00  0.00     0.075 H 
ATOM     82  H41 non d ame     -12.160  17.174  73.576  0.00  0.00     0.075 H 
ATOM     83  C28 non d ame     -13.964  15.475  71.796  0.00  0.00     0.193 C 
ATOM     84  H42 non d ame     -14.522  15.562  73.881  0.00  0.00     0.280 HD
ATOM     85  H43 non d ame     -14.287  17.131  73.144  0.00  0.00     0.280 HD
ATOM     86  H44 non d ame     -14.047  16.081  70.894  0.00  0.00     0.129 H 
ATOM     87  H37 non d ame     -12.541  15.496  70.708  0.00  0.00     0.046 H 
BRANCH  83  88
ATOM     88  O6  non d ame     -14.987  14.485  71.688  0.00  0.00    -0.369 OA
ATOM     89  H45 non d ame     -14.595  13.611  71.753  0.00  0.00     0.212 HD
ENDBRANCH  83  88
ENDBRANCH  72  75
ENDBRANCH  47  72
ENDBRANCH  45  47
ENDBRANCH   1  43
BRANCH   1  90
ATOM     90  C16 non d ame      -9.970   9.382  70.547  0.00  0.00    -0.035 C 
ATOM     91  H21 non d ame      -8.926   9.169  70.312  0.00  0.00     0.037 H 
ATOM     92  H22 non d ame     -10.237  10.315  71.042  0.00  0.00     0.037 H 
BRANCH  90  93
ATOM     93  C17 non d ame     -10.455   8.230  71.484  0.00  0.00    -0.059 C 
ATOM     94  H23 non d ame      -9.726   8.129  72.288  0.00  0.00     0.038 H 
BRANCH  93  95
ATOM     95  C18 non d ame     -11.841   8.543  72.133  0.00  0.00    -0.073 C 
ATOM     96  H24 non d ame     -12.314   9.367  71.599  0.00  0.00     0.028 H 
ATOM     97  H25 non d ame     -12.477   7.660  72.076  0.00  0.00     0.028 H 
ATOM     98  H26 non d ame     -11.698   8.821  73.178  0.00  0.00     0.028 H 
ENDBRANCH  93  95
BRANCH  93  99
ATOM     99  C19 non d ame     -10.493   6.896  70.735  0.00  0.00    -0.073 C 
ATOM    100  H27 non d ame      -9.562   6.760  70.184  0.00  0.00     0.028 H 
ATOM    101  H28 non d ame     -10.614   6.081  71.450  0.00  0.00     0.028 H 
ATOM    102  H29 non d ame     -11.332   6.894  70.038  0.00  0.00     0.028 H 
ENDBRANCH  93  99
ENDBRANCH  90  93
ENDBRANCH   1  90
TORSDOF 26
ENDMDL
MODEL 4
REMARK VINA RESULT:      -6.6      2.940      7.800
REMARK  26 active torsions:
REMARK  status: ('A' for Active; 'I' for Inactive)
REMARK    1  A    between atoms: C2_2  and  C3_3 
REMARK    2  A    between atoms: C4_6  and  C5_7 
REMARK       I    between atoms: C5_7  and  N2_9 
REMARK    3  A    between atoms: N2_9  and  C6_10 
REMARK    4  A    between atoms: C6_10  and  C7_11 
REMARK    5  A    between atoms: C6_10  and  C8_13 
REMARK       I    between atoms: C7_11  and  N3_14 
REMARK    6  A    between atoms: N3_14  and  C9_15 
REMARK    7  A    between atoms: C9_15  and  C10_16 
REMARK    8  A    between atoms: C9_15  and  C11_18 
REMARK       I    between atoms: C10_16  and  N4_21 
REMARK    9  A    between atoms: C11_18  and  C12_19 
REMARK   10  A    between atoms: C11_18  and  C13_20 
REMARK   11  A    between atoms: N4_21  and  C14_22 
REMARK   12  A    between atoms: C14_22  and  C15_23 
REMARK   13  A    between atoms: C14_22  and  C16_25 
REMARK       I    between atoms: C15_23  and  N6_40 
REMARK   14  A    between atoms: C16_25  and  C17_26 
REMARK   15  A    between atoms: C17_26  and  C18_27 
REMARK   16  A    between atoms: C17_26  and  C19_28 
REMARK   17  A    between atoms: C20_29  and  C21_30 
REMARK   18  A    between atoms: C20_29  and  C24_33 
REMARK   19  A    between atoms: C20_29  and  N6_40 
REMARK   20  A    between atoms: C21_30  and  C22_31 
REMARK   21  A    between atoms: C22_31  and  C23_32 
REMARK   22  A    between atoms: C23_32  and  O8_43 
REMARK   23  A    between atoms: C24_33  and  C25_34 
REMARK   24  A    between atoms: C28_38  and  O6_39 
REMARK   25  A    between atoms: C29_42  and  O8_43 
REMARK   26  A    between atoms: C29_42  and  C35_49 
ROOT
ATOM      1  C14 non d ame      -9.957  12.028  65.369  0.00  0.00     0.089 C 
ATOM      2  H20 non d ame      -9.958  12.287  64.309  0.00  0.00     0.087 H 
ENDROOT
BRANCH   1   3
ATOM      3  N4  non d ame      -9.197  10.796  65.518  0.00  0.00    -0.346 N 
ATOM      4  C10 non d ame      -9.069   9.836  64.363  0.00  0.00     0.241 C 
ATOM      5  O4  non d ame      -9.588  10.075  63.323  0.00  0.00    -0.271 OA
ATOM      6  H19 non d ame      -8.765  10.610  66.412  0.00  0.00     0.163 HD
BRANCH   4   7
ATOM      7  C9  non d ame      -8.274   8.567  64.534  0.00  0.00     0.092 C 
ATOM      8  H11 non d ame      -7.393   8.775  65.141  0.00  0.00     0.088 H 
BRANCH   7   9
ATOM      9  N3  non d ame      -9.079   7.581  65.260  0.00  0.00    -0.346 N 
ATOM     10  C7  non d ame      -8.780   7.283  66.640  0.00  0.00     0.240 C 
ATOM     11  O3  non d ame      -7.896   7.828  67.180  0.00  0.00    -0.271 OA
ATOM     12  H10 non d ame      -9.844   7.102  64.807  0.00  0.00     0.163 HD
BRANCH  10  13
ATOM     13  C6  non d ame      -9.638   6.230  67.407  0.00  0.00     0.086 C 
ATOM     14  H6  non d ame      -9.239   5.219  67.323  0.00  0.00     0.086 H 
BRANCH  13  15
ATOM     15  N2  non d ame      -9.636   6.561  68.823  0.00  0.00    -0.343 N 
ATOM     16  C5  non d ame      -9.830   5.499  69.812  0.00  0.00     0.273 C 
ATOM     17  O2  non d ame      -9.990   4.382  69.459  0.00  0.00    -0.266 OA
ATOM     18  H5  non d ame      -9.502   7.518  69.115  0.00  0.00     0.163 HD
BRANCH  16  19
ATOM     19  C4  non d ame      -9.829   5.834  71.312  0.00  0.00     0.154 A 
ATOM     20  C1  non d ame      -8.815   6.532  72.041  0.00  0.00    -0.017 A 
ATOM     21  C2  non d ame      -9.290   6.579  73.370  0.00  0.00     0.077 A 
ATOM     22  H1  non d ame      -7.878   6.942  71.663  0.00  0.00     0.091 H 
ATOM     23  O1  non d ame     -10.443   5.977  73.391  0.00  0.00    -0.218 OA
ATOM     24  N1  non d ame     -10.779   5.533  72.202  0.00  0.00    -0.123 NA
BRANCH  21  25
ATOM     25  C3  non d ame      -8.583   7.217  74.559  0.00  0.00    -0.029 C 
ATOM     26  H2  non d ame      -8.443   8.282  74.370  0.00  0.00     0.036 H 
ATOM     27  H3  non d ame      -9.187   7.084  75.456  0.00  0.00     0.036 H 
ATOM     28  H4  non d ame      -7.611   6.743  74.702  0.00  0.00     0.036 H 
ENDBRANCH  21  25
ENDBRANCH  16  19
ENDBRANCH  13  15
BRANCH  13  29
ATOM     29  C8  non d ame     -11.049   6.243  66.876  0.00  0.00    -0.049 C 
ATOM     30  H7  non d ame     -11.032   6.096  65.796  0.00  0.00     0.030 H 
ATOM     31  H8  non d ame     -11.621   5.441  67.343  0.00  0.00     0.030 H 
ATOM     32  H9  non d ame     -11.514   7.202  67.104  0.00  0.00     0.030 H 
ENDBRANCH  13  29
ENDBRANCH  10  13
ENDBRANCH   7   9
BRANCH   7  33
ATOM     33  C11 non d ame      -7.899   7.998  63.134  0.00  0.00    -0.033 C 
ATOM     34  H12 non d ame      -8.611   8.401  62.414  0.00  0.00     0.042 H 
BRANCH  33  35
ATOM     35  C12 non d ame      -6.475   8.460  62.695  0.00  0.00    -0.071 C 
ATOM     36  H13 non d ame      -5.794   8.393  63.544  0.00  0.00     0.028 H 
ATOM     37  H14 non d ame      -6.117   7.818  61.891  0.00  0.00     0.028 H 
ATOM     38  H15 non d ame      -6.520   9.491  62.345  0.00  0.00     0.028 H 
ENDBRANCH  33  35
BRANCH  33  39
ATOM     39  C13 non d ame      -8.021   6.440  63.113  0.00  0.00    -0.071 C 
ATOM     40  H16 non d ame      -7.092   6.008  62.742  0.00  0.00     0.028 H 
ATOM     41  H17 non d ame      -8.212   6.077  64.124  0.00  0.00     0.028 H 
ATOM     42  H18 non d ame      -8.844   6.149  62.461  0.00  0.00     0.028 H 
ENDBRANCH  33  39
ENDBRANCH   7  33
ENDBRANCH   4   7
ENDBRANCH   1   3
BRANCH   1  43
ATOM     43  C15 non d ame      -9.289  13.130  66.241  0.00  0.00     0.240 C 
ATOM     44  O5  non d ame      -8.369  12.854  66.940  0.00  0.00    -0.271 OA
ATOM     45  N6  non d ame      -9.792  14.533  66.197  0.00  0.00    -0.355 N 
ATOM     46  H46 non d ame     -10.570  14.781  65.603  0.00  0.00     0.162 HD
BRANCH  45  47
ATOM     47  C20 non d ame      -9.146  15.569  67.031  0.00  0.00     0.013 C 
ATOM     48  H30 non d ame      -8.100  15.291  67.162  0.00  0.00     0.072 H 
BRANCH  47  49
ATOM     49  C21 non d ame      -9.836  15.631  68.375  0.00  0.00    -0.038 C 
ATOM     50  H31 non d ame      -9.325  14.901  69.002  0.00  0.00     0.036 H 
ATOM     51  H32 non d ame      -9.839  16.685  68.656  0.00  0.00     0.036 H 
BRANCH  49  52
ATOM     52  C22 non d ame     -11.315  15.193  68.310  0.00  0.00     0.018 C 
ATOM     53  H33 non d ame     -11.838  15.993  67.786  0.00  0.00     0.048 H 
ATOM     54  H34 non d ame     -11.306  14.184  67.895  0.00  0.00     0.048 H 
BRANCH  52  55
ATOM     55  C23 non d ame     -11.996  15.077  69.702  0.00  0.00     0.259 C 
ATOM     56  O7  non d ame     -12.339  16.052  70.289  0.00  0.00    -0.265 OA
BRANCH  55  57
ATOM     57  O8  non d ame     -12.194  13.790  70.276  0.00  0.00    -0.317 OA
BRANCH  57  58
ATOM     58  C29 non d ame     -11.790  12.708  69.433  0.00  0.00     0.052 C 
ATOM     59  H47 non d ame     -12.520  12.676  68.624  0.00  0.00     0.082 H 
ATOM     60  H48 non d ame     -10.738  12.884  69.210  0.00  0.00     0.082 H 
BRANCH  58  61
ATOM     61  C35 non d ame     -11.905  11.394  70.251  0.00  0.00    -0.034 A 
ATOM     62  C30 non d ame     -12.915  11.249  71.196  0.00  0.00    -0.075 A 
ATOM     63  C31 non d ame     -13.018  10.069  71.932  0.00  0.00    -0.082 A 
ATOM     64  H49 non d ame     -13.626  12.059  71.361  0.00  0.00     0.084 H 
ATOM     65  C32 non d ame     -12.104   9.033  71.721  0.00  0.00    -0.083 A 
ATOM     66  H50 non d ame     -13.812   9.957  72.670  0.00  0.00     0.083 H 
ATOM     67  C33 non d ame     -11.096   9.184  70.779  0.00  0.00    -0.082 A 
ATOM     68  H51 non d ame     -12.178   8.107  72.291  0.00  0.00     0.083 H 
ATOM     69  C34 non d ame     -10.990  10.361  70.040  0.00  0.00    -0.075 A 
ATOM     70  H52 non d ame     -10.383   8.375  70.618  0.00  0.00     0.083 H 
ATOM     71  H53 non d ame     -10.196  10.472  69.301  0.00  0.00     0.084 H 
ENDBRANCH  58  61
ENDBRANCH  57  58
ENDBRANCH  55  57
ENDBRANCH  52  55
ENDBRANCH  49  52
ENDBRANCH  47  49
BRANCH  47  72
ATOM     72  C24 non d ame      -9.251  16.928  66.341  0.00  0.00    -0.039 C 
ATOM     73  H35 non d ame      -8.505  16.908  65.546  0.00  0.00     0.036 H 
ATOM     74  H36 non d ame     -10.307  17.047  66.094  0.00  0.00     0.036 H 
BRANCH  72  75
ATOM     75  C25 non d ame      -8.859  18.126  67.328  0.00  0.00    -0.001 C 
ATOM     76  C26 non d ame     -10.170  19.083  67.596  0.00  0.00    -0.035 C 
ATOM     77  C27 non d ame      -9.825  20.372  67.359  0.00  0.00     0.085 C 
ATOM     78  H38 non d ame     -10.937  18.883  66.849  0.00  0.00     0.036 H 
ATOM     79  H39 non d ame     -10.426  19.079  68.655  0.00  0.00     0.036 H 
ATOM     80  N5  non d ame      -8.497  20.348  66.640  0.00  0.00    -0.049 N 
ATOM     81  H40 non d ame     -10.588  20.758  66.682  0.00  0.00     0.075 H 
ATOM     82  H41 non d ame      -9.689  20.822  68.341  0.00  0.00     0.075 H 
ATOM     83  C28 non d ame      -7.916  18.854  66.829  0.00  0.00     0.193 C 
ATOM     84  H42 non d ame      -8.699  20.494  65.661  0.00  0.00     0.280 HD
ATOM     85  H43 non d ame      -7.894  20.992  67.132  0.00  0.00     0.280 HD
ATOM     86  H44 non d ame      -7.115  18.657  67.542  0.00  0.00     0.129 H 
ATOM     87  H37 non d ame      -8.313  17.777  68.205  0.00  0.00     0.046 H 
BRANCH  83  88
ATOM     88  O6  non d ame      -7.448  18.346  65.579  0.00  0.00    -0.369 OA
ATOM     89  H45 non d ame      -7.180  19.076  65.017  0.00  0.00     0.212 HD
ENDBRANCH  83  88
ENDBRANCH  72  75
ENDBRANCH  47  72
ENDBRANCH  45  47
ENDBRANCH   1  43
BRANCH   1  90
ATOM     90  C16 non d ame     -11.382  11.794  65.844  0.00  0.00    -0.035 C 
ATOM     91  H21 non d ame     -11.535  10.717  65.777  0.00  0.00     0.037 H 
ATOM     92  H22 non d ame     -11.450  12.295  66.810  0.00  0.00     0.037 H 
BRANCH  90  93
ATOM     93  C17 non d ame     -12.463  12.451  64.928  0.00  0.00    -0.059 C 
ATOM     94  H23 non d ame     -13.325  11.784  64.904  0.00  0.00     0.038 H 
BRANCH  93  95
ATOM     95  C18 non d ame     -12.944  13.831  65.482  0.00  0.00    -0.073 C 
ATOM     96  H24 non d ame     -12.082  14.477  65.643  0.00  0.00     0.028 H 
ATOM     97  H25 non d ame     -13.618  14.296  64.762  0.00  0.00     0.028 H 
ATOM     98  H26 non d ame     -13.469  13.681  66.426  0.00  0.00     0.028 H 
ENDBRANCH  93  95
BRANCH  93  99
ATOM     99  C19 non d ame     -11.953  12.588  63.492  0.00  0.00    -0.073 C 
ATOM    100  H27 non d ame     -11.274  11.766  63.267  0.00  0.00     0.028 H 
ATOM    101  H28 non d ame     -12.798  12.561  62.802  0.00  0.00     0.028 H 
ATOM    102  H29 non d ame     -11.426  13.536  63.382  0.00  0.00     0.028 H 
ENDBRANCH  93  99
ENDBRANCH  90  93
ENDBRANCH   1  90
TORSDOF 26
ENDMDL
MODEL 5
REMARK VINA RESULT:      -6.6      2.984      8.557
REMARK  26 active torsions:
REMARK  status: ('A' for Active; 'I' for Inactive)
REMARK    1  A    between atoms: C2_2  and  C3_3 
REMARK    2  A    between atoms: C4_6  and  C5_7 
REMARK       I    between atoms: C5_7  and  N2_9 
REMARK    3  A    between atoms: N2_9  and  C6_10 
REMARK    4  A    between atoms: C6_10  and  C7_11 
REMARK    5  A    between atoms: C6_10  and  C8_13 
REMARK       I    between atoms: C7_11  and  N3_14 
REMARK    6  A    between atoms: N3_14  and  C9_15 
REMARK    7  A    between atoms: C9_15  and  C10_16 
REMARK    8  A    between atoms: C9_15  and  C11_18 
REMARK       I    between atoms: C10_16  and  N4_21 
REMARK    9  A    between atoms: C11_18  and  C12_19 
REMARK   10  A    between atoms: C11_18  and  C13_20 
REMARK   11  A    between atoms: N4_21  and  C14_22 
REMARK   12  A    between atoms: C14_22  and  C15_23 
REMARK   13  A    between atoms: C14_22  and  C16_25 
REMARK       I    between atoms: C15_23  and  N6_40 
REMARK   14  A    between atoms: C16_25  and  C17_26 
REMARK   15  A    between atoms: C17_26  and  C18_27 
REMARK   16  A    between atoms: C17_26  and  C19_28 
REMARK   17  A    between atoms: C20_29  and  C21_30 
REMARK   18  A    between atoms: C20_29  and  C24_33 
REMARK   19  A    between atoms: C20_29  and  N6_40 
REMARK   20  A    between atoms: C21_30  and  C22_31 
REMARK   21  A    between atoms: C22_31  and  C23_32 
REMARK   22  A    between atoms: C23_32  and  O8_43 
REMARK   23  A    between atoms: C24_33  and  C25_34 
REMARK   24  A    between atoms: C28_38  and  O6_39 
REMARK   25  A    between atoms: C29_42  and  O8_43 
REMARK   26  A    between atoms: C29_42  and  C35_49 
ROOT
ATOM      1  C14 non d ame      -9.029   6.937  66.285  0.00  0.00     0.089 C 
ATOM      2  H20 non d ame      -9.363   6.441  65.373  0.00  0.00     0.087 H 
ENDROOT
BRANCH   1   3
ATOM      3  N4  non d ame      -8.571   8.268  65.916  0.00  0.00    -0.346 N 
ATOM      4  C10 non d ame      -8.131   8.558  64.503  0.00  0.00     0.241 C 
ATOM      5  O4  non d ame      -8.152   7.703  63.681  0.00  0.00    -0.271 OA
ATOM      6  H19 non d ame      -8.558   8.981  66.632  0.00  0.00     0.163 HD
BRANCH   4   7
ATOM      7  C9  non d ame      -7.664   9.943  64.138  0.00  0.00     0.092 C 
ATOM      8  H11 non d ame      -7.635  10.037  63.053  0.00  0.00     0.088 H 
BRANCH   7   9
ATOM      9  N3  non d ame      -8.628  10.930  64.633  0.00  0.00    -0.346 N 
ATOM     10  C7  non d ame      -9.757  11.307  63.818  0.00  0.00     0.240 C 
ATOM     11  O3  non d ame      -9.904  10.826  62.761  0.00  0.00    -0.271 OA
ATOM     12  H10 non d ame      -8.514  11.355  65.543  0.00  0.00     0.163 HD
BRANCH  10  13
ATOM     13  C6  non d ame     -10.778  12.360  64.349  0.00  0.00     0.086 C 
ATOM     14  H6  non d ame     -11.182  12.101  65.327  0.00  0.00     0.086 H 
BRANCH  13  15
ATOM     15  N2  non d ame     -10.101  13.637  64.504  0.00  0.00    -0.343 N 
ATOM     16  C5  non d ame     -10.392  14.471  65.672  0.00  0.00     0.273 C 
ATOM     17  O2  non d ame     -11.175  14.107  66.479  0.00  0.00    -0.266 OA
ATOM     18  H5  non d ame      -9.435  13.941  63.808  0.00  0.00     0.163 HD
BRANCH  16  19
ATOM     19  C4  non d ame      -9.682  15.822  65.850  0.00  0.00     0.154 A 
ATOM     20  C1  non d ame      -8.342  16.042  66.301  0.00  0.00    -0.017 A 
ATOM     21  C2  non d ame      -8.179  17.445  66.287  0.00  0.00     0.077 A 
ATOM     22  H1  non d ame      -7.601  15.297  66.594  0.00  0.00     0.091 H 
ATOM     23  O1  non d ame      -9.300  17.961  65.873  0.00  0.00    -0.218 OA
ATOM     24  N1  non d ame     -10.192  17.034  65.612  0.00  0.00    -0.123 NA
BRANCH  21  25
ATOM     25  C3  non d ame      -6.924  18.211  66.682  0.00  0.00    -0.029 C 
ATOM     26  H2  non d ame      -7.103  18.747  67.614  0.00  0.00     0.036 H 
ATOM     27  H3  non d ame      -6.099  17.511  66.818  0.00  0.00     0.036 H 
ATOM     28  H4  non d ame      -6.670  18.923  65.897  0.00  0.00     0.036 H 
ENDBRANCH  21  25
ENDBRANCH  16  19
ENDBRANCH  13  15
BRANCH  13  29
ATOM     29  C8  non d ame     -11.918  12.496  63.372  0.00  0.00    -0.049 C 
ATOM     30  H7  non d ame     -12.787  12.911  63.882  0.00  0.00     0.030 H 
ATOM     31  H8  non d ame     -11.623  13.160  62.559  0.00  0.00     0.030 H 
ATOM     32  H9  non d ame     -12.169  11.515  62.968  0.00  0.00     0.030 H 
ENDBRANCH  13  29
ENDBRANCH  10  13
ENDBRANCH   7   9
BRANCH   7  33
ATOM     33  C11 non d ame      -6.274  10.210  64.786  0.00  0.00    -0.033 C 
ATOM     34  H12 non d ame      -5.754  10.937  64.162  0.00  0.00     0.042 H 
BRANCH  33  35
ATOM     35  C12 non d ame      -6.421  10.834  66.209  0.00  0.00    -0.071 C 
ATOM     36  H13 non d ame      -5.741  11.681  66.306  0.00  0.00     0.028 H 
ATOM     37  H14 non d ame      -7.446  11.173  66.353  0.00  0.00     0.028 H 
ATOM     38  H15 non d ame      -6.177  10.084  66.961  0.00  0.00     0.028 H 
ENDBRANCH  33  35
BRANCH  33  39
ATOM     39  C13 non d ame      -5.416   8.905  64.826  0.00  0.00    -0.071 C 
ATOM     40  H16 non d ame      -6.070   8.043  64.956  0.00  0.00     0.028 H 
ATOM     41  H17 non d ame      -4.864   8.804  63.890  0.00  0.00     0.028 H 
ATOM     42  H18 non d ame      -4.714   8.957  65.658  0.00  0.00     0.028 H 
ENDBRANCH  33  39
ENDBRANCH   7  33
ENDBRANCH   4   7
ENDBRANCH   1   3
BRANCH   1  43
ATOM     43  C15 non d ame     -10.174   7.079  67.329  0.00  0.00     0.240 C 
ATOM     44  O5  non d ame     -11.303   6.919  66.993  0.00  0.00    -0.271 OA
ATOM     45  N6  non d ame      -9.861   7.406  68.749  0.00  0.00    -0.355 N 
ATOM     46  H46 non d ame      -8.906   7.540  69.047  0.00  0.00     0.162 HD
BRANCH  45  47
ATOM     47  C20 non d ame     -10.961   7.536  69.730  0.00  0.00     0.013 C 
ATOM     48  H30 non d ame     -11.830   7.938  69.209  0.00  0.00     0.072 H 
BRANCH  47  49
ATOM     49  C21 non d ame     -10.538   8.481  70.832  0.00  0.00    -0.038 C 
ATOM     50  H31 non d ame     -10.898   8.032  71.759  0.00  0.00     0.036 H 
ATOM     51  H32 non d ame      -9.470   8.645  70.685  0.00  0.00     0.036 H 
BRANCH  49  52
ATOM     52  C22 non d ame     -11.212   9.866  70.727  0.00  0.00     0.018 C 
ATOM     53  H33 non d ame     -10.488  10.578  71.121  0.00  0.00     0.048 H 
ATOM     54  H34 non d ame     -11.553   9.950  69.694  0.00  0.00     0.048 H 
BRANCH  52  55
ATOM     55  C23 non d ame     -12.482  10.013  71.610  0.00  0.00     0.259 C 
ATOM     56  O7  non d ame     -12.960   9.064  72.142  0.00  0.00    -0.265 OA
BRANCH  55  57
ATOM     57  O8  non d ame     -13.077  11.295  71.766  0.00  0.00    -0.317 OA
BRANCH  57  58
ATOM     58  C29 non d ame     -12.715  12.233  70.749  0.00  0.00     0.052 C 
ATOM     59  H47 non d ame     -11.725  11.931  70.408  0.00  0.00     0.082 H 
ATOM     60  H48 non d ame     -13.551  12.248  70.050  0.00  0.00     0.082 H 
BRANCH  58  61
ATOM     61  C35 non d ame     -12.601  13.634  71.408  0.00  0.00    -0.034 A 
ATOM     62  C30 non d ame     -11.805  14.615  70.825  0.00  0.00    -0.075 A 
ATOM     63  C31 non d ame     -11.702  15.873  71.417  0.00  0.00    -0.082 A 
ATOM     64  H49 non d ame     -11.262  14.398  69.905  0.00  0.00     0.084 H 
ATOM     65  C32 non d ame     -12.398  16.148  72.598  0.00  0.00    -0.083 A 
ATOM     66  H50 non d ame     -11.080  16.640  70.957  0.00  0.00     0.083 H 
ATOM     67  C33 non d ame     -13.188  15.164  73.177  0.00  0.00    -0.082 A 
ATOM     68  H51 non d ame     -12.324  17.129  73.066  0.00  0.00     0.083 H 
ATOM     69  C34 non d ame     -13.295  13.906  72.588  0.00  0.00    -0.075 A 
ATOM     70  H52 non d ame     -13.728  15.381  74.100  0.00  0.00     0.083 H 
ATOM     71  H53 non d ame     -13.919  13.140  73.049  0.00  0.00     0.084 H 
ENDBRANCH  58  61
ENDBRANCH  57  58
ENDBRANCH  55  57
ENDBRANCH  52  55
ENDBRANCH  49  52
ENDBRANCH  47  49
BRANCH  47  72
ATOM     72  C24 non d ame     -11.285   6.168  70.327  0.00  0.00    -0.039 C 
ATOM     73  H35 non d ame     -11.880   6.374  71.217  0.00  0.00     0.036 H 
ATOM     74  H36 non d ame     -11.712   5.588  69.508  0.00  0.00     0.036 H 
BRANCH  72  75
ATOM     75  C25 non d ame      -9.963   5.403  70.809  0.00  0.00    -0.001 C 
ATOM     76  C26 non d ame      -9.696   4.090  69.855  0.00  0.00    -0.035 C 
ATOM     77  C27 non d ame      -9.519   3.005  70.647  0.00  0.00     0.085 C 
ATOM     78  H38 non d ame     -10.596   3.850  69.291  0.00  0.00     0.036 H 
ATOM     79  H39 non d ame      -8.740   4.189  69.341  0.00  0.00     0.036 H 
ATOM     80  N5  non d ame      -9.964   3.395  72.036  0.00  0.00    -0.049 N 
ATOM     81  H40 non d ame     -10.198   2.246  70.256  0.00  0.00     0.075 H 
ATOM     82  H41 non d ame      -8.445   2.824  70.656  0.00  0.00     0.075 H 
ATOM     83  C28 non d ame     -10.072   5.005  72.032  0.00  0.00     0.193 C 
ATOM     84  H42 non d ame     -10.890   3.010  72.158  0.00  0.00     0.280 HD
ATOM     85  H43 non d ame      -9.219   3.124  72.661  0.00  0.00     0.280 HD
ATOM     86  H44 non d ame      -9.303   5.613  72.508  0.00  0.00     0.129 H 
ATOM     87  H37 non d ame      -9.124   6.084  70.961  0.00  0.00     0.046 H 
BRANCH  83  88
ATOM     88  O6  non d ame     -11.305   5.418  72.624  0.00  0.00    -0.369 OA
ATOM     89  H45 non d ame     -11.286   5.231  73.565  0.00  0.00     0.212 HD
ENDBRANCH  83  88
ENDBRANCH  72  75
ENDBRANCH  47  72
ENDBRANCH  45  47
ENDBRANCH   1  43
BRANCH   1  90
ATOM     90  C16 non d ame      -7.872   6.165  66.897  0.00  0.00    -0.035 C 
ATOM     91  H21 non d ame      -6.977   6.730  66.633  0.00  0.00     0.037 H 
ATOM     92  H22 non d ame      -8.139   6.027  67.945  0.00  0.00     0.037 H 
BRANCH  90  93
ATOM     93  C17 non d ame      -7.684   4.736  66.297  0.00  0.00    -0.059 C 
ATOM     94  H23 non d ame      -7.285   4.850  65.289  0.00  0.00     0.038 H 
BRANCH  93  95
ATOM     95  C18 non d ame      -6.667   3.880  67.118  0.00  0.00    -0.073 C 
ATOM     96  H24 non d ame      -5.726   4.422  67.207  0.00  0.00     0.028 H 
ATOM     97  H25 non d ame      -7.073   3.689  68.112  0.00  0.00     0.028 H 
ATOM     98  H26 non d ame      -6.495   2.932  66.608  0.00  0.00     0.028 H 
ENDBRANCH  93  95
BRANCH  93  99
ATOM     99  C19 non d ame      -9.029   4.014  66.174  0.00  0.00    -0.073 C 
ATOM    100  H27 non d ame      -9.139   3.619  65.163  0.00  0.00     0.028 H 
ATOM    101  H28 non d ame      -9.067   3.193  66.891  0.00  0.00     0.028 H 
ATOM    102  H29 non d ame      -9.838   4.715  66.381  0.00  0.00     0.028 H 
ENDBRANCH  93  99
ENDBRANCH  90  93
ENDBRANCH   1  90
TORSDOF 26
ENDMDL
MODEL 6
REMARK VINA RESULT:      -6.5      3.025      8.411
REMARK  26 active torsions:
REMARK  status: ('A' for Active; 'I' for Inactive)
REMARK    1  A    between atoms: C2_2  and  C3_3 
REMARK    2  A    between atoms: C4_6  and  C5_7 
REMARK       I    between atoms: C5_7  and  N2_9 
REMARK    3  A    between atoms: N2_9  and  C6_10 
REMARK    4  A    between atoms: C6_10  and  C7_11 
REMARK    5  A    between atoms: C6_10  and  C8_13 
REMARK       I    between atoms: C7_11  and  N3_14 
REMARK    6  A    between atoms: N3_14  and  C9_15 
REMARK    7  A    between atoms: C9_15  and  C10_16 
REMARK    8  A    between atoms: C9_15  and  C11_18 
REMARK       I    between atoms: C10_16  and  N4_21 
REMARK    9  A    between atoms: C11_18  and  C12_19 
REMARK   10  A    between atoms: C11_18  and  C13_20 
REMARK   11  A    between atoms: N4_21  and  C14_22 
REMARK   12  A    between atoms: C14_22  and  C15_23 
REMARK   13  A    between atoms: C14_22  and  C16_25 
REMARK       I    between atoms: C15_23  and  N6_40 
REMARK   14  A    between atoms: C16_25  and  C17_26 
REMARK   15  A    between atoms: C17_26  and  C18_27 
REMARK   16  A    between atoms: C17_26  and  C19_28 
REMARK   17  A    between atoms: C20_29  and  C21_30 
REMARK   18  A    between atoms: C20_29  and  C24_33 
REMARK   19  A    between atoms: C20_29  and  N6_40 
REMARK   20  A    between atoms: C21_30  and  C22_31 
REMARK   21  A    between atoms: C22_31  and  C23_32 
REMARK   22  A    between atoms: C23_32  and  O8_43 
REMARK   23  A    between atoms: C24_33  and  C25_34 
REMARK   24  A    between atoms: C28_38  and  O6_39 
REMARK   25  A    between atoms: C29_42  and  O8_43 
REMARK   26  A    between atoms: C29_42  and  C35_49 
ROOT
ATOM      1  C14 non d ame     -11.205  15.421  70.429  0.00  0.00     0.089 C 
ATOM      2  H20 non d ame     -10.322  15.058  70.954  0.00  0.00     0.087 H 
ENDROOT
BRANCH   1   3
ATOM      3  N4  non d ame     -10.827  16.637  69.724  0.00  0.00    -0.346 N 
ATOM      4  C10 non d ame      -9.436  16.791  69.163  0.00  0.00     0.241 C 
ATOM      5  O4  non d ame      -8.637  15.923  69.293  0.00  0.00    -0.271 OA
ATOM      6  H19 non d ame     -11.521  17.365  69.626  0.00  0.00     0.163 HD
BRANCH   4   7
ATOM      7  C9  non d ame      -9.063  18.054  68.432  0.00  0.00     0.092 C 
ATOM      8  H11 non d ame      -9.166  18.903  69.107  0.00  0.00     0.088 H 
BRANCH   7   9
ATOM      9  N3  non d ame      -7.655  17.988  68.028  0.00  0.00    -0.346 N 
ATOM     10  C7  non d ame      -6.694  18.886  68.620  0.00  0.00     0.240 C 
ATOM     11  O3  non d ame      -7.036  19.668  69.420  0.00  0.00    -0.271 OA
ATOM     12  H10 non d ame      -7.346  17.320  67.338  0.00  0.00     0.163 HD
BRANCH  10  13
ATOM     13  C6  non d ame      -5.198  18.814  68.184  0.00  0.00     0.086 C 
ATOM     14  H6  non d ame      -4.787  17.807  68.253  0.00  0.00     0.086 H 
BRANCH  13  15
ATOM     15  N2  non d ame      -5.093  19.211  66.790  0.00  0.00    -0.343 N 
ATOM     16  C5  non d ame      -5.067  18.183  65.747  0.00  0.00     0.273 C 
ATOM     17  O2  non d ame      -5.129  17.040  66.040  0.00  0.00    -0.266 OA
ATOM     18  H5  non d ame      -5.038  20.191  66.549  0.00  0.00     0.163 HD
BRANCH  16  19
ATOM     19  C4  non d ame      -4.958  18.589  64.269  0.00  0.00     0.154 A 
ATOM     20  C1  non d ame      -5.793  19.512  63.562  0.00  0.00    -0.017 A 
ATOM     21  C2  non d ame      -5.279  19.532  62.246  0.00  0.00     0.077 A 
ATOM     22  H1  non d ame      -6.640  20.080  63.945  0.00  0.00     0.091 H 
ATOM     23  O1  non d ame      -4.268  18.714  62.212  0.00  0.00    -0.218 OA
ATOM     24  N1  non d ame      -4.061  18.151  63.380  0.00  0.00    -0.123 NA
BRANCH  21  25
ATOM     25  C3  non d ame      -5.811  20.358  61.082  0.00  0.00    -0.029 C 
ATOM     26  H2  non d ame      -6.438  19.732  60.448  0.00  0.00     0.036 H 
ATOM     27  H3  non d ame      -6.400  21.190  61.468  0.00  0.00     0.036 H 
ATOM     28  H4  non d ame      -4.975  20.745  60.499  0.00  0.00     0.036 H 
ENDBRANCH  21  25
ENDBRANCH  16  19
ENDBRANCH  13  15
BRANCH  13  29
ATOM     29  C8  non d ame      -4.375  19.736  69.047  0.00  0.00    -0.049 C 
ATOM     30  H7  non d ame      -3.322  19.464  68.970  0.00  0.00     0.030 H 
ATOM     31  H8  non d ame      -4.510  20.764  68.712  0.00  0.00     0.030 H 
ATOM     32  H9  non d ame      -4.697  19.646  70.084  0.00  0.00     0.030 H 
ENDBRANCH  13  29
ENDBRANCH  10  13
ENDBRANCH   7   9
BRANCH   7  33
ATOM     33  C11 non d ame      -9.956  18.202  67.165  0.00  0.00    -0.033 C 
ATOM     34  H12 non d ame     -10.995  18.208  67.494  0.00  0.00     0.042 H 
BRANCH  33  35
ATOM     35  C12 non d ame      -9.688  19.556  66.436  0.00  0.00    -0.071 C 
ATOM     36  H13 non d ame      -9.519  20.339  67.175  0.00  0.00     0.028 H 
ATOM     37  H14 non d ame      -8.806  19.458  65.803  0.00  0.00     0.028 H 
ATOM     38  H15 non d ame     -10.550  19.814  65.822  0.00  0.00     0.028 H 
ENDBRANCH  33  35
BRANCH  33  39
ATOM     39  C13 non d ame      -9.763  16.990  66.199  0.00  0.00    -0.071 C 
ATOM     40  H16 non d ame     -10.091  17.267  65.197  0.00  0.00     0.028 H 
ATOM     41  H17 non d ame      -8.709  16.711  66.172  0.00  0.00     0.028 H 
ATOM     42  H18 non d ame     -10.353  16.145  66.554  0.00  0.00     0.028 H 
ENDBRANCH  33  39
ENDBRANCH   7  33
ENDBRANCH   4   7
ENDBRANCH   1   3
BRANCH   1  43
ATOM     43  C15 non d ame     -11.735  14.391  69.390  0.00  0.00     0.240 C 
ATOM     44  O5  non d ame     -12.522  14.733  68.567  0.00  0.00    -0.271 OA
ATOM     45  N6  non d ame     -11.255  12.980  69.416  0.00  0.00    -0.355 N 
ATOM     46  H46 non d ame     -10.583  12.679  70.107  0.00  0.00     0.162 HD
BRANCH  45  47
ATOM     47  C20 non d ame     -11.767  12.014  68.420  0.00  0.00     0.013 C 
ATOM     48  H30 non d ame     -12.746  12.360  68.089  0.00  0.00     0.072 H 
BRANCH  47  49
ATOM     49  C21 non d ame     -11.892  10.651  69.065  0.00  0.00    -0.038 C 
ATOM     50  H31 non d ame     -12.921  10.337  68.893  0.00  0.00     0.036 H 
ATOM     51  H32 non d ame     -11.067  10.061  68.666  0.00  0.00     0.036 H 
BRANCH  49  52
ATOM     52  C22 non d ame     -11.698  10.693  70.596  0.00  0.00     0.018 C 
ATOM     53  H33 non d ame     -10.667  10.387  70.772  0.00  0.00     0.048 H 
ATOM     54  H34 non d ame     -12.035  11.682  70.910  0.00  0.00     0.048 H 
BRANCH  52  55
ATOM     55  C23 non d ame     -12.584   9.675  71.367  0.00  0.00     0.259 C 
ATOM     56  O7  non d ame     -13.428  10.054  72.112  0.00  0.00    -0.265 OA
BRANCH  55  57
ATOM     57  O8  non d ame     -12.366   8.282  71.183  0.00  0.00    -0.317 OA
BRANCH  57  58
ATOM     58  C29 non d ame     -10.997   7.885  71.310  0.00  0.00     0.052 C 
ATOM     59  H47 non d ame     -10.447   8.795  71.548  0.00  0.00     0.082 H 
ATOM     60  H48 non d ame     -10.996   7.049  72.009  0.00  0.00     0.082 H 
BRANCH  58  61
ATOM     61  C35 non d ame     -10.518   7.368  69.927  0.00  0.00    -0.034 A 
ATOM     62  C30 non d ame      -9.358   7.882  69.355  0.00  0.00    -0.075 A 
ATOM     63  C31 non d ame      -8.928   7.418  68.113  0.00  0.00    -0.082 A 
ATOM     64  H49 non d ame      -8.787   8.647  69.881  0.00  0.00     0.084 H 
ATOM     65  C32 non d ame      -9.663   6.439  67.441  0.00  0.00    -0.083 A 
ATOM     66  H50 non d ame      -8.017   7.821  67.669  0.00  0.00     0.083 H 
ATOM     67  C33 non d ame     -10.822   5.932  68.014  0.00  0.00    -0.082 A 
ATOM     68  H51 non d ame      -9.333   6.070  66.469  0.00  0.00     0.083 H 
ATOM     69  C34 non d ame     -11.254   6.390  69.256  0.00  0.00    -0.075 A 
ATOM     70  H52 non d ame     -11.394   5.169  67.485  0.00  0.00     0.083 H 
ATOM     71  H53 non d ame     -12.165   5.987  69.700  0.00  0.00     0.084 H 
ENDBRANCH  58  61
ENDBRANCH  57  58
ENDBRANCH  55  57
ENDBRANCH  52  55
ENDBRANCH  49  52
ENDBRANCH  47  49
BRANCH  47  72
ATOM     72  C24 non d ame     -10.805  11.932  67.237  0.00  0.00    -0.039 C 
ATOM     73  H35 non d ame      -9.839  12.252  67.626  0.00  0.00     0.036 H 
ATOM     74  H36 non d ame     -10.924  10.926  66.835  0.00  0.00     0.036 H 
BRANCH  72  75
ATOM     75  C25 non d ame     -11.209  12.956  66.073  0.00  0.00    -0.001 C 
ATOM     76  C26 non d ame     -12.060  12.170  64.906  0.00  0.00    -0.035 C 
ATOM     77  C27 non d ame     -11.498  12.435  63.703  0.00  0.00     0.085 C 
ATOM     78  H38 non d ame     -11.936  11.093  65.014  0.00  0.00     0.036 H 
ATOM     79  H39 non d ame     -13.060  12.597  64.820  0.00  0.00     0.036 H 
ATOM     80  N5  non d ame     -10.152  13.062  63.973  0.00  0.00    -0.049 N 
ATOM     81  H40 non d ame     -11.350  11.464  63.230  0.00  0.00     0.075 H 
ATOM     82  H41 non d ame     -12.147  13.176  63.235  0.00  0.00     0.075 H 
ATOM     83  C28 non d ame     -10.163  13.484  65.531  0.00  0.00     0.193 C 
ATOM     84  H42 non d ame      -9.465  12.333  63.842  0.00  0.00     0.280 HD
ATOM     85  H43 non d ame     -10.109  13.902  63.413  0.00  0.00     0.280 HD
ATOM     86  H44 non d ame     -10.294  14.526  65.821  0.00  0.00     0.129 H 
ATOM     87  H37 non d ame     -11.640  13.878  66.465  0.00  0.00     0.046 H 
BRANCH  83  88
ATOM     88  O6  non d ame      -8.955  13.059  66.165  0.00  0.00    -0.369 OA
ATOM     89  H45 non d ame      -9.100  12.213  66.595  0.00  0.00     0.212 HD
ENDBRANCH  83  88
ENDBRANCH  72  75
ENDBRANCH  47  72
ENDBRANCH  45  47
ENDBRANCH   1  43
BRANCH   1  90
ATOM     90  C16 non d ame     -12.302  15.748  71.429  0.00  0.00    -0.035 C 
ATOM     91  H21 non d ame     -12.007  16.695  71.882  0.00  0.00     0.037 H 
ATOM     92  H22 non d ame     -13.234  15.679  70.869  0.00  0.00     0.037 H 
BRANCH  90  93
ATOM     93  C17 non d ame     -12.412  14.717  72.597  0.00  0.00    -0.059 C 
ATOM     94  H23 non d ame     -11.506  14.112  72.591  0.00  0.00     0.038 H 
BRANCH  93  95
ATOM     95  C18 non d ame     -12.509  15.414  73.992  0.00  0.00    -0.073 C 
ATOM     96  H24 non d ame     -13.440  15.125  74.479  0.00  0.00     0.028 H 
ATOM     97  H25 non d ame     -11.665  15.109  74.610  0.00  0.00     0.028 H 
ATOM     98  H26 non d ame     -12.489  16.496  73.859  0.00  0.00     0.028 H 
ENDBRANCH  93  95
BRANCH  93  99
ATOM     99  C19 non d ame     -13.594  13.768  72.379  0.00  0.00    -0.073 C 
ATOM    100  H27 non d ame     -14.457  14.129  72.939  0.00  0.00     0.028 H 
ATOM    101  H28 non d ame     -13.839  13.731  71.317  0.00  0.00     0.028 H 
ATOM    102  H29 non d ame     -13.327  12.770  72.725  0.00  0.00     0.028 H 
ENDBRANCH  93  99
ENDBRANCH  90  93
ENDBRANCH   1  90
TORSDOF 26
ENDMDL
MODEL 7
REMARK VINA RESULT:      -6.5      3.395      5.760
REMARK  26 active torsions:
REMARK  status: ('A' for Active; 'I' for Inactive)
REMARK    1  A    between atoms: C2_2  and  C3_3 
REMARK    2  A    between atoms: C4_6  and  C5_7 
REMARK       I    between atoms: C5_7  and  N2_9 
REMARK    3  A    between atoms: N2_9  and  C6_10 
REMARK    4  A    between atoms: C6_10  and  C7_11 
REMARK    5  A    between atoms: C6_10  and  C8_13 
REMARK       I    between atoms: C7_11  and  N3_14 
REMARK    6  A    between atoms: N3_14  and  C9_15 
REMARK    7  A    between atoms: C9_15  and  C10_16 
REMARK    8  A    between atoms: C9_15  and  C11_18 
REMARK       I    between atoms: C10_16  and  N4_21 
REMARK    9  A    between atoms: C11_18  and  C12_19 
REMARK   10  A    between atoms: C11_18  and  C13_20 
REMARK   11  A    between atoms: N4_21  and  C14_22 
REMARK   12  A    between atoms: C14_22  and  C15_23 
REMARK   13  A    between atoms: C14_22  and  C16_25 
REMARK       I    between atoms: C15_23  and  N6_40 
REMARK   14  A    between atoms: C16_25  and  C17_26 
REMARK   15  A    between atoms: C17_26  and  C18_27 
REMARK   16  A    between atoms: C17_26  and  C19_28 
REMARK   17  A    between atoms: C20_29  and  C21_30 
REMARK   18  A    between atoms: C20_29  and  C24_33 
REMARK   19  A    between atoms: C20_29  and  N6_40 
REMARK   20  A    between atoms: C21_30  and  C22_31 
REMARK   21  A    between atoms: C22_31  and  C23_32 
REMARK   22  A    between atoms: C23_32  and  O8_43 
REMARK   23  A    between atoms: C24_33  and  C25_34 
REMARK   24  A    between atoms: C28_38  and  O6_39 
REMARK   25  A    between atoms: C29_42  and  O8_43 
REMARK   26  A    between atoms: C29_42  and  C35_49 
ROOT
ATOM      1  C14 non d ame     -10.589   8.531  69.602  0.00  0.00     0.089 C 
ATOM      2  H20 non d ame     -11.566   8.049  69.558  0.00  0.00     0.087 H 
ENDROOT
BRANCH   1   3
ATOM      3  N4  non d ame      -9.580   7.488  69.496  0.00  0.00    -0.346 N 
ATOM      4  C10 non d ame      -9.989   6.046  69.327  0.00  0.00     0.241 C 
ATOM      5  O4  non d ame     -11.137   5.750  69.283  0.00  0.00    -0.271 OA
ATOM      6  H19 non d ame      -8.608   7.761  69.538  0.00  0.00     0.163 HD
BRANCH   4   7
ATOM      7  C9  non d ame      -8.931   4.981  69.213  0.00  0.00     0.092 C 
ATOM      8  H11 non d ame      -9.360   4.098  68.740  0.00  0.00     0.088 H 
BRANCH   7   9
ATOM      9  N3  non d ame      -7.849   5.455  68.344  0.00  0.00    -0.346 N 
ATOM     10  C7  non d ame      -7.706   4.917  67.014  0.00  0.00     0.240 C 
ATOM     11  O3  non d ame      -8.450   4.101  66.627  0.00  0.00    -0.271 OA
ATOM     12  H10 non d ame      -7.199   6.158  68.665  0.00  0.00     0.163 HD
BRANCH  10  13
ATOM     13  C6  non d ame      -6.551   5.425  66.095  0.00  0.00     0.086 C 
ATOM     14  H6  non d ame      -6.221   4.672  65.379  0.00  0.00     0.086 H 
BRANCH  13  15
ATOM     15  N2  non d ame      -7.030   6.556  65.318  0.00  0.00    -0.343 N 
ATOM     16  C5  non d ame      -6.719   6.633  63.889  0.00  0.00     0.273 C 
ATOM     17  O2  non d ame      -6.081   5.781  63.374  0.00  0.00    -0.266 OA
ATOM     18  H5  non d ame      -7.572   7.281  65.766  0.00  0.00     0.163 HD
BRANCH  16  19
ATOM     19  C4  non d ame      -7.219   7.823  63.055  0.00  0.00     0.154 A 
ATOM     20  C1  non d ame      -6.595   9.102  62.912  0.00  0.00    -0.017 A 
ATOM     21  C2  non d ame      -7.446   9.828  62.049  0.00  0.00     0.077 A 
ATOM     22  H1  non d ame      -5.667   9.451  63.365  0.00  0.00     0.091 H 
ATOM     23  O1  non d ame      -8.439   9.047  61.738  0.00  0.00    -0.218 OA
ATOM     24  N1  non d ame      -8.329   7.872  62.313  0.00  0.00    -0.123 NA
BRANCH  21  25
ATOM     25  C3  non d ame      -7.238  11.259  61.571  0.00  0.00    -0.029 C 
ATOM     26  H2  non d ame      -6.850  11.250  60.552  0.00  0.00     0.036 H 
ATOM     27  H3  non d ame      -8.189  11.791  61.594  0.00  0.00     0.036 H 
ATOM     28  H4  non d ame      -6.525  11.761  62.226  0.00  0.00     0.036 H 
ENDBRANCH  21  25
ENDBRANCH  16  19
ENDBRANCH  13  15
BRANCH  13  29
ATOM     29  C8  non d ame      -5.376   5.840  66.942  0.00  0.00    -0.049 C 
ATOM     30  H7  non d ame      -5.665   6.676  67.580  0.00  0.00     0.030 H 
ATOM     31  H8  non d ame      -5.061   5.001  67.564  0.00  0.00     0.030 H 
ATOM     32  H9  non d ame      -4.552   6.144  66.297  0.00  0.00     0.030 H 
ENDBRANCH  13  29
ENDBRANCH  10  13
ENDBRANCH   7   9
BRANCH   7  33
ATOM     33  C11 non d ame      -8.357   4.667  70.626  0.00  0.00    -0.033 C 
ATOM     34  H12 non d ame      -8.194   3.590  70.683  0.00  0.00     0.042 H 
BRANCH  33  35
ATOM     35  C12 non d ame      -6.977   5.362  70.847  0.00  0.00    -0.071 C 
ATOM     36  H13 non d ame      -6.678   5.253  71.890  0.00  0.00     0.028 H 
ATOM     37  H14 non d ame      -6.230   4.898  70.204  0.00  0.00     0.028 H 
ATOM     38  H15 non d ame      -7.061   6.421  70.602  0.00  0.00     0.028 H 
ENDBRANCH  33  35
BRANCH  33  39
ATOM     39  C13 non d ame      -9.375   5.061  71.744  0.00  0.00    -0.071 C 
ATOM     40  H16 non d ame      -9.283   6.124  71.960  0.00  0.00     0.028 H 
ATOM     41  H17 non d ame     -10.389   4.845  71.404  0.00  0.00     0.028 H 
ATOM     42  H18 non d ame      -9.164   4.486  72.646  0.00  0.00     0.028 H 
ENDBRANCH  33  39
ENDBRANCH   7  33
ENDBRANCH   4   7
ENDBRANCH   1   3
BRANCH   1  43
ATOM     43  C15 non d ame     -10.380   9.542  68.438  0.00  0.00     0.240 C 
ATOM     44  O5  non d ame     -10.163   9.143  67.340  0.00  0.00    -0.271 OA
ATOM     45  N6  non d ame     -10.460  11.009  68.692  0.00  0.00    -0.355 N 
ATOM     46  H46 non d ame     -10.649  11.360  69.619  0.00  0.00     0.162 HD
BRANCH  45  47
ATOM     47  C20 non d ame     -10.261  11.958  67.575  0.00  0.00     0.013 C 
ATOM     48  H30 non d ame      -9.701  11.444  66.794  0.00  0.00     0.072 H 
BRANCH  47  49
ATOM     49  C21 non d ame      -9.480  13.154  68.068  0.00  0.00    -0.038 C 
ATOM     50  H31 non d ame     -10.024  13.523  68.938  0.00  0.00     0.036 H 
ATOM     51  H32 non d ame      -8.451  12.810  68.174  0.00  0.00     0.036 H 
BRANCH  49  52
ATOM     52  C22 non d ame      -9.450  14.313  67.048  0.00  0.00     0.018 C 
ATOM     53  H33 non d ame      -8.396  14.491  66.833  0.00  0.00     0.048 H 
ATOM     54  H34 non d ame     -10.128  14.018  66.247  0.00  0.00     0.048 H 
BRANCH  52  55
ATOM     55  C23 non d ame     -10.005  15.653  67.607  0.00  0.00     0.259 C 
ATOM     56  O7  non d ame      -9.524  16.689  67.278  0.00  0.00    -0.265 OA
BRANCH  55  57
ATOM     57  O8  non d ame     -11.089  15.629  68.527  0.00  0.00    -0.317 OA
BRANCH  57  58
ATOM     58  C29 non d ame     -10.771  16.160  69.816  0.00  0.00     0.052 C 
ATOM     59  H47 non d ame      -9.737  15.872  70.007  0.00  0.00     0.082 H 
ATOM     60  H48 non d ame     -11.044  17.214  69.777  0.00  0.00     0.082 H 
BRANCH  58  61
ATOM     61  C35 non d ame     -11.677  15.457  70.862  0.00  0.00    -0.034 A 
ATOM     62  C30 non d ame     -12.153  14.172  70.619  0.00  0.00    -0.075 A 
ATOM     63  C31 non d ame     -12.968  13.540  71.557  0.00  0.00    -0.082 A 
ATOM     64  H49 non d ame     -11.889  13.661  69.693  0.00  0.00     0.084 H 
ATOM     65  C32 non d ame     -13.307  14.199  72.742  0.00  0.00    -0.083 A 
ATOM     66  H50 non d ame     -13.338  12.533  71.365  0.00  0.00     0.083 H 
ATOM     67  C33 non d ame     -12.831  15.481  72.979  0.00  0.00    -0.082 A 
ATOM     68  H51 non d ame     -13.942  13.712  73.482  0.00  0.00     0.083 H 
ATOM     69  C34 non d ame     -12.016  16.116  72.045  0.00  0.00    -0.075 A 
ATOM     70  H52 non d ame     -13.100  15.993  73.904  0.00  0.00     0.083 H 
ATOM     71  H53 non d ame     -11.645  17.123  72.238  0.00  0.00     0.084 H 
ENDBRANCH  58  61
ENDBRANCH  57  58
ENDBRANCH  55  57
ENDBRANCH  52  55
ENDBRANCH  49  52
ENDBRANCH  47  49
BRANCH  47  72
ATOM     72  C24 non d ame     -11.616  12.418  67.040  0.00  0.00    -0.039 C 
ATOM     73  H35 non d ame     -12.358  11.934  67.676  0.00  0.00     0.036 H 
ATOM     74  H36 non d ame     -11.558  13.506  67.002  0.00  0.00     0.036 H 
BRANCH  72  75
ATOM     75  C25 non d ame     -11.868  11.905  65.544  0.00  0.00    -0.001 C 
ATOM     76  C26 non d ame     -10.436  11.512  64.837  0.00  0.00    -0.035 C 
ATOM     77  C27 non d ame     -10.353  12.142  63.641  0.00  0.00     0.085 C 
ATOM     78  H38 non d ame      -9.610  11.936  65.407  0.00  0.00     0.036 H 
ATOM     79  H39 non d ame     -10.428  10.456  64.570  0.00  0.00     0.036 H 
ATOM     80  N5  non d ame     -11.445  13.183  63.613  0.00  0.00    -0.049 N 
ATOM     81  H40 non d ame      -9.384  12.644  63.643  0.00  0.00     0.075 H 
ATOM     82  H41 non d ame     -10.570  11.379  62.895  0.00  0.00     0.075 H 
ATOM     83  C28 non d ame     -12.442  12.814  64.828  0.00  0.00     0.193 C 
ATOM     84  H42 non d ame     -11.003  14.068  63.818  0.00  0.00     0.280 HD
ATOM     85  H43 non d ame     -11.940  13.055  62.742  0.00  0.00     0.280 HD
ATOM     86  H44 non d ame     -13.401  12.335  64.631  0.00  0.00     0.129 H 
ATOM     87  H37 non d ame     -12.667  11.165  65.490  0.00  0.00     0.046 H 
BRANCH  83  88
ATOM     88  O6  non d ame     -12.748  13.984  65.588  0.00  0.00    -0.369 OA
ATOM     89  H45 non d ame     -12.916  13.738  66.500  0.00  0.00     0.212 HD
ENDBRANCH  83  88
ENDBRANCH  72  75
ENDBRANCH  47  72
ENDBRANCH  45  47
ENDBRANCH   1  43
BRANCH   1  90
ATOM     90  C16 non d ame     -10.427   9.245  70.934  0.00  0.00    -0.035 C 
ATOM     91  H21 non d ame      -9.623   8.717  71.449  0.00  0.00     0.037 H 
ATOM     92  H22 non d ame     -10.313  10.300  70.685  0.00  0.00     0.037 H 
BRANCH  90  93
ATOM     93  C17 non d ame     -11.683   9.142  71.857  0.00  0.00    -0.059 C 
ATOM     94  H23 non d ame     -11.412   9.548  72.831  0.00  0.00     0.038 H 
BRANCH  93  95
ATOM     95  C18 non d ame     -12.885   9.977  71.311  0.00  0.00    -0.073 C 
ATOM     96  H24 non d ame     -12.571  10.529  70.426  0.00  0.00     0.028 H 
ATOM     97  H25 non d ame     -13.704   9.307  71.050  0.00  0.00     0.028 H 
ATOM     98  H26 non d ame     -13.218  10.677  72.077  0.00  0.00     0.028 H 
ENDBRANCH  93  95
BRANCH  93  99
ATOM     99  C19 non d ame     -12.087   7.681  72.069  0.00  0.00    -0.073 C 
ATOM    100  H27 non d ame     -11.365   7.196  72.727  0.00  0.00     0.028 H 
ATOM    101  H28 non d ame     -13.078   7.640  72.524  0.00  0.00     0.028 H 
ATOM    102  H29 non d ame     -12.107   7.166  71.109  0.00  0.00     0.028 H 
ENDBRANCH  93  99
ENDBRANCH  90  93
ENDBRANCH   1  90
TORSDOF 26
ENDMDL
MODEL 8
REMARK VINA RESULT:      -6.5      3.764      7.447
REMARK  26 active torsions:
REMARK  status: ('A' for Active; 'I' for Inactive)
REMARK    1  A    between atoms: C2_2  and  C3_3 
REMARK    2  A    between atoms: C4_6  and  C5_7 
REMARK       I    between atoms: C5_7  and  N2_9 
REMARK    3  A    between atoms: N2_9  and  C6_10 
REMARK    4  A    between atoms: C6_10  and  C7_11 
REMARK    5  A    between atoms: C6_10  and  C8_13 
REMARK       I    between atoms: C7_11  and  N3_14 
REMARK    6  A    between atoms: N3_14  and  C9_15 
REMARK    7  A    between atoms: C9_15  and  C10_16 
REMARK    8  A    between atoms: C9_15  and  C11_18 
REMARK       I    between atoms: C10_16  and  N4_21 
REMARK    9  A    between atoms: C11_18  and  C12_19 
REMARK   10  A    between atoms: C11_18  and  C13_20 
REMARK   11  A    between atoms: N4_21  and  C14_22 
REMARK   12  A    between atoms: C14_22  and  C15_23 
REMARK   13  A    between atoms: C14_22  and  C16_25 
REMARK       I    between atoms: C15_23  and  N6_40 
REMARK   14  A    between atoms: C16_25  and  C17_26 
REMARK   15  A    between atoms: C17_26  and  C18_27 
REMARK   16  A    between atoms: C17_26  and  C19_28 
REMARK   17  A    between atoms: C20_29  and  C21_30 
REMARK   18  A    between atoms: C20_29  and  C24_33 
REMARK   19  A    between atoms: C20_29  and  N6_40 
REMARK   20  A    between atoms: C21_30  and  C22_31 
REMARK   21  A    between atoms: C22_31  and  C23_32 
REMARK   22  A    between atoms: C23_32  and  O8_43 
REMARK   23  A    between atoms: C24_33  and  C25_34 
REMARK   24  A    between atoms: C28_38  and  O6_39 
REMARK   25  A    between atoms: C29_42  and  O8_43 
REMARK   26  A    between atoms: C29_42  and  C35_49 
ROOT
ATOM      1  C14 non d ame      -6.378   9.607  65.766  0.00  0.00     0.089 C 
ATOM      2  H20 non d ame      -5.603   9.489  66.525  0.00  0.00     0.087 H 
ENDROOT
BRANCH   1   3
ATOM      3  N4  non d ame      -7.013   8.310  65.583  0.00  0.00    -0.346 N 
ATOM      4  C10 non d ame      -6.404   7.072  66.191  0.00  0.00     0.241 C 
ATOM      5  O4  non d ame      -5.400   7.143  66.820  0.00  0.00    -0.271 OA
ATOM      6  H19 non d ame      -7.865   8.271  65.042  0.00  0.00     0.163 HD
BRANCH   4   7
ATOM      7  C9  non d ame      -7.078   5.739  65.996  0.00  0.00     0.092 C 
ATOM      8  H11 non d ame      -6.325   4.988  65.757  0.00  0.00     0.088 H 
BRANCH   7   9
ATOM      9  N3  non d ame      -7.717   5.327  67.249  0.00  0.00    -0.346 N 
ATOM     10  C7  non d ame      -8.580   6.244  67.953  0.00  0.00     0.240 C 
ATOM     11  O3  non d ame      -8.768   7.317  67.527  0.00  0.00    -0.271 OA
ATOM     12  H10 non d ame      -7.563   4.404  67.630  0.00  0.00     0.163 HD
BRANCH  10  13
ATOM     13  C6  non d ame      -9.255   5.801  69.288  0.00  0.00     0.086 C 
ATOM     14  H6  non d ame      -8.566   5.808  70.132  0.00  0.00     0.086 H 
BRANCH  13  15
ATOM     15  N2  non d ame     -10.319   6.737  69.612  0.00  0.00    -0.343 N 
ATOM     16  C5  non d ame     -10.358   7.353  70.940  0.00  0.00     0.273 C 
ATOM     17  O2  non d ame      -9.531   7.086  71.741  0.00  0.00    -0.266 OA
ATOM     18  H5  non d ame     -11.023   6.957  68.921  0.00  0.00     0.163 HD
BRANCH  16  19
ATOM     19  C4  non d ame     -11.476   8.346  71.295  0.00  0.00     0.154 A 
ATOM     20  C1  non d ame     -11.426   9.773  71.202  0.00  0.00    -0.017 A 
ATOM     21  C2  non d ame     -12.696  10.210  71.641  0.00  0.00     0.077 A 
ATOM     22  H1  non d ame     -10.597  10.396  70.866  0.00  0.00     0.091 H 
ATOM     23  O1  non d ame     -13.386   9.151  71.947  0.00  0.00    -0.218 OA
ATOM     24  N1  non d ame     -12.695   8.051  71.754  0.00  0.00    -0.123 NA
BRANCH  21  25
ATOM     25  C3  non d ame     -13.168  11.655  71.738  0.00  0.00    -0.029 C 
ATOM     26  H2  non d ame     -12.765  12.110  72.643  0.00  0.00     0.036 H 
ATOM     27  H3  non d ame     -12.820  12.209  70.866  0.00  0.00     0.036 H 
ATOM     28  H4  non d ame     -14.258  11.680  71.773  0.00  0.00     0.036 H 
ENDBRANCH  21  25
ENDBRANCH  16  19
ENDBRANCH  13  15
BRANCH  13  29
ATOM     29  C8  non d ame      -9.820   4.412  69.131  0.00  0.00    -0.049 C 
ATOM     30  H7  non d ame     -10.812   4.471  68.682  0.00  0.00     0.030 H 
ATOM     31  H8  non d ame      -9.165   3.823  68.490  0.00  0.00     0.030 H 
ATOM     32  H9  non d ame      -9.893   3.937  70.110  0.00  0.00     0.030 H 
ENDBRANCH  13  29
ENDBRANCH  10  13
ENDBRANCH   7   9
BRANCH   7  33
ATOM     33  C11 non d ame      -8.157   5.861  64.881  0.00  0.00    -0.033 C 
ATOM     34  H12 non d ame      -8.626   6.840  64.984  0.00  0.00     0.042 H 
BRANCH  33  35
ATOM     35  C12 non d ame      -7.517   5.795  63.460  0.00  0.00    -0.071 C 
ATOM     36  H13 non d ame      -8.247   5.406  62.750  0.00  0.00     0.028 H 
ATOM     37  H14 non d ame      -7.210   6.795  63.153  0.00  0.00     0.028 H 
ATOM     38  H15 non d ame      -6.648   5.139  63.484  0.00  0.00     0.028 H 
ENDBRANCH  33  35
BRANCH  33  39
ATOM     39  C13 non d ame      -9.266   4.774  65.054  0.00  0.00    -0.071 C 
ATOM     40  H16 non d ame     -10.248   5.238  64.962  0.00  0.00     0.028 H 
ATOM     41  H17 non d ame      -9.151   4.011  64.284  0.00  0.00     0.028 H 
ATOM     42  H18 non d ame      -9.172   4.313  66.038  0.00  0.00     0.028 H 
ENDBRANCH  33  39
ENDBRANCH   7  33
ENDBRANCH   4   7
ENDBRANCH   1   3
BRANCH   1  43
ATOM     43  C15 non d ame      -7.465  10.635  66.190  0.00  0.00     0.240 C 
ATOM     44  O5  non d ame      -7.140  11.683  66.650  0.00  0.00    -0.271 OA
ATOM     45  N6  non d ame      -8.911  10.318  66.016  0.00  0.00    -0.355 N 
ATOM     46  H46 non d ame      -9.198   9.434  65.622  0.00  0.00     0.162 HD
BRANCH  45  47
ATOM     47  C20 non d ame      -9.932  11.307  66.423  0.00  0.00     0.013 C 
ATOM     48  H30 non d ame      -9.429  12.260  66.590  0.00  0.00     0.072 H 
BRANCH  47  49
ATOM     49  C21 non d ame     -10.597  10.843  67.699  0.00  0.00    -0.038 C 
ATOM     50  H31 non d ame     -11.026   9.868  67.470  0.00  0.00     0.036 H 
ATOM     51  H32 non d ame      -9.838  10.936  68.476  0.00  0.00     0.036 H 
BRANCH  49  52
ATOM     52  C22 non d ame     -11.772  11.748  68.126  0.00  0.00     0.018 C 
ATOM     53  H33 non d ame     -12.389  11.872  67.235  0.00  0.00     0.048 H 
ATOM     54  H34 non d ame     -12.192  11.285  69.020  0.00  0.00     0.048 H 
BRANCH  52  55
ATOM     55  C23 non d ame     -11.340  13.179  68.549  0.00  0.00     0.259 C 
ATOM     56  O7  non d ame     -10.222  13.395  68.891  0.00  0.00    -0.265 OA
BRANCH  55  57
ATOM     57  O8  non d ame     -12.299  14.230  68.536  0.00  0.00    -0.317 OA
BRANCH  57  58
ATOM     58  C29 non d ame     -11.834  15.450  69.120  0.00  0.00     0.052 C 
ATOM     59  H47 non d ame     -10.751  15.348  69.194  0.00  0.00     0.082 H 
ATOM     60  H48 non d ame     -12.266  16.249  68.518  0.00  0.00     0.082 H 
BRANCH  58  61
ATOM     61  C35 non d ame     -12.417  15.547  70.555  0.00  0.00    -0.034 A 
ATOM     62  C30 non d ame     -13.730  15.159  70.801  0.00  0.00    -0.075 A 
ATOM     63  C31 non d ame     -14.254  15.247  72.090  0.00  0.00    -0.082 A 
ATOM     64  H49 non d ame     -14.349  14.787  69.985  0.00  0.00     0.084 H 
ATOM     65  C32 non d ame     -13.460  15.726  73.135  0.00  0.00    -0.083 A 
ATOM     66  H50 non d ame     -15.283  14.940  72.280  0.00  0.00     0.083 H 
ATOM     67  C33 non d ame     -12.151  16.114  72.885  0.00  0.00    -0.082 A 
ATOM     68  H51 non d ame     -13.861  15.797  74.146  0.00  0.00     0.083 H 
ATOM     69  C34 non d ame     -11.622  16.027  71.598  0.00  0.00    -0.075 A 
ATOM     70  H52 non d ame     -11.534  16.490  73.702  0.00  0.00     0.083 H 
ATOM     71  H53 non d ame     -10.593  16.333  71.409  0.00  0.00     0.084 H 
ENDBRANCH  58  61
ENDBRANCH  57  58
ENDBRANCH  55  57
ENDBRANCH  52  55
ENDBRANCH  49  52
ENDBRANCH  47  49
BRANCH  47  72
ATOM     72  C24 non d ame     -10.982  11.448  65.323  0.00  0.00    -0.039 C 
ATOM     73  H35 non d ame     -10.910  10.533  64.734  0.00  0.00     0.036 H 
ATOM     74  H36 non d ame     -11.911  11.691  65.838  0.00  0.00     0.036 H 
BRANCH  72  75
ATOM     75  C25 non d ame     -10.652  12.670  64.341  0.00  0.00    -0.001 C 
ATOM     76  C26 non d ame     -10.299  14.014  65.219  0.00  0.00    -0.035 C 
ATOM     77  C27 non d ame     -11.059  15.042  64.770  0.00  0.00     0.085 C 
ATOM     78  H38 non d ame     -10.629  13.885  66.250  0.00  0.00     0.036 H 
ATOM     79  H39 non d ame      -9.280  14.341  65.010  0.00  0.00     0.036 H 
ATOM     80  N5  non d ame     -12.130  14.445  63.889  0.00  0.00    -0.049 N 
ATOM     81  H40 non d ame     -11.527  15.469  65.658  0.00  0.00     0.075 H 
ATOM     82  H41 non d ame     -10.394  15.650  64.158  0.00  0.00     0.075 H 
ATOM     83  C28 non d ame     -11.655  12.936  63.572  0.00  0.00     0.193 C 
ATOM     84  H42 non d ame     -12.971  14.407  64.447  0.00  0.00     0.280 HD
ATOM     85  H43 non d ame     -12.119  14.973  63.028  0.00  0.00     0.280 HD
ATOM     86  H44 non d ame     -11.232  12.681  62.600  0.00  0.00     0.129 H 
ATOM     87  H37 non d ame      -9.949  12.391  63.557  0.00  0.00     0.046 H 
BRANCH  83  88
ATOM     88  O6  non d ame     -12.740  12.026  63.767  0.00  0.00    -0.369 OA
ATOM     89  H45 non d ame     -13.027  11.684  62.917  0.00  0.00     0.212 HD
ENDBRANCH  83  88
ENDBRANCH  72  75
ENDBRANCH  47  72
ENDBRANCH  45  47
ENDBRANCH   1  43
BRANCH   1  90
ATOM     90  C16 non d ame      -5.748  10.041  64.452  0.00  0.00    -0.035 C 
ATOM     91  H21 non d ame      -6.183  11.017  64.232  0.00  0.00     0.037 H 
ATOM     92  H22 non d ame      -4.673   9.945  64.601  0.00  0.00     0.037 H 
BRANCH  90  93
ATOM     93  C17 non d ame      -6.111   9.115  63.247  0.00  0.00    -0.059 C 
ATOM     94  H23 non d ame      -6.662   8.261  63.641  0.00  0.00     0.038 H 
BRANCH  93  95
ATOM     95  C18 non d ame      -7.027   9.834  62.206  0.00  0.00    -0.073 C 
ATOM     96  H24 non d ame      -6.421  10.190  61.373  0.00  0.00     0.028 H 
ATOM     97  H25 non d ame      -7.777   9.134  61.837  0.00  0.00     0.028 H 
ATOM     98  H26 non d ame      -7.524  10.680  62.682  0.00  0.00     0.028 H 
ENDBRANCH  93  95
BRANCH  93  99
ATOM     99  C19 non d ame      -4.848   8.570  62.576  0.00  0.00    -0.073 C 
ATOM    100  H27 non d ame      -5.040   8.409  61.515  0.00  0.00     0.028 H 
ATOM    101  H28 non d ame      -4.036   9.289  62.694  0.00  0.00     0.028 H 
ATOM    102  H29 non d ame      -4.567   7.626  63.042  0.00  0.00     0.028 H 
ENDBRANCH  93  99
ENDBRANCH  90  93
ENDBRANCH   1  90
TORSDOF 26
ENDMDL
MODEL 9
REMARK VINA RESULT:      -6.4      1.951      5.514
REMARK  26 active torsions:
REMARK  status: ('A' for Active; 'I' for Inactive)
REMARK    1  A    between atoms: C2_2  and  C3_3 
REMARK    2  A    between atoms: C4_6  and  C5_7 
REMARK       I    between atoms: C5_7  and  N2_9 
REMARK    3  A    between atoms: N2_9  and  C6_10 
REMARK    4  A    between atoms: C6_10  and  C7_11 
REMARK    5  A    between atoms: C6_10  and  C8_13 
REMARK       I    between atoms: C7_11  and  N3_14 
REMARK    6  A    between atoms: N3_14  and  C9_15 
REMARK    7  A    between atoms: C9_15  and  C10_16 
REMARK    8  A    between atoms: C9_15  and  C11_18 
REMARK       I    between atoms: C10_16  and  N4_21 
REMARK    9  A    between atoms: C11_18  and  C12_19 
REMARK   10  A    between atoms: C11_18  and  C13_20 
REMARK   11  A    between atoms: N4_21  and  C14_22 
REMARK   12  A    between atoms: C14_22  and  C15_23 
REMARK   13  A    between atoms: C14_22  and  C16_25 
REMARK       I    between atoms: C15_23  and  N6_40 
REMARK   14  A    between atoms: C16_25  and  C17_26 
REMARK   15  A    between atoms: C17_26  and  C18_27 
REMARK   16  A    between atoms: C17_26  and  C19_28 
REMARK   17  A    between atoms: C20_29  and  C21_30 
REMARK   18  A    between atoms: C20_29  and  C24_33 
REMARK   19  A    between atoms: C20_29  and  N6_40 
REMARK   20  A    between atoms: C21_30  and  C22_31 
REMARK   21  A    between atoms: C22_31  and  C23_32 
REMARK   22  A    between atoms: C23_32  and  O8_43 
REMARK   23  A    between atoms: C24_33  and  C25_34 
REMARK   24  A    between atoms: C28_38  and  O6_39 
REMARK   25  A    between atoms: C29_42  and  O8_43 
REMARK   26  A    between atoms: C29_42  and  C35_49 
ROOT
ATOM      1  C14 non d ame     -11.580  10.286  68.970  0.00  0.00     0.089 C 
ATOM      2  H20 non d ame     -12.568   9.914  69.243  0.00  0.00     0.087 H 
ENDROOT
BRANCH   1   3
ATOM      3  N4  non d ame     -11.128   9.521  67.817  0.00  0.00    -0.346 N 
ATOM      4  C10 non d ame      -9.730   9.706  67.281  0.00  0.00     0.241 C 
ATOM      5  O4  non d ame      -8.988  10.478  67.793  0.00  0.00    -0.271 OA
ATOM      6  H19 non d ame     -11.775   8.871  67.394  0.00  0.00     0.163 HD
BRANCH   4   7
ATOM      7  C9  non d ame      -9.277   8.902  66.091  0.00  0.00     0.092 C 
ATOM      8  H11 non d ame     -10.027   8.144  65.863  0.00  0.00     0.088 H 
BRANCH   7   9
ATOM      9  N3  non d ame      -9.176   9.778  64.919  0.00  0.00    -0.346 N 
ATOM     10  C7  non d ame     -10.287  10.622  64.554  0.00  0.00     0.240 C 
ATOM     11  O3  non d ame     -11.269  10.609  65.190  0.00  0.00    -0.271 OA
ATOM     12  H10 non d ame      -8.336   9.798  64.359  0.00  0.00     0.163 HD
BRANCH  10  13
ATOM     13  C6  non d ame     -10.175  11.550  63.304  0.00  0.00     0.086 C 
ATOM     14  H6  non d ame     -11.069  11.527  62.681  0.00  0.00     0.086 H 
BRANCH  13  15
ATOM     15  N2  non d ame     -10.014  12.924  63.749  0.00  0.00    -0.343 N 
ATOM     16  C5  non d ame     -11.201  13.731  64.041  0.00  0.00     0.273 C 
ATOM     17  O2  non d ame     -12.280  13.267  63.911  0.00  0.00    -0.266 OA
ATOM     18  H5  non d ame      -9.088  13.313  63.855  0.00  0.00     0.163 HD
BRANCH  16  19
ATOM     19  C4  non d ame     -11.046  15.185  64.514  0.00  0.00     0.154 A 
ATOM     20  C1  non d ame     -10.297  15.652  65.640  0.00  0.00    -0.017 A 
ATOM     21  C2  non d ame     -10.475  17.054  65.639  0.00  0.00     0.077 A 
ATOM     22  H1  non d ame      -9.713  15.065  66.350  0.00  0.00     0.091 H 
ATOM     23  O1  non d ame     -11.237  17.347  64.626  0.00  0.00    -0.218 OA
ATOM     24  N1  non d ame     -11.583  16.273  63.955  0.00  0.00    -0.123 NA
BRANCH  21  25
ATOM     25  C3  non d ame      -9.882  18.039  66.638  0.00  0.00    -0.029 C 
ATOM     26  H2  non d ame      -9.303  17.496  67.385  0.00  0.00     0.036 H 
ATOM     27  H3  non d ame      -9.234  18.741  66.115  0.00  0.00     0.036 H 
ATOM     28  H4  non d ame     -10.687  18.586  67.131  0.00  0.00     0.036 H 
ENDBRANCH  21  25
ENDBRANCH  16  19
ENDBRANCH  13  15
BRANCH  13  29
ATOM     29  C8  non d ame      -8.989  11.134  62.471  0.00  0.00    -0.049 C 
ATOM     30  H7  non d ame      -9.239  11.221  61.414  0.00  0.00     0.030 H 
ATOM     31  H8  non d ame      -8.141  11.781  62.699  0.00  0.00     0.030 H 
ATOM     32  H9  non d ame      -8.730  10.101  62.699  0.00  0.00     0.030 H 
ENDBRANCH  13  29
ENDBRANCH  10  13
ENDBRANCH   7   9
BRANCH   7  33
ATOM     33  C11 non d ame      -7.883   8.276  66.388  0.00  0.00    -0.033 C 
ATOM     34  H12 non d ame      -7.718   8.336  67.464  0.00  0.00     0.042 H 
BRANCH  33  35
ATOM     35  C12 non d ame      -7.841   6.767  65.991  0.00  0.00    -0.071 C 
ATOM     36  H13 non d ame      -7.765   6.157  66.891  0.00  0.00     0.028 H 
ATOM     37  H14 non d ame      -8.753   6.508  65.454  0.00  0.00     0.028 H 
ATOM     38  H15 non d ame      -6.977   6.584  65.353  0.00  0.00     0.028 H 
ENDBRANCH  33  35
BRANCH  33  39
ATOM     39  C13 non d ame      -6.746   9.080  65.679  0.00  0.00    -0.071 C 
ATOM     40  H16 non d ame      -7.171   9.673  64.870  0.00  0.00     0.028 H 
ATOM     41  H17 non d ame      -6.264   9.741  66.400  0.00  0.00     0.028 H 
ATOM     42  H18 non d ame      -6.010   8.386  65.274  0.00  0.00     0.028 H 
ENDBRANCH  33  39
ENDBRANCH   7  33
ENDBRANCH   4   7
ENDBRANCH   1   3
BRANCH   1  43
ATOM     43  C15 non d ame     -11.606  11.793  68.585  0.00  0.00     0.240 C 
ATOM     44  O5  non d ame     -12.357  12.177  67.748  0.00  0.00    -0.271 OA
ATOM     45  N6  non d ame     -10.700  12.760  69.268  0.00  0.00    -0.355 N 
ATOM     46  H46 non d ame     -10.062  12.447  69.985  0.00  0.00     0.162 HD
BRANCH  45  47
ATOM     47  C20 non d ame     -10.738  14.190  68.893  0.00  0.00     0.013 C 
ATOM     48  H30 non d ame     -10.975  14.252  67.831  0.00  0.00     0.072 H 
BRANCH  47  49
ATOM     49  C21 non d ame      -9.385  14.812  69.157  0.00  0.00    -0.038 C 
ATOM     50  H31 non d ame      -9.463  15.843  68.811  0.00  0.00     0.036 H 
ATOM     51  H32 non d ame      -9.165  14.603  70.204  0.00  0.00     0.036 H 
BRANCH  49  52
ATOM     52  C22 non d ame      -8.254  14.159  68.333  0.00  0.00     0.018 C 
ATOM     53  H33 non d ame      -7.879  13.339  68.946  0.00  0.00     0.048 H 
ATOM     54  H34 non d ame      -8.684  13.954  67.352  0.00  0.00     0.048 H 
BRANCH  52  55
ATOM     55  C23 non d ame      -7.041  15.097  68.082  0.00  0.00     0.259 C 
ATOM     56  O7  non d ame      -6.175  14.776  67.334  0.00  0.00    -0.265 OA
BRANCH  55  57
ATOM     57  O8  non d ame      -6.968  16.341  68.767  0.00  0.00    -0.317 OA
BRANCH  57  58
ATOM     58  C29 non d ame      -5.801  17.108  68.459  0.00  0.00     0.052 C 
ATOM     59  H47 non d ame      -5.450  17.506  69.411  0.00  0.00     0.082 H 
ATOM     60  H48 non d ame      -5.160  16.449  67.874  0.00  0.00     0.082 H 
BRANCH  58  61
ATOM     61  C35 non d ame      -6.233  18.297  67.559  0.00  0.00    -0.034 A 
ATOM     62  C30 non d ame      -6.701  19.473  68.136  0.00  0.00    -0.075 A 
ATOM     63  C31 non d ame      -7.090  20.541  67.329  0.00  0.00    -0.082 A 
ATOM     64  H49 non d ame      -6.764  19.558  69.221  0.00  0.00     0.084 H 
ATOM     65  C32 non d ame      -7.010  20.429  65.938  0.00  0.00    -0.083 A 
ATOM     66  H50 non d ame      -7.454  21.462  67.784  0.00  0.00     0.083 H 
ATOM     67  C33 non d ame      -6.545  19.252  65.366  0.00  0.00    -0.082 A 
ATOM     68  H51 non d ame      -7.311  21.259  65.299  0.00  0.00     0.083 H 
ATOM     69  C34 non d ame      -6.154  18.183  66.170  0.00  0.00    -0.075 A 
ATOM     70  H52 non d ame      -6.487  19.167  64.281  0.00  0.00     0.083 H 
ATOM     71  H53 non d ame      -5.789  17.262  65.714  0.00  0.00     0.084 H 
ENDBRANCH  58  61
ENDBRANCH  57  58
ENDBRANCH  55  57
ENDBRANCH  52  55
ENDBRANCH  49  52
ENDBRANCH  47  49
BRANCH  47  72
ATOM     72  C24 non d ame     -11.802  14.913  69.717  0.00  0.00    -0.039 C 
ATOM     73  H35 non d ame     -11.473  15.952  69.767  0.00  0.00     0.036 H 
ATOM     74  H36 non d ame     -12.752  14.665  69.245  0.00  0.00     0.036 H 
BRANCH  72  75
ATOM     75  C25 non d ame     -11.861  14.363  71.220  0.00  0.00    -0.001 C 
ATOM     76  C26 non d ame     -13.272  13.553  71.464  0.00  0.00    -0.035 C 
ATOM     77  C27 non d ame     -13.866  14.039  72.580  0.00  0.00     0.085 C 
ATOM     78  H38 non d ame     -13.981  13.791  70.672  0.00  0.00     0.036 H 
ATOM     79  H39 non d ame     -13.066  12.513  71.718  0.00  0.00     0.036 H 
ATOM     80  N5  non d ame     -13.158  15.324  72.934  0.00  0.00    -0.049 N 
ATOM     81  H40 non d ame     -14.892  14.268  72.287  0.00  0.00     0.075 H 
ATOM     82  H41 non d ame     -13.674  13.301  73.358  0.00  0.00     0.075 H 
ATOM     83  C28 non d ame     -11.791  15.329  72.074  0.00  0.00     0.193 C 
ATOM     84  H42 non d ame     -13.747  16.076  72.606  0.00  0.00     0.280 HD
ATOM     85  H43 non d ame     -12.920  15.259  73.914  0.00  0.00     0.280 HD
ATOM     86  H44 non d ame     -10.837  15.103  72.550  0.00  0.00     0.129 H 
ATOM     87  H37 non d ame     -10.941  13.856  71.511  0.00  0.00     0.046 H 
BRANCH  83  88
ATOM     88  O6  non d ame     -11.612  16.597  71.441  0.00  0.00    -0.369 OA
ATOM     89  H45 non d ame     -12.214  16.671  70.698  0.00  0.00     0.212 HD
ENDBRANCH  83  88
ENDBRANCH  72  75
ENDBRANCH  47  72
ENDBRANCH  45  47
ENDBRANCH   1  43
BRANCH   1  90
ATOM     90  C16 non d ame     -10.611  10.069  70.121  0.00  0.00    -0.035 C 
ATOM     91  H21 non d ame      -9.931   9.287  69.782  0.00  0.00     0.037 H 
ATOM     92  H22 non d ame     -10.224  11.059  70.363  0.00  0.00     0.037 H 
BRANCH  90  93
ATOM     93  C17 non d ame     -11.291   9.530  71.419  0.00  0.00    -0.059 C 
ATOM     94  H23 non d ame     -10.831  10.036  72.268  0.00  0.00     0.038 H 
BRANCH  93  95
ATOM     95  C18 non d ame     -12.822   9.836  71.453  0.00  0.00    -0.073 C 
ATOM     96  H24 non d ame     -13.253   9.645  70.470  0.00  0.00     0.028 H 
ATOM     97  H25 non d ame     -13.305   9.196  72.192  0.00  0.00     0.028 H 
ATOM     98  H26 non d ame     -12.978  10.881  71.721  0.00  0.00     0.028 H 
ENDBRANCH  93  95
BRANCH  93  99
ATOM     99  C19 non d ame     -11.031   8.031  71.590  0.00  0.00    -0.073 C 
ATOM    100  H27 non d ame     -10.031   7.878  71.995  0.00  0.00     0.028 H 
ATOM    101  H28 non d ame     -11.769   7.610  72.275  0.00  0.00     0.028 H 
ATOM    102  H29 non d ame     -11.111   7.535  70.623  0.00  0.00     0.028 H 
ENDBRANCH  93  99
ENDBRANCH  90  93
ENDBRANCH   1  90
TORSDOF 26
ENDMDL
MODEL 10
REMARK VINA RESULT:      -6.4      2.693      6.909
REMARK  26 active torsions:
REMARK  status: ('A' for Active; 'I' for Inactive)
REMARK    1  A    between atoms: C2_2  and  C3_3 
REMARK    2  A    between atoms: C4_6  and  C5_7 
REMARK       I    between atoms: C5_7  and  N2_9 
REMARK    3  A    between atoms: N2_9  and  C6_10 
REMARK    4  A    between atoms: C6_10  and  C7_11 
REMARK    5  A    between atoms: C6_10  and  C8_13 
REMARK       I    between atoms: C7_11  and  N3_14 
REMARK    6  A    between atoms: N3_14  and  C9_15 
REMARK    7  A    between atoms: C9_15  and  C10_16 
REMARK    8  A    between atoms: C9_15  and  C11_18 
REMARK       I    between atoms: C10_16  and  N4_21 
REMARK    9  A    between atoms: C11_18  and  C12_19 
REMARK   10  A    between atoms: C11_18  and  C13_20 
REMARK   11  A    between atoms: N4_21  and  C14_22 
REMARK   12  A    between atoms: C14_22  and  C15_23 
REMARK   13  A    between atoms: C14_22  and  C16_25 
REMARK       I    between atoms: C15_23  and  N6_40 
REMARK   14  A    between atoms: C16_25  and  C17_26 
REMARK   15  A    between atoms: C17_26  and  C18_27 
REMARK   16  A    between atoms: C17_26  and  C19_28 
REMARK   17  A    between atoms: C20_29  and  C21_30 
REMARK   18  A    between atoms: C20_29  and  C24_33 
REMARK   19  A    between atoms: C20_29  and  N6_40 
REMARK   20  A    between atoms: C21_30  and  C22_31 
REMARK   21  A    between atoms: C22_31  and  C23_32 
REMARK   22  A    between atoms: C23_32  and  O8_43 
REMARK   23  A    between atoms: C24_33  and  C25_34 
REMARK   24  A    between atoms: C28_38  and  O6_39 
REMARK   25  A    between atoms: C29_42  and  O8_43 
REMARK   26  A    between atoms: C29_42  and  C35_49 
ROOT
ATOM      1  C14 non d ame      -7.870   9.453  64.463  0.00  0.00     0.089 C 
ATOM      2  H20 non d ame      -6.826   9.742  64.342  0.00  0.00     0.087 H 
ENDROOT
BRANCH   1   3
ATOM      3  N4  non d ame      -7.915   8.366  65.430  0.00  0.00    -0.346 N 
ATOM      4  C10 non d ame      -6.668   7.954  66.171  0.00  0.00     0.241 C 
ATOM      5  O4  non d ame      -5.638   8.510  65.969  0.00  0.00    -0.271 OA
ATOM      6  H19 non d ame      -8.800   7.905  65.586  0.00  0.00     0.163 HD
BRANCH   4   7
ATOM      7  C9  non d ame      -6.733   6.831  67.173  0.00  0.00     0.092 C 
ATOM      8  H11 non d ame      -6.352   7.183  68.131  0.00  0.00     0.088 H 
BRANCH   7   9
ATOM      9  N3  non d ame      -8.131   6.441  67.379  0.00  0.00    -0.346 N 
ATOM     10  C7  non d ame      -8.785   6.741  68.629  0.00  0.00     0.240 C 
ATOM     11  O3  non d ame      -8.201   7.293  69.480  0.00  0.00    -0.271 OA
ATOM     12  H10 non d ame      -8.648   5.963  66.655  0.00  0.00     0.163 HD
BRANCH  10  13
ATOM     13  C6  non d ame     -10.273   6.321  68.844  0.00  0.00     0.086 C 
ATOM     14  H6  non d ame     -10.384   5.526  69.582  0.00  0.00     0.086 H 
BRANCH  13  15
ATOM     15  N2  non d ame     -11.017   7.463  69.348  0.00  0.00    -0.343 N 
ATOM     16  C5  non d ame     -11.562   7.427  70.707  0.00  0.00     0.273 C 
ATOM     17  O2  non d ame     -11.398   6.473  71.386  0.00  0.00    -0.266 OA
ATOM     18  H5  non d ame     -11.155   8.273  68.760  0.00  0.00     0.163 HD
BRANCH  16  19
ATOM     19  C4  non d ame     -12.349   8.628  71.253  0.00  0.00     0.154 A 
ATOM     20  C1  non d ame     -12.078  10.015  71.026  0.00  0.00    -0.017 A 
ATOM     21  C2  non d ame     -13.084  10.703  71.741  0.00  0.00     0.077 A 
ATOM     22  H1  non d ame     -11.275  10.454  70.434  0.00  0.00     0.091 H 
ATOM     23  O1  non d ame     -13.839   9.808  72.306  0.00  0.00    -0.218 OA
ATOM     24  N1  non d ame     -13.430   8.590  72.037  0.00  0.00    -0.123 NA
BRANCH  21  25
ATOM     25  C3  non d ame     -13.253  12.214  71.831  0.00  0.00    -0.029 C 
ATOM     26  H2  non d ame     -13.982  12.544  71.090  0.00  0.00     0.036 H 
ATOM     27  H3  non d ame     -13.601  12.482  72.828  0.00  0.00     0.036 H 
ATOM     28  H4  non d ame     -12.295  12.699  71.638  0.00  0.00     0.036 H 
ENDBRANCH  21  25
ENDBRANCH  16  19
ENDBRANCH  13  15
BRANCH  13  29
ATOM     29  C8  non d ame     -10.861   5.856  67.536  0.00  0.00    -0.049 C 
ATOM     30  H7  non d ame     -10.175   5.159  67.056  0.00  0.00     0.030 H 
ATOM     31  H8  non d ame     -11.813   5.360  67.722  0.00  0.00     0.030 H 
ATOM     32  H9  non d ame     -11.020   6.715  66.885  0.00  0.00     0.030 H 
ENDBRANCH  13  29
ENDBRANCH  10  13
ENDBRANCH   7   9
BRANCH   7  33
ATOM     33  C11 non d ame      -5.931   5.610  66.636  0.00  0.00    -0.033 C 
ATOM     34  H12 non d ame      -4.871   5.843  66.736  0.00  0.00     0.042 H 
BRANCH  33  35
ATOM     35  C12 non d ame      -6.212   4.329  67.482  0.00  0.00    -0.071 C 
ATOM     36  H13 non d ame      -6.957   4.554  68.246  0.00  0.00     0.028 H 
ATOM     37  H14 non d ame      -6.587   3.539  66.831  0.00  0.00     0.028 H 
ATOM     38  H15 non d ame      -5.289   4.000  67.959  0.00  0.00     0.028 H 
ENDBRANCH  33  35
BRANCH  33  39
ATOM     39  C13 non d ame      -6.231   5.365  65.122  0.00  0.00    -0.071 C 
ATOM     40  H16 non d ame      -5.543   5.953  64.515  0.00  0.00     0.028 H 
ATOM     41  H17 non d ame      -6.104   4.307  64.892  0.00  0.00     0.028 H 
ATOM     42  H18 non d ame      -7.256   5.664  64.902  0.00  0.00     0.028 H 
ENDBRANCH  33  39
ENDBRANCH   7  33
ENDBRANCH   4   7
ENDBRANCH   1   3
BRANCH   1  43
ATOM     43  C15 non d ame      -8.745  10.625  64.994  0.00  0.00     0.240 C 
ATOM     44  O5  non d ame      -9.778  10.878  64.464  0.00  0.00    -0.271 OA
ATOM     45  N6  non d ame      -8.299  11.426  66.169  0.00  0.00    -0.355 N 
ATOM     46  H46 non d ame      -7.426  11.218  66.630  0.00  0.00     0.162 HD
BRANCH  45  47
ATOM     47  C20 non d ame      -9.143  12.536  66.662  0.00  0.00     0.013 C 
ATOM     48  H30 non d ame      -9.859  12.786  65.879  0.00  0.00     0.072 H 
BRANCH  47  49
ATOM     49  C21 non d ame      -8.269  13.732  66.965  0.00  0.00    -0.038 C 
ATOM     50  H31 non d ame      -7.603  13.835  66.108  0.00  0.00     0.036 H 
ATOM     51  H32 non d ame      -8.955  14.539  67.224  0.00  0.00     0.036 H 
BRANCH  49  52
ATOM     52  C22 non d ame      -7.364  13.516  68.197  0.00  0.00     0.018 C 
ATOM     53  H33 non d ame      -7.788  12.664  68.729  0.00  0.00     0.048 H 
ATOM     54  H34 non d ame      -6.346  13.465  67.811  0.00  0.00     0.048 H 
BRANCH  52  55
ATOM     55  C23 non d ame      -7.382  14.700  69.203  0.00  0.00     0.259 C 
ATOM     56  O7  non d ame      -6.655  14.704  70.143  0.00  0.00    -0.265 OA
BRANCH  55  57
ATOM     57  O8  non d ame      -8.287  15.778  68.994  0.00  0.00    -0.317 OA
BRANCH  57  58
ATOM     58  C29 non d ame      -7.663  16.984  68.546  0.00  0.00     0.052 C 
ATOM     59  H47 non d ame      -7.275  17.467  69.443  0.00  0.00     0.082 H 
ATOM     60  H48 non d ame      -6.981  16.685  67.750  0.00  0.00     0.082 H 
BRANCH  58  61
ATOM     61  C35 non d ame      -8.762  17.893  67.934  0.00  0.00    -0.034 A 
ATOM     62  C30 non d ame      -9.110  19.084  68.563  0.00  0.00    -0.075 A 
ATOM     63  C31 non d ame     -10.098  19.901  68.014  0.00  0.00    -0.082 A 
ATOM     64  H49 non d ame      -8.609  19.378  69.485  0.00  0.00     0.084 H 
ATOM     65  C32 non d ame     -10.741  19.521  66.833  0.00  0.00    -0.083 A 
ATOM     66  H50 non d ame     -10.366  20.835  68.508  0.00  0.00     0.083 H 
ATOM     67  C33 non d ame     -10.392  18.330  66.211  0.00  0.00    -0.082 A 
ATOM     68  H51 non d ame     -11.513  20.154  66.397  0.00  0.00     0.083 H 
ATOM     69  C34 non d ame      -9.404  17.512  66.755  0.00  0.00    -0.075 A 
ATOM     70  H52 non d ame     -10.897  18.035  65.291  0.00  0.00     0.083 H 
ATOM     71  H53 non d ame      -9.136  16.578  66.260  0.00  0.00     0.084 H 
ENDBRANCH  58  61
ENDBRANCH  57  58
ENDBRANCH  55  57
ENDBRANCH  52  55
ENDBRANCH  49  52
ENDBRANCH  47  49
BRANCH  47  72
ATOM     72  C24 non d ame      -9.875  12.104  67.931  0.00  0.00    -0.039 C 
ATOM     73  H35 non d ame      -9.766  11.020  67.974  0.00  0.00     0.036 H 
ATOM     74  H36 non d ame      -9.464  12.724  68.728  0.00  0.00     0.036 H 
BRANCH  72  75
ATOM     75  C25 non d ame     -11.443  12.419  67.847  0.00  0.00    -0.001 C 
ATOM     76  C26 non d ame     -11.841  12.877  66.319  0.00  0.00    -0.035 C 
ATOM     77  C27 non d ame     -12.533  14.041  66.379  0.00  0.00     0.085 C 
ATOM     78  H38 non d ame     -10.943  13.143  65.763  0.00  0.00     0.036 H 
ATOM     79  H39 non d ame     -12.559  12.176  65.893  0.00  0.00     0.036 H 
ATOM     80  N5  non d ame     -12.360  14.586  67.776  0.00  0.00    -0.049 N 
ATOM     81  H40 non d ame     -12.039  14.709  65.673  0.00  0.00     0.075 H 
ATOM     82  H41 non d ame     -13.577  13.767  66.231  0.00  0.00     0.075 H 
ATOM     83  C28 non d ame     -11.773  13.368  68.659  0.00  0.00     0.193 C 
ATOM     84  H42 non d ame     -11.656  15.308  67.717  0.00  0.00     0.280 HD
ATOM     85  H43 non d ame     -13.286  14.810  68.113  0.00  0.00     0.280 HD
ATOM     86  H44 non d ame     -12.418  12.823  69.348  0.00  0.00     0.129 H 
ATOM     87  H37 non d ame     -12.047  11.633  68.303  0.00  0.00     0.046 H 
BRANCH  83  88
ATOM     88  O6  non d ame     -10.667  13.816  69.443  0.00  0.00    -0.369 OA
ATOM     89  H45 non d ame     -10.744  13.466  70.334  0.00  0.00     0.212 HD
ENDBRANCH  83  88
ENDBRANCH  72  75
ENDBRANCH  47  72
ENDBRANCH  45  47
ENDBRANCH   1  43
BRANCH   1  90
ATOM     90  C16 non d ame      -8.425   8.960  63.137  0.00  0.00    -0.035 C 
ATOM     91  H21 non d ame      -8.479   7.875  63.232  0.00  0.00     0.037 H 
ATOM     92  H22 non d ame      -9.335   9.538  62.972  0.00  0.00     0.037 H 
BRANCH  90  93
ATOM     93  C17 non d ame      -7.491   9.251  61.919  0.00  0.00    -0.059 C 
ATOM     94  H23 non d ame      -7.701   8.502  61.155  0.00  0.00     0.038 H 
BRANCH  93  95
ATOM     95  C18 non d ame      -7.759  10.658  61.294  0.00  0.00    -0.073 C 
ATOM     96  H24 non d ame      -8.780  10.965  61.516  0.00  0.00     0.028 H 
ATOM     97  H25 non d ame      -7.061  11.381  61.717  0.00  0.00     0.028 H 
ATOM     98  H26 non d ame      -7.620  10.607  60.214  0.00  0.00     0.028 H 
ENDBRANCH  93  95
BRANCH  93  99
ATOM     99  C19 non d ame      -6.019   9.100  62.311  0.00  0.00    -0.073 C 
ATOM    100  H27 non d ame      -5.553   8.337  61.687  0.00  0.00     0.028 H 
ATOM    101  H28 non d ame      -5.506  10.051  62.168  0.00  0.00     0.028 H 
ATOM    102  H29 non d ame      -5.950   8.805  63.358  0.00  0.00     0.028 H 
ENDBRANCH  93  99
ENDBRANCH  90  93
ENDBRANCH   1  90
TORSDOF 26
ENDMDL
MODEL 11
REMARK VINA RESULT:      -6.4      3.959      7.689
REMARK  26 active torsions:
REMARK  status: ('A' for Active; 'I' for Inactive)
REMARK    1  A    between atoms: C2_2  and  C3_3 
REMARK    2  A    between atoms: C4_6  and  C5_7 
REMARK       I    between atoms: C5_7  and  N2_9 
REMARK    3  A    between atoms: N2_9  and  C6_10 
REMARK    4  A    between atoms: C6_10  and  C7_11 
REMARK    5  A    between atoms: C6_10  and  C8_13 
REMARK       I    between atoms: C7_11  and  N3_14 
REMARK    6  A    between atoms: N3_14  and  C9_15 
REMARK    7  A    between atoms: C9_15  and  C10_16 
REMARK    8  A    between atoms: C9_15  and  C11_18 
REMARK       I    between atoms: C10_16  and  N4_21 
REMARK    9  A    between atoms: C11_18  and  C12_19 
REMARK   10  A    between atoms: C11_18  and  C13_20 
REMARK   11  A    between atoms: N4_21  and  C14_22 
REMARK   12  A    between atoms: C14_22  and  C15_23 
REMARK   13  A    between atoms: C14_22  and  C16_25 
REMARK       I    between atoms: C15_23  and  N6_40 
REMARK   14  A    between atoms: C16_25  and  C17_26 
REMARK   15  A    between atoms: C17_26  and  C18_27 
REMARK   16  A    between atoms: C17_26  and  C19_28 
REMARK   17  A    between atoms: C20_29  and  C21_30 
REMARK   18  A    between atoms: C20_29  and  C24_33 
REMARK   19  A    between atoms: C20_29  and  N6_40 
REMARK   20  A    between atoms: C21_30  and  C22_31 
REMARK   21  A    between atoms: C22_31  and  C23_32 
REMARK   22  A    between atoms: C23_32  and  O8_43 
REMARK   23  A    between atoms: C24_33  and  C25_34 
REMARK   24  A    between atoms: C28_38  and  O6_39 
REMARK   25  A    between atoms: C29_42  and  O8_43 
REMARK   26  A    between atoms: C29_42  and  C35_49 
ROOT
ATOM      1  C14 non d ame      -7.547   7.313  66.370  0.00  0.00     0.089 C 
ATOM      2  H20 non d ame      -6.481   7.118  66.247  0.00  0.00     0.087 H 
ENDROOT
BRANCH   1   3
ATOM      3  N4  non d ame      -7.914   6.912  67.720  0.00  0.00    -0.346 N 
ATOM      4  C10 non d ame      -7.211   5.758  68.389  0.00  0.00     0.241 C 
ATOM      5  O4  non d ame      -6.355   5.165  67.820  0.00  0.00    -0.271 OA
ATOM      6  H19 non d ame      -8.646   7.429  68.186  0.00  0.00     0.163 HD
BRANCH   4   7
ATOM      7  C9  non d ame      -7.599   5.361  69.789  0.00  0.00     0.092 C 
ATOM      8  H11 non d ame      -6.726   4.957  70.302  0.00  0.00     0.088 H 
BRANCH   7   9
ATOM      9  N3  non d ame      -8.028   6.549  70.533  0.00  0.00    -0.346 N 
ATOM     10  C7  non d ame      -7.555   6.766  71.878  0.00  0.00     0.240 C 
ATOM     11  O3  non d ame      -6.830   5.995  72.377  0.00  0.00    -0.271 OA
ATOM     12  H10 non d ame      -8.655   7.222  70.117  0.00  0.00     0.163 HD
BRANCH  10  13
ATOM     13  C6  non d ame      -8.018   8.031  72.666  0.00  0.00     0.086 C 
ATOM     14  H6  non d ame      -7.723   8.961  72.182  0.00  0.00     0.086 H 
BRANCH  13  15
ATOM     15  N2  non d ame      -9.470   8.039  72.733  0.00  0.00    -0.343 N 
ATOM     16  C5  non d ame     -10.236   8.738  71.699  0.00  0.00     0.273 C 
ATOM     17  O2  non d ame      -9.674   9.293  70.819  0.00  0.00    -0.266 OA
ATOM     18  H5  non d ame      -9.941   7.565  73.490  0.00  0.00     0.163 HD
BRANCH  16  19
ATOM     19  C4  non d ame     -11.771   8.754  71.756  0.00  0.00     0.154 A 
ATOM     20  C1  non d ame     -12.649   7.623  71.743  0.00  0.00    -0.017 A 
ATOM     21  C2  non d ame     -13.949   8.171  71.814  0.00  0.00     0.077 A 
ATOM     22  H1  non d ame     -12.383   6.567  71.689  0.00  0.00     0.091 H 
ATOM     23  O1  non d ame     -13.822   9.465  71.864  0.00  0.00    -0.218 OA
ATOM     24  N1  non d ame     -12.561   9.829  71.831  0.00  0.00    -0.123 NA
BRANCH  21  25
ATOM     25  C3  non d ame     -15.256   7.391  71.830  0.00  0.00    -0.029 C 
ATOM     26  H2  non d ame     -15.886   7.718  71.001  0.00  0.00     0.036 H 
ATOM     27  H3  non d ame     -15.045   6.327  71.728  0.00  0.00     0.036 H 
ATOM     28  H4  non d ame     -15.775   7.570  72.772  0.00  0.00     0.036 H 
ENDBRANCH  21  25
ENDBRANCH  16  19
ENDBRANCH  13  15
BRANCH  13  29
ATOM     29  C8  non d ame      -7.437   8.001  74.057  0.00  0.00    -0.049 C 
ATOM     30  H7  non d ame      -6.391   8.306  74.021  0.00  0.00     0.030 H 
ATOM     31  H8  non d ame      -7.993   8.684  74.699  0.00  0.00     0.030 H 
ATOM     32  H9  non d ame      -7.506   6.989  74.457  0.00  0.00     0.030 H 
ENDBRANCH  13  29
ENDBRANCH  10  13
ENDBRANCH   7   9
BRANCH   7  33
ATOM     33  C11 non d ame      -8.770   4.337  69.732  0.00  0.00    -0.033 C 
ATOM     34  H12 non d ame      -8.743   3.861  68.752  0.00  0.00     0.042 H 
BRANCH  33  35
ATOM     35  C12 non d ame      -8.597   3.215  70.803  0.00  0.00    -0.071 C 
ATOM     36  H13 non d ame      -8.875   3.603  71.784  0.00  0.00     0.028 H 
ATOM     37  H14 non d ame      -9.240   2.371  70.552  0.00  0.00     0.028 H 
ATOM     38  H15 non d ame      -7.558   2.889  70.822  0.00  0.00     0.028 H 
ENDBRANCH  33  35
BRANCH  33  39
ATOM     39  C13 non d ame     -10.149   5.055  69.882  0.00  0.00    -0.071 C 
ATOM     40  H16 non d ame     -10.217   5.866  69.157  0.00  0.00     0.028 H 
ATOM     41  H17 non d ame     -10.953   4.340  69.703  0.00  0.00     0.028 H 
ATOM     42  H18 non d ame     -10.240   5.460  70.889  0.00  0.00     0.028 H 
ENDBRANCH  33  39
ENDBRANCH   7  33
ENDBRANCH   4   7
ENDBRANCH   1   3
BRANCH   1  43
ATOM     43  C15 non d ame      -7.894   8.818  66.188  0.00  0.00     0.240 C 
ATOM     44  O5  non d ame      -7.418   9.430  65.287  0.00  0.00    -0.271 OA
ATOM     45  N6  non d ame      -8.827   9.496  67.133  0.00  0.00    -0.355 N 
ATOM     46  H46 non d ame      -9.242   8.985  67.899  0.00  0.00     0.162 HD
BRANCH  45  47
ATOM     47  C20 non d ame      -9.148  10.927  66.946  0.00  0.00     0.013 C 
ATOM     48  H30 non d ame      -8.325  11.387  66.400  0.00  0.00     0.072 H 
BRANCH  47  49
ATOM     49  C21 non d ame      -9.302  11.585  68.298  0.00  0.00    -0.038 C 
ATOM     50  H31 non d ame     -10.004  10.961  68.852  0.00  0.00     0.036 H 
ATOM     51  H32 non d ame      -8.289  11.730  68.673  0.00  0.00     0.036 H 
BRANCH  49  52
ATOM     52  C22 non d ame      -9.940  12.989  68.212  0.00  0.00     0.018 C 
ATOM     53  H33 non d ame      -9.283  13.647  68.781  0.00  0.00     0.048 H 
ATOM     54  H34 non d ame     -10.109  13.172  67.151  0.00  0.00     0.048 H 
BRANCH  52  55
ATOM     55  C23 non d ame     -11.335  13.086  68.891  0.00  0.00     0.259 C 
ATOM     56  O7  non d ame     -11.711  12.227  69.621  0.00  0.00    -0.265 OA
BRANCH  55  57
ATOM     57  O8  non d ame     -12.165  14.208  68.619  0.00  0.00    -0.317 OA
BRANCH  57  58
ATOM     58  C29 non d ame     -11.723  15.422  69.234  0.00  0.00     0.052 C 
ATOM     59  H47 non d ame     -10.642  15.325  69.334  0.00  0.00     0.082 H 
ATOM     60  H48 non d ame     -12.144  16.227  68.632  0.00  0.00     0.082 H 
BRANCH  58  61
ATOM     61  C35 non d ame     -12.344  15.494  70.654  0.00  0.00    -0.034 A 
ATOM     62  C30 non d ame     -11.570  15.911  71.732  0.00  0.00    -0.075 A 
ATOM     63  C31 non d ame     -12.127  15.976  73.008  0.00  0.00    -0.082 A 
ATOM     64  H49 non d ame     -10.527  16.188  71.577  0.00  0.00     0.084 H 
ATOM     65  C32 non d ame     -13.464  15.618  73.205  0.00  0.00    -0.083 A 
ATOM     66  H50 non d ame     -11.519  16.306  73.851  0.00  0.00     0.083 H 
ATOM     67  C33 non d ame     -14.231  15.199  72.127  0.00  0.00    -0.082 A 
ATOM     68  H51 non d ame     -13.908  15.667  74.199  0.00  0.00     0.083 H 
ATOM     69  C34 non d ame     -13.679  15.136  70.849  0.00  0.00    -0.075 A 
ATOM     70  H52 non d ame     -15.273  14.919  72.284  0.00  0.00     0.083 H 
ATOM     71  H53 non d ame     -14.288  14.806  70.007  0.00  0.00     0.084 H 
ENDBRANCH  58  61
ENDBRANCH  57  58
ENDBRANCH  55  57
ENDBRANCH  52  55
ENDBRANCH  49  52
ENDBRANCH  47  49
BRANCH  47  72
ATOM     72  C24 non d ame     -10.450  11.066  66.159  0.00  0.00    -0.039 C 
ATOM     73  H35 non d ame     -10.704  10.056  65.838  0.00  0.00     0.036 H 
ATOM     74  H36 non d ame     -11.127  11.616  66.814  0.00  0.00     0.036 H 
BRANCH  72  75
ATOM     75  C25 non d ame     -10.252  11.948  64.837  0.00  0.00    -0.001 C 
ATOM     76  C26 non d ame     -11.505  13.000  64.672  0.00  0.00    -0.035 C 
ATOM     77  C27 non d ame     -12.014  12.879  63.422  0.00  0.00     0.085 C 
ATOM     78  H38 non d ame     -12.332  12.699  65.314  0.00  0.00     0.036 H 
ATOM     79  H39 non d ame     -11.138  14.026  64.699  0.00  0.00     0.036 H 
ATOM     80  N5  non d ame     -11.438  11.616  62.831  0.00  0.00    -0.049 N 
ATOM     81  H40 non d ame     -13.089  12.750  63.557  0.00  0.00     0.075 H 
ATOM     82  H41 non d ame     -11.633  13.736  62.869  0.00  0.00     0.075 H 
ATOM     83  C28 non d ame     -10.200  11.204  63.782  0.00  0.00     0.193 C 
ATOM     84  H42 non d ame     -12.155  10.909  62.911  0.00  0.00     0.280 HD
ATOM     85  H43 non d ame     -11.074  11.865  61.922  0.00  0.00     0.280 HD
ATOM     86  H44 non d ame      -9.173  11.382  63.464  0.00  0.00     0.129 H 
ATOM     87  H37 non d ame      -9.245  12.360  64.762  0.00  0.00     0.046 H 
BRANCH  83  88
ATOM     88  O6  non d ame     -10.265   9.813  64.101  0.00  0.00    -0.369 OA
ATOM     89  H45 non d ame      -9.971   9.298  63.347  0.00  0.00     0.212 HD
ENDBRANCH  83  88
ENDBRANCH  72  75
ENDBRANCH  47  72
ENDBRANCH  45  47
ENDBRANCH   1  43
BRANCH   1  90
ATOM     90  C16 non d ame      -8.340   6.482  65.373  0.00  0.00    -0.035 C 
ATOM     91  H21 non d ame      -8.613   5.572  65.909  0.00  0.00     0.037 H 
ATOM     92  H22 non d ame      -9.118   7.147  64.997  0.00  0.00     0.037 H 
BRANCH  90  93
ATOM     93  C17 non d ame      -7.507   6.029  64.132  0.00  0.00    -0.059 C 
ATOM     94  H23 non d ame      -7.755   4.987  63.930  0.00  0.00     0.038 H 
BRANCH  93  95
ATOM     95  C18 non d ame      -7.856   6.858  62.854  0.00  0.00    -0.073 C 
ATOM     96  H24 non d ame      -7.347   6.429  61.992  0.00  0.00     0.028 H 
ATOM     97  H25 non d ame      -8.934   6.835  62.689  0.00  0.00     0.028 H 
ATOM     98  H26 non d ame      -7.533   7.890  62.991  0.00  0.00     0.028 H 
ENDBRANCH  93  95
BRANCH  93  99
ATOM     99  C19 non d ame      -6.007   6.091  64.428  0.00  0.00    -0.073 C 
ATOM    100  H27 non d ame      -5.528   6.785  63.736  0.00  0.00     0.028 H 
ATOM    101  H28 non d ame      -5.853   6.434  65.452  0.00  0.00     0.028 H 
ATOM    102  H29 non d ame      -5.571   5.100  64.308  0.00  0.00     0.028 H 
ENDBRANCH  93  99
ENDBRANCH  90  93
ENDBRANCH   1  90
TORSDOF 26
ENDMDL
MODEL 12
REMARK VINA RESULT:      -6.4      2.640      9.112
REMARK  26 active torsions:
REMARK  status: ('A' for Active; 'I' for Inactive)
REMARK    1  A    between atoms: C2_2  and  C3_3 
REMARK    2  A    between atoms: C4_6  and  C5_7 
REMARK       I    between atoms: C5_7  and  N2_9 
REMARK    3  A    between atoms: N2_9  and  C6_10 
REMARK    4  A    between atoms: C6_10  and  C7_11 
REMARK    5  A    between atoms: C6_10  and  C8_13 
REMARK       I    between atoms: C7_11  and  N3_14 
REMARK    6  A    between atoms: N3_14  and  C9_15 
REMARK    7  A    between atoms: C9_15  and  C10_16 
REMARK    8  A    between atoms: C9_15  and  C11_18 
REMARK       I    between atoms: C10_16  and  N4_21 
REMARK    9  A    between atoms: C11_18  and  C12_19 
REMARK   10  A    between atoms: C11_18  and  C13_20 
REMARK   11  A    between atoms: N4_21  and  C14_22 
REMARK   12  A    between atoms: C14_22  and  C15_23 
REMARK   13  A    between atoms: C14_22  and  C16_25 
REMARK       I    between atoms: C15_23  and  N6_40 
REMARK   14  A    between atoms: C16_25  and  C17_26 
REMARK   15  A    between atoms: C17_26  and  C18_27 
REMARK   16  A    between atoms: C17_26  and  C19_28 
REMARK   17  A    between atoms: C20_29  and  C21_30 
REMARK   18  A    between atoms: C20_29  and  C24_33 
REMARK   19  A    between atoms: C20_29  and  N6_40 
REMARK   20  A    between atoms: C21_30  and  C22_31 
REMARK   21  A    between atoms: C22_31  and  C23_32 
REMARK   22  A    between atoms: C23_32  and  O8_43 
REMARK   23  A    between atoms: C24_33  and  C25_34 
REMARK   24  A    between atoms: C28_38  and  O6_39 
REMARK   25  A    between atoms: C29_42  and  O8_43 
REMARK   26  A    between atoms: C29_42  and  C35_49 
ROOT
ATOM      1  C14 non d ame      -6.888  13.013  67.851  0.00  0.00     0.089 C 
ATOM      2  H20 non d ame      -6.217  13.009  66.991  0.00  0.00     0.087 H 
ENDROOT
BRANCH   1   3
ATOM      3  N4  non d ame      -7.201  14.401  68.155  0.00  0.00    -0.346 N 
ATOM      4  C10 non d ame      -6.212  15.493  67.833  0.00  0.00     0.241 C 
ATOM      5  O4  non d ame      -5.169  15.230  67.331  0.00  0.00    -0.271 OA
ATOM      6  H19 non d ame      -8.092  14.605  68.585  0.00  0.00     0.163 HD
BRANCH   4   7
ATOM      7  C9  non d ame      -6.554  16.925  68.150  0.00  0.00     0.092 C 
ATOM      8  H11 non d ame      -6.294  17.553  67.298  0.00  0.00     0.088 H 
BRANCH   7   9
ATOM      9  N3  non d ame      -8.000  17.049  68.354  0.00  0.00    -0.346 N 
ATOM     10  C7  non d ame      -8.854  17.415  67.251  0.00  0.00     0.240 C 
ATOM     11  O3  non d ame      -8.394  17.616  66.193  0.00  0.00    -0.271 OA
ATOM     12  H10 non d ame      -8.411  16.881  69.261  0.00  0.00     0.163 HD
BRANCH  10  13
ATOM     13  C6  non d ame     -10.393  17.548  67.475  0.00  0.00     0.086 C 
ATOM     14  H6  non d ame     -10.974  16.939  66.783  0.00  0.00     0.086 H 
BRANCH  13  15
ATOM     15  N2  non d ame     -10.717  17.082  68.813  0.00  0.00    -0.343 N 
ATOM     16  C5  non d ame     -11.562  15.897  68.979  0.00  0.00     0.273 C 
ATOM     17  O2  non d ame     -11.978  15.329  68.030  0.00  0.00    -0.266 OA
ATOM     18  H5  non d ame     -10.359  17.576  69.618  0.00  0.00     0.163 HD
BRANCH  16  19
ATOM     19  C4  non d ame     -11.911  15.392  70.388  0.00  0.00     0.154 A 
ATOM     20  C1  non d ame     -11.935  16.155  71.598  0.00  0.00    -0.017 A 
ATOM     21  C2  non d ame     -12.314  15.234  72.601  0.00  0.00     0.077 A 
ATOM     22  H1  non d ame     -11.713  17.214  71.729  0.00  0.00     0.091 H 
ATOM     23  O1  non d ame     -12.485  14.081  72.023  0.00  0.00    -0.218 OA
ATOM     24  N1  non d ame     -12.255  14.148  70.731  0.00  0.00    -0.123 NA
BRANCH  21  25
ATOM     25  C3  non d ame     -12.489  15.536  74.083  0.00  0.00    -0.029 C 
ATOM     26  H2  non d ame     -13.539  15.742  74.290  0.00  0.00     0.036 H 
ATOM     27  H3  non d ame     -12.164  14.677  74.670  0.00  0.00     0.036 H 
ATOM     28  H4  non d ame     -11.889  16.407  74.350  0.00  0.00     0.036 H 
ENDBRANCH  21  25
ENDBRANCH  16  19
ENDBRANCH  13  15
BRANCH  13  29
ATOM     29  C8  non d ame     -10.804  18.990  67.317  0.00  0.00    -0.049 C 
ATOM     30  H7  non d ame     -11.861  19.041  67.054  0.00  0.00     0.030 H 
ATOM     31  H8  non d ame     -10.636  19.521  68.254  0.00  0.00     0.030 H 
ATOM     32  H9  non d ame     -10.212  19.452  66.527  0.00  0.00     0.030 H 
ENDBRANCH  13  29
ENDBRANCH  10  13
ENDBRANCH   7   9
BRANCH   7  33
ATOM     33  C11 non d ame      -5.811  17.361  69.447  0.00  0.00    -0.033 C 
ATOM     34  H12 non d ame      -6.504  17.961  70.037  0.00  0.00     0.042 H 
BRANCH  33  35
ATOM     35  C12 non d ame      -5.406  16.127  70.312  0.00  0.00    -0.071 C 
ATOM     36  H13 non d ame      -4.545  15.633  69.860  0.00  0.00     0.028 H 
ATOM     37  H14 non d ame      -5.148  16.457  71.318  0.00  0.00     0.028 H 
ATOM     38  H15 non d ame      -6.241  15.429  70.361  0.00  0.00     0.028 H 
ENDBRANCH  33  35
BRANCH  33  39
ATOM     39  C13 non d ame      -4.570  18.248  69.110  0.00  0.00    -0.071 C 
ATOM     40  H16 non d ame      -4.545  18.446  68.038  0.00  0.00     0.028 H 
ATOM     41  H17 non d ame      -4.639  19.192  69.652  0.00  0.00     0.028 H 
ATOM     42  H18 non d ame      -3.660  17.726  69.404  0.00  0.00     0.028 H 
ENDBRANCH  33  39
ENDBRANCH   7  33
ENDBRANCH   4   7
ENDBRANCH   1   3
BRANCH   1  43
ATOM     43  C15 non d ame      -8.217  12.258  67.562  0.00  0.00     0.240 C 
ATOM     44  O5  non d ame      -8.973  12.030  68.451  0.00  0.00    -0.271 OA
ATOM     45  N6  non d ame      -8.553  11.827  66.175  0.00  0.00    -0.355 N 
ATOM     46  H46 non d ame      -7.921  12.020  65.411  0.00  0.00     0.162 HD
BRANCH  45  47
ATOM     47  C20 non d ame      -9.821  11.112  65.916  0.00  0.00     0.013 C 
ATOM     48  H30 non d ame      -9.989  10.419  66.741  0.00  0.00     0.072 H 
BRANCH  47  49
ATOM     49  C21 non d ame      -9.708  10.349  64.615  0.00  0.00    -0.038 C 
ATOM     50  H31 non d ame     -10.732  10.117  64.320  0.00  0.00     0.036 H 
ATOM     51  H32 non d ame      -9.080  10.962  63.969  0.00  0.00     0.036 H 
BRANCH  49  52
ATOM     52  C22 non d ame      -8.982   8.996  64.775  0.00  0.00     0.018 C 
ATOM     53  H33 non d ame      -8.862   8.850  65.849  0.00  0.00     0.048 H 
ATOM     54  H34 non d ame      -9.559   8.280  64.189  0.00  0.00     0.048 H 
BRANCH  52  55
ATOM     55  C23 non d ame      -7.547   8.981  64.178  0.00  0.00     0.259 C 
ATOM     56  O7  non d ame      -6.695   9.668  64.639  0.00  0.00    -0.265 OA
BRANCH  55  57
ATOM     57  O8  non d ame      -7.266   8.144  63.063  0.00  0.00    -0.317 OA
BRANCH  57  58
ATOM     58  C29 non d ame      -7.827   6.832  63.163  0.00  0.00     0.052 C 
ATOM     59  H47 non d ame      -8.806   6.965  63.622  0.00  0.00     0.082 H 
ATOM     60  H48 non d ame      -7.746   6.400  62.165  0.00  0.00     0.082 H 
BRANCH  58  61
ATOM     61  C35 non d ame      -6.939   6.004  64.129  0.00  0.00    -0.034 A 
ATOM     62  C30 non d ame      -7.491   5.448  65.279  0.00  0.00    -0.075 A 
ATOM     63  C31 non d ame      -6.694   4.704  66.147  0.00  0.00    -0.082 A 
ATOM     64  H49 non d ame      -8.549   5.595  65.499  0.00  0.00     0.084 H 
ATOM     65  C32 non d ame      -5.338   4.520  65.864  0.00  0.00    -0.083 A 
ATOM     66  H50 non d ame      -7.130   4.268  67.046  0.00  0.00     0.083 H 
ATOM     67  C33 non d ame      -4.790   5.079  64.718  0.00  0.00    -0.082 A 
ATOM     68  H51 non d ame      -4.707   3.939  66.538  0.00  0.00     0.083 H 
ATOM     69  C34 non d ame      -5.584   5.821  63.846  0.00  0.00    -0.075 A 
ATOM     70  H52 non d ame      -3.731   4.935  64.501  0.00  0.00     0.083 H 
ATOM     71  H53 non d ame      -5.147   6.257  62.947  0.00  0.00     0.084 H 
ENDBRANCH  58  61
ENDBRANCH  57  58
ENDBRANCH  55  57
ENDBRANCH  52  55
ENDBRANCH  49  52
ENDBRANCH  47  49
BRANCH  47  72
ATOM     72  C24 non d ame     -10.969  12.114  65.822  0.00  0.00    -0.039 C 
ATOM     73  H35 non d ame     -11.862  11.516  65.635  0.00  0.00     0.036 H 
ATOM     74  H36 non d ame     -10.900  12.721  66.725  0.00  0.00     0.036 H 
BRANCH  72  75
ATOM     75  C25 non d ame     -10.793  13.102  64.573  0.00  0.00    -0.001 C 
ATOM     76  C26 non d ame     -10.357  14.598  65.100  0.00  0.00    -0.035 C 
ATOM     77  C27 non d ame     -11.190  15.514  64.549  0.00  0.00     0.085 C 
ATOM     78  H38 non d ame     -10.550  14.688  66.169  0.00  0.00     0.036 H 
ATOM     79  H39 non d ame      -9.381  14.866  64.697  0.00  0.00     0.036 H 
ATOM     80  N5  non d ame     -12.352  14.754  63.958  0.00  0.00    -0.049 N 
ATOM     81  H40 non d ame     -11.548  16.120  65.382  0.00  0.00     0.075 H 
ATOM     82  H41 non d ame     -10.621  15.976  63.744  0.00  0.00     0.075 H 
ATOM     83  C28 non d ame     -11.891  13.208  63.902  0.00  0.00     0.193 C 
ATOM     84  H42 non d ame     -13.114  14.839  64.615  0.00  0.00     0.280 HD
ATOM     85  H43 non d ame     -12.462  15.091  63.012  0.00  0.00     0.280 HD
ATOM     86  H44 non d ame     -11.591  12.753  62.958  0.00  0.00     0.129 H 
ATOM     87  H37 non d ame     -10.190  12.661  63.779  0.00  0.00     0.046 H 
BRANCH  83  88
ATOM     88  O6  non d ame     -12.923  12.367  64.421  0.00  0.00    -0.369 OA
ATOM     89  H45 non d ame     -12.529  11.651  64.924  0.00  0.00     0.212 HD
ENDBRANCH  83  88
ENDBRANCH  72  75
ENDBRANCH  47  72
ENDBRANCH  45  47
ENDBRANCH   1  43
BRANCH   1  90
ATOM     90  C16 non d ame      -6.194  12.386  69.049  0.00  0.00    -0.035 C 
ATOM     91  H21 non d ame      -6.104  13.188  69.783  0.00  0.00     0.037 H 
ATOM     92  H22 non d ame      -6.775  11.494  69.285  0.00  0.00     0.037 H 
BRANCH  90  93
ATOM     93  C17 non d ame      -4.741  11.899  68.748  0.00  0.00    -0.059 C 
ATOM     94  H23 non d ame      -4.621  10.915  69.202  0.00  0.00     0.038 H 
BRANCH  93  95
ATOM     95  C18 non d ame      -4.475  11.752  67.215  0.00  0.00    -0.073 C 
ATOM     96  H24 non d ame      -3.628  12.378  66.933  0.00  0.00     0.028 H 
ATOM     97  H25 non d ame      -4.251  10.711  66.984  0.00  0.00     0.028 H 
ATOM     98  H26 non d ame      -5.360  12.066  66.661  0.00  0.00     0.028 H 
ENDBRANCH  93  95
BRANCH  93  99
ATOM     99  C19 non d ame      -3.709  12.827  69.394  0.00  0.00    -0.073 C 
ATOM    100  H27 non d ame      -4.189  13.763  69.680  0.00  0.00     0.028 H 
ATOM    101  H28 non d ame      -3.293  12.346  70.280  0.00  0.00     0.028 H 
ATOM    102  H29 non d ame      -2.909  13.031  68.683  0.00  0.00     0.028 H 
ENDBRANCH  93  99
ENDBRANCH  90  93
ENDBRANCH   1  90
TORSDOF 26
ENDMDL
MODEL 13
REMARK VINA RESULT:      -6.3      2.259      5.746
REMARK  26 active torsions:
REMARK  status: ('A' for Active; 'I' for Inactive)
REMARK    1  A    between atoms: C2_2  and  C3_3 
REMARK    2  A    between atoms: C4_6  and  C5_7 
REMARK       I    between atoms: C5_7  and  N2_9 
REMARK    3  A    between atoms: N2_9  and  C6_10 
REMARK    4  A    between atoms: C6_10  and  C7_11 
REMARK    5  A    between atoms: C6_10  and  C8_13 
REMARK       I    between atoms: C7_11  and  N3_14 
REMARK    6  A    between atoms: N3_14  and  C9_15 
REMARK    7  A    between atoms: C9_15  and  C10_16 
REMARK    8  A    between atoms: C9_15  and  C11_18 
REMARK       I    between atoms: C10_16  and  N4_21 
REMARK    9  A    between atoms: C11_18  and  C12_19 
REMARK   10  A    between atoms: C11_18  and  C13_20 
REMARK   11  A    between atoms: N4_21  and  C14_22 
REMARK   12  A    between atoms: C14_22  and  C15_23 
REMARK   13  A    between atoms: C14_22  and  C16_25 
REMARK       I    between atoms: C15_23  and  N6_40 
REMARK   14  A    between atoms: C16_25  and  C17_26 
REMARK   15  A    between atoms: C17_26  and  C18_27 
REMARK   16  A    between atoms: C17_26  and  C19_28 
REMARK   17  A    between atoms: C20_29  and  C21_30 
REMARK   18  A    between atoms: C20_29  and  C24_33 
REMARK   19  A    between atoms: C20_29  and  N6_40 
REMARK   20  A    between atoms: C21_30  and  C22_31 
REMARK   21  A    between atoms: C22_31  and  C23_32 
REMARK   22  A    between atoms: C23_32  and  O8_43 
REMARK   23  A    between atoms: C24_33  and  C25_34 
REMARK   24  A    between atoms: C28_38  and  O6_39 
REMARK   25  A    between atoms: C29_42  and  O8_43 
REMARK   26  A    between atoms: C29_42  and  C35_49 
ROOT
ATOM      1  C14 non d ame     -10.534   9.515  69.397  0.00  0.00     0.089 C 
ATOM      2  H20 non d ame     -11.021   8.641  68.965  0.00  0.00     0.087 H 
ENDROOT
BRANCH   1   3
ATOM      3  N4  non d ame      -9.211   9.620  68.800  0.00  0.00    -0.346 N 
ATOM      4  C10 non d ame      -8.457   8.377  68.397  0.00  0.00     0.241 C 
ATOM      5  O4  non d ame      -8.934   7.304  68.566  0.00  0.00    -0.271 OA
ATOM      6  H19 non d ame      -8.821  10.542  68.667  0.00  0.00     0.163 HD
BRANCH   4   7
ATOM      7  C9  non d ame      -7.091   8.504  67.776  0.00  0.00     0.092 C 
ATOM      8  H11 non d ame      -6.750   7.519  67.455  0.00  0.00     0.088 H 
BRANCH   7   9
ATOM      9  N3  non d ame      -7.174   9.345  66.578  0.00  0.00    -0.346 N 
ATOM     10  C7  non d ame      -6.688   8.849  65.314  0.00  0.00     0.240 C 
ATOM     11  O3  non d ame      -6.224   7.776  65.243  0.00  0.00    -0.271 OA
ATOM     12  H10 non d ame      -7.570  10.273  66.624  0.00  0.00     0.163 HD
BRANCH  10  13
ATOM     13  C6  non d ame      -6.777   9.749  64.043  0.00  0.00     0.086 C 
ATOM     14  H6  non d ame      -6.943   9.176  63.131  0.00  0.00     0.086 H 
BRANCH  13  15
ATOM     15  N2  non d ame      -7.910  10.649  64.182  0.00  0.00    -0.343 N 
ATOM     16  C5  non d ame      -9.223  10.238  63.681  0.00  0.00     0.273 C 
ATOM     17  O2  non d ame      -9.357   9.182  63.167  0.00  0.00    -0.266 OA
ATOM     18  H5  non d ame      -7.785  11.551  64.620  0.00  0.00     0.163 HD
BRANCH  16  19
ATOM     19  C4  non d ame     -10.430  11.178  63.822  0.00  0.00     0.154 A 
ATOM     20  C1  non d ame     -10.761  11.997  64.948  0.00  0.00    -0.017 A 
ATOM     21  C2  non d ame     -11.951  12.662  64.577  0.00  0.00     0.077 A 
ATOM     22  H1  non d ame     -10.221  12.093  65.890  0.00  0.00     0.091 H 
ATOM     23  O1  non d ame     -12.258  12.265  63.376  0.00  0.00    -0.218 OA
ATOM     24  N1  non d ame     -11.385  11.399  62.915  0.00  0.00    -0.123 NA
BRANCH  21  25
ATOM     25  C3  non d ame     -12.730  13.658  65.425  0.00  0.00    -0.029 C 
ATOM     26  H2  non d ame     -12.472  13.522  66.476  0.00  0.00     0.036 H 
ATOM     27  H3  non d ame     -12.476  14.673  65.118  0.00  0.00     0.036 H 
ATOM     28  H4  non d ame     -13.799  13.495  65.290  0.00  0.00     0.036 H 
ENDBRANCH  21  25
ENDBRANCH  16  19
ENDBRANCH  13  15
BRANCH  13  29
ATOM     29  C8  non d ame      -5.503  10.542  63.895  0.00  0.00    -0.049 C 
ATOM     30  H7  non d ame      -4.790  10.230  64.659  0.00  0.00     0.030 H 
ATOM     31  H8  non d ame      -5.078  10.365  62.907  0.00  0.00     0.030 H 
ATOM     32  H9  non d ame      -5.720  11.603  64.014  0.00  0.00     0.030 H 
ENDBRANCH  13  29
ENDBRANCH  10  13
ENDBRANCH   7   9
BRANCH   7  33
ATOM     33  C11 non d ame      -6.115   9.157  68.798  0.00  0.00    -0.033 C 
ATOM     34  H12 non d ame      -6.443  10.184  68.956  0.00  0.00     0.042 H 
BRANCH  33  35
ATOM     35  C12 non d ame      -6.166   8.431  70.178  0.00  0.00    -0.071 C 
ATOM     36  H13 non d ame      -7.186   8.102  70.377  0.00  0.00     0.028 H 
ATOM     37  H14 non d ame      -5.504   7.565  70.157  0.00  0.00     0.028 H 
ATOM     38  H15 non d ame      -5.845   9.116  70.961  0.00  0.00     0.028 H 
ENDBRANCH  33  35
BRANCH  33  39
ATOM     39  C13 non d ame      -4.658   9.198  68.233  0.00  0.00    -0.071 C 
ATOM     40  H16 non d ame      -4.654   8.820  67.211  0.00  0.00     0.028 H 
ATOM     41  H17 non d ame      -4.293  10.225  68.242  0.00  0.00     0.028 H 
ATOM     42  H18 non d ame      -4.011   8.577  68.853  0.00  0.00     0.028 H 
ENDBRANCH  33  39
ENDBRANCH   7  33
ENDBRANCH   4   7
ENDBRANCH   1   3
BRANCH   1  43
ATOM     43  C15 non d ame     -11.315  10.828  69.101  0.00  0.00     0.240 C 
ATOM     44  O5  non d ame     -11.973  10.915  68.115  0.00  0.00    -0.271 OA
ATOM     45  N6  non d ame     -11.250  11.974  70.053  0.00  0.00    -0.355 N 
ATOM     46  H46 non d ame     -10.698  11.910  70.896  0.00  0.00     0.162 HD
BRANCH  45  47
ATOM     47  C20 non d ame     -12.000  13.214  69.758  0.00  0.00     0.013 C 
ATOM     48  H30 non d ame     -12.574  13.051  68.846  0.00  0.00     0.072 H 
BRANCH  47  49
ATOM     49  C21 non d ame     -11.024  14.352  69.558  0.00  0.00    -0.038 C 
ATOM     50  H31 non d ame     -11.313  15.118  70.278  0.00  0.00     0.036 H 
ATOM     51  H32 non d ame     -10.033  13.901  69.609  0.00  0.00     0.036 H 
BRANCH  49  52
ATOM     52  C22 non d ame     -11.138  15.000  68.161  0.00  0.00     0.018 C 
ATOM     53  H33 non d ame     -10.511  14.398  67.504  0.00  0.00     0.048 H 
ATOM     54  H34 non d ame     -12.207  15.090  67.964  0.00  0.00     0.048 H 
BRANCH  52  55
ATOM     55  C23 non d ame     -10.568  16.444  68.093  0.00  0.00     0.259 C 
ATOM     56  O7  non d ame     -11.230  17.371  68.433  0.00  0.00    -0.265 OA
BRANCH  55  57
ATOM     57  O8  non d ame      -9.248  16.649  67.605  0.00  0.00    -0.317 OA
BRANCH  57  58
ATOM     58  C29 non d ame      -9.191  17.324  66.345  0.00  0.00     0.052 C 
ATOM     59  H47 non d ame      -8.793  16.597  65.638  0.00  0.00     0.082 H 
ATOM     60  H48 non d ame     -10.184  17.746  66.191  0.00  0.00     0.082 H 
BRANCH  58  61
ATOM     61  C35 non d ame      -8.177  18.492  66.472  0.00  0.00    -0.034 A 
ATOM     62  C30 non d ame      -6.947  18.421  65.825  0.00  0.00    -0.075 A 
ATOM     63  C31 non d ame      -6.036  19.469  65.940  0.00  0.00    -0.082 A 
ATOM     64  H49 non d ame      -6.698  17.544  65.228  0.00  0.00     0.084 H 
ATOM     65  C32 non d ame      -6.357  20.592  66.708  0.00  0.00    -0.083 A 
ATOM     66  H50 non d ame      -5.074  19.411  65.429  0.00  0.00     0.083 H 
ATOM     67  C33 non d ame      -7.583  20.657  67.355  0.00  0.00    -0.082 A 
ATOM     68  H51 non d ame      -5.650  21.416  66.802  0.00  0.00     0.083 H 
ATOM     69  C34 non d ame      -8.498  19.612  67.241  0.00  0.00    -0.075 A 
ATOM     70  H52 non d ame      -7.829  21.533  67.955  0.00  0.00     0.083 H 
ATOM     71  H53 non d ame      -9.460  19.672  67.751  0.00  0.00     0.084 H 
ENDBRANCH  58  61
ENDBRANCH  57  58
ENDBRANCH  55  57
ENDBRANCH  52  55
ENDBRANCH  49  52
ENDBRANCH  47  49
BRANCH  47  72
ATOM     72  C24 non d ame     -12.933  13.542  70.922  0.00  0.00    -0.039 C 
ATOM     73  H35 non d ame     -13.942  13.433  70.523  0.00  0.00     0.036 H 
ATOM     74  H36 non d ame     -12.602  12.910  71.746  0.00  0.00     0.036 H 
BRANCH  72  75
ATOM     75  C25 non d ame     -12.775  15.063  71.398  0.00  0.00    -0.001 C 
ATOM     76  C26 non d ame     -11.981  15.119  72.837  0.00  0.00    -0.035 C 
ATOM     77  C27 non d ame     -12.701  15.873  73.703  0.00  0.00     0.085 C 
ATOM     78  H38 non d ame     -11.977  14.133  73.300  0.00  0.00     0.036 H 
ATOM     79  H39 non d ame     -11.050  15.675  72.729  0.00  0.00     0.036 H 
ATOM     80  N5  non d ame     -14.068  16.064  73.092  0.00  0.00    -0.049 N 
ATOM     81  H40 non d ame     -12.796  15.269  74.606  0.00  0.00     0.075 H 
ATOM     82  H41 non d ame     -12.192  16.836  73.743  0.00  0.00     0.075 H 
ATOM     83  C28 non d ame     -13.927  15.629  71.543  0.00  0.00     0.193 C 
ATOM     84  H42 non d ame     -14.682  15.410  73.555  0.00  0.00     0.280 HD
ATOM     85  H43 non d ame     -14.263  17.054  73.131  0.00  0.00     0.280 HD
ATOM     86  H44 non d ame     -13.877  16.384  70.759  0.00  0.00     0.129 H 
ATOM     87  H37 non d ame     -12.405  15.709  70.602  0.00  0.00     0.046 H 
BRANCH  83  88
ATOM     88  O6  non d ame     -15.003  14.765  71.174  0.00  0.00    -0.369 OA
ATOM     89  H45 non d ame     -14.782  13.861  71.409  0.00  0.00     0.212 HD
ENDBRANCH  83  88
ENDBRANCH  72  75
ENDBRANCH  47  72
ENDBRANCH  45  47
ENDBRANCH   1  43
BRANCH   1  90
ATOM     90  C16 non d ame     -10.388   9.335  70.899  0.00  0.00    -0.035 C 
ATOM     91  H21 non d ame      -9.433   8.827  71.037  0.00  0.00     0.037 H 
ATOM     92  H22 non d ame     -10.544  10.326  71.326  0.00  0.00     0.037 H 
BRANCH  90  93
ATOM     93  C17 non d ame     -11.476   8.407  71.527  0.00  0.00    -0.059 C 
ATOM     94  H23 non d ame     -11.782   7.692  70.763  0.00  0.00     0.038 H 
BRANCH  93  95
ATOM     95  C18 non d ame     -10.927   7.596  72.745  0.00  0.00    -0.073 C 
ATOM     96  H24 non d ame     -10.937   8.226  73.634  0.00  0.00     0.028 H 
ATOM     97  H25 non d ame     -11.556   6.721  72.912  0.00  0.00     0.028 H 
ATOM     98  H26 non d ame      -9.906   7.275  72.537  0.00  0.00     0.028 H 
ENDBRANCH  93  95
BRANCH  93  99
ATOM     99  C19 non d ame     -12.717   9.210  71.923  0.00  0.00    -0.073 C 
ATOM    100  H27 non d ame     -12.411  10.165  72.351  0.00  0.00     0.028 H 
ATOM    101  H28 non d ame     -13.331   9.388  71.040  0.00  0.00     0.028 H 
ATOM    102  H29 non d ame     -13.293   8.650  72.659  0.00  0.00     0.028 H 
ENDBRANCH  93  99
ENDBRANCH  90  93
ENDBRANCH   1  90
TORSDOF 26
ENDMDL
MODEL 14
REMARK VINA RESULT:      -6.3      3.121      6.187
REMARK  26 active torsions:
REMARK  status: ('A' for Active; 'I' for Inactive)
REMARK    1  A    between atoms: C2_2  and  C3_3 
REMARK    2  A    between atoms: C4_6  and  C5_7 
REMARK       I    between atoms: C5_7  and  N2_9 
REMARK    3  A    between atoms: N2_9  and  C6_10 
REMARK    4  A    between atoms: C6_10  and  C7_11 
REMARK    5  A    between atoms: C6_10  and  C8_13 
REMARK       I    between atoms: C7_11  and  N3_14 
REMARK    6  A    between atoms: N3_14  and  C9_15 
REMARK    7  A    between atoms: C9_15  and  C10_16 
REMARK    8  A    between atoms: C9_15  and  C11_18 
REMARK       I    between atoms: C10_16  and  N4_21 
REMARK    9  A    between atoms: C11_18  and  C12_19 
REMARK   10  A    between atoms: C11_18  and  C13_20 
REMARK   11  A    between atoms: N4_21  and  C14_22 
REMARK   12  A    between atoms: C14_22  and  C15_23 
REMARK   13  A    between atoms: C14_22  and  C16_25 
REMARK       I    between atoms: C15_23  and  N6_40 
REMARK   14  A    between atoms: C16_25  and  C17_26 
REMARK   15  A    between atoms: C17_26  and  C18_27 
REMARK   16  A    between atoms: C17_26  and  C19_28 
REMARK   17  A    between atoms: C20_29  and  C21_30 
REMARK   18  A    between atoms: C20_29  and  C24_33 
REMARK   19  A    between atoms: C20_29  and  N6_40 
REMARK   20  A    between atoms: C21_30  and  C22_31 
REMARK   21  A    between atoms: C22_31  and  C23_32 
REMARK   22  A    between atoms: C23_32  and  O8_43 
REMARK   23  A    between atoms: C24_33  and  C25_34 
REMARK   24  A    between atoms: C28_38  and  O6_39 
REMARK   25  A    between atoms: C29_42  and  O8_43 
REMARK   26  A    between atoms: C29_42  and  C35_49 
ROOT
ATOM      1  C14 non d ame      -7.662   9.638  68.592  0.00  0.00     0.089 C 
ATOM      2  H20 non d ame      -7.746  10.086  69.583  0.00  0.00     0.087 H 
ENDROOT
BRANCH   1   3
ATOM      3  N4  non d ame      -8.407   8.388  68.612  0.00  0.00    -0.346 N 
ATOM      4  C10 non d ame      -9.813   8.347  69.156  0.00  0.00     0.241 C 
ATOM      5  O4  non d ame     -10.323   9.333  69.576  0.00  0.00    -0.271 OA
ATOM      6  H19 non d ame      -7.954   7.559  68.253  0.00  0.00     0.163 HD
BRANCH   4   7
ATOM      7  C9  non d ame     -10.571   7.046  69.164  0.00  0.00     0.092 C 
ATOM      8  H11 non d ame     -11.539   7.192  68.686  0.00  0.00     0.088 H 
BRANCH   7   9
ATOM      9  N3  non d ame      -9.842   6.051  68.371  0.00  0.00    -0.346 N 
ATOM     10  C7  non d ame     -10.290   5.722  67.040  0.00  0.00     0.240 C 
ATOM     11  O3  non d ame     -11.235   6.248  66.592  0.00  0.00    -0.271 OA
ATOM     12  H10 non d ame      -9.026   5.588  68.745  0.00  0.00     0.163 HD
BRANCH  10  13
ATOM     13  C6  non d ame      -9.512   4.660  66.202  0.00  0.00     0.086 C 
ATOM     14  H6  non d ame     -10.071   4.318  65.332  0.00  0.00     0.086 H 
BRANCH  13  15
ATOM     15  N2  non d ame      -8.287   5.260  65.701  0.00  0.00    -0.343 N 
ATOM     16  C5  non d ame      -8.109   5.436  64.258  0.00  0.00     0.273 C 
ATOM     17  O2  non d ame      -8.955   5.088  63.509  0.00  0.00    -0.266 OA
ATOM     18  H5  non d ame      -7.568   5.552  66.347  0.00  0.00     0.163 HD
BRANCH  16  19
ATOM     19  C4  non d ame      -6.819   6.070  63.713  0.00  0.00     0.154 A 
ATOM     20  C1  non d ame      -6.482   7.461  63.691  0.00  0.00    -0.017 A 
ATOM     21  C2  non d ame      -5.203   7.515  63.095  0.00  0.00     0.077 A 
ATOM     22  H1  non d ame      -7.075   8.301  64.052  0.00  0.00     0.091 H 
ATOM     23  O1  non d ame      -4.854   6.294  62.813  0.00  0.00    -0.218 OA
ATOM     24  N1  non d ame      -5.781   5.433  63.164  0.00  0.00    -0.123 NA
BRANCH  21  25
ATOM     25  C3  non d ame      -4.383   8.772  62.833  0.00  0.00    -0.029 C 
ATOM     26  H2  non d ame      -5.034   9.646  62.873  0.00  0.00     0.036 H 
ATOM     27  H3  non d ame      -3.605   8.863  63.591  0.00  0.00     0.036 H 
ATOM     28  H4  non d ame      -3.923   8.707  61.846  0.00  0.00     0.036 H 
ENDBRANCH  21  25
ENDBRANCH  16  19
ENDBRANCH  13  15
BRANCH  13  29
ATOM     29  C8  non d ame      -9.187   3.471  67.070  0.00  0.00    -0.049 C 
ATOM     30  H7  non d ame     -10.112   3.014  67.423  0.00  0.00     0.030 H 
ATOM     31  H8  non d ame      -8.620   2.743  66.491  0.00  0.00     0.030 H 
ATOM     32  H9  non d ame      -8.595   3.797  67.925  0.00  0.00     0.030 H 
ENDBRANCH  13  29
ENDBRANCH  10  13
ENDBRANCH   7   9
BRANCH   7  33
ATOM     33  C11 non d ame     -10.712   6.536  70.628  0.00  0.00    -0.033 C 
ATOM     34  H12 non d ame     -10.036   7.125  71.248  0.00  0.00     0.042 H 
BRANCH  33  35
ATOM     35  C12 non d ame     -12.158   6.758  71.171  0.00  0.00    -0.071 C 
ATOM     36  H13 non d ame     -12.880   6.394  70.440  0.00  0.00     0.028 H 
ATOM     37  H14 non d ame     -12.283   6.214  72.106  0.00  0.00     0.028 H 
ATOM     38  H15 non d ame     -12.321   7.822  71.344  0.00  0.00     0.028 H 
ENDBRANCH  33  35
BRANCH  33  39
ATOM     39  C13 non d ame     -10.289   5.036  70.742  0.00  0.00    -0.071 C 
ATOM     40  H16 non d ame     -11.106   4.401  70.401  0.00  0.00     0.028 H 
ATOM     41  H17 non d ame      -9.409   4.859  70.122  0.00  0.00     0.028 H 
ATOM     42  H18 non d ame     -10.055   4.803  71.780  0.00  0.00     0.028 H 
ENDBRANCH  33  39
ENDBRANCH   7  33
ENDBRANCH   4   7
ENDBRANCH   1   3
BRANCH   1  43
ATOM     43  C15 non d ame      -8.257  10.552  67.483  0.00  0.00     0.240 C 
ATOM     44  O5  non d ame      -8.091  10.277  66.339  0.00  0.00    -0.271 OA
ATOM     45  N6  non d ame      -9.043  11.765  67.848  0.00  0.00    -0.355 N 
ATOM     46  H46 non d ame      -9.195  12.006  68.816  0.00  0.00     0.162 HD
BRANCH  45  47
ATOM     47  C20 non d ame      -9.603  12.623  66.781  0.00  0.00     0.013 C 
ATOM     48  H30 non d ame      -9.352  12.172  65.821  0.00  0.00     0.072 H 
BRANCH  47  49
ATOM     49  C21 non d ame      -8.995  14.004  66.879  0.00  0.00    -0.038 C 
ATOM     50  H31 non d ame      -7.974  13.903  66.510  0.00  0.00     0.036 H 
ATOM     51  H32 non d ame      -9.694  14.670  66.374  0.00  0.00     0.036 H 
BRANCH  49  52
ATOM     52  C22 non d ame      -8.884  14.508  68.334  0.00  0.00     0.018 C 
ATOM     53  H33 non d ame      -9.496  13.830  68.929  0.00  0.00     0.048 H 
ATOM     54  H34 non d ame      -7.816  14.597  68.536  0.00  0.00     0.048 H 
BRANCH  52  55
ATOM     55  C23 non d ame      -9.481  15.927  68.552  0.00  0.00     0.259 C 
ATOM     56  O7  non d ame      -9.151  16.833  67.858  0.00  0.00    -0.265 OA
BRANCH  55  57
ATOM     57  O8  non d ame     -10.419  16.134  69.601  0.00  0.00    -0.317 OA
BRANCH  57  58
ATOM     58  C29 non d ame     -11.778  15.901  69.222  0.00  0.00     0.052 C 
ATOM     59  H47 non d ame     -12.268  16.874  69.267  0.00  0.00     0.082 H 
ATOM     60  H48 non d ame     -11.732  15.358  68.278  0.00  0.00     0.082 H 
BRANCH  58  61
ATOM     61  C35 non d ame     -12.422  14.976  70.289  0.00  0.00    -0.034 A 
ATOM     62  C30 non d ame     -12.154  13.611  70.281  0.00  0.00    -0.075 A 
ATOM     63  C31 non d ame     -12.732  12.780  71.239  0.00  0.00    -0.082 A 
ATOM     64  H49 non d ame     -11.490  13.193  69.524  0.00  0.00     0.084 H 
ATOM     65  C32 non d ame     -13.584  13.319  72.207  0.00  0.00    -0.083 A 
ATOM     66  H50 non d ame     -12.518  11.711  71.232  0.00  0.00     0.083 H 
ATOM     67  C33 non d ame     -13.851  14.681  72.209  0.00  0.00    -0.082 A 
ATOM     68  H51 non d ame     -14.040  12.677  72.961  0.00  0.00     0.083 H 
ATOM     69  C34 non d ame     -13.274  15.516  71.255  0.00  0.00    -0.075 A 
ATOM     70  H52 non d ame     -14.518  15.098  72.965  0.00  0.00     0.083 H 
ATOM     71  H53 non d ame     -13.488  16.585  71.264  0.00  0.00     0.084 H 
ENDBRANCH  58  61
ENDBRANCH  57  58
ENDBRANCH  55  57
ENDBRANCH  52  55
ENDBRANCH  49  52
ENDBRANCH  47  49
BRANCH  47  72
ATOM     72  C24 non d ame     -11.119  12.721  66.941  0.00  0.00    -0.039 C 
ATOM     73  H35 non d ame     -11.368  12.054  67.767  0.00  0.00     0.036 H 
ATOM     74  H36 non d ame     -11.334  13.787  67.017  0.00  0.00     0.036 H 
BRANCH  72  75
ATOM     75  C25 non d ame     -11.888  12.176  65.645  0.00  0.00    -0.001 C 
ATOM     76  C26 non d ame     -10.805  11.576  64.562  0.00  0.00    -0.035 C 
ATOM     77  C27 non d ame     -11.042  12.136  63.352  0.00  0.00     0.085 C 
ATOM     78  H38 non d ame      -9.800  11.920  64.809  0.00  0.00     0.036 H 
ATOM     79  H39 non d ame     -10.992  10.516  64.394  0.00  0.00     0.036 H 
ATOM     80  N5  non d ame     -11.973  13.303  63.580  0.00  0.00    -0.049 N 
ATOM     81  H40 non d ame     -10.077  12.513  63.011  0.00  0.00     0.075 H 
ATOM     82  H41 non d ame     -11.564  11.373  62.776  0.00  0.00     0.075 H 
ATOM     83  C28 non d ame     -12.562  13.116  65.072  0.00  0.00     0.193 C 
ATOM     84  H42 non d ame     -11.399  14.134  63.563  0.00  0.00     0.280 HD
ATOM     85  H43 non d ame     -12.730  13.198  62.920  0.00  0.00     0.280 HD
ATOM     86  H44 non d ame     -13.578  12.752  65.224  0.00  0.00     0.129 H 
ATOM     87  H37 non d ame     -12.734  11.539  65.904  0.00  0.00     0.046 H 
BRANCH  83  88
ATOM     88  O6  non d ame     -12.487  14.349  65.790  0.00  0.00    -0.369 OA
ATOM     89  H45 non d ame     -13.179  14.939  65.485  0.00  0.00     0.212 HD
ENDBRANCH  83  88
ENDBRANCH  72  75
ENDBRANCH  47  72
ENDBRANCH  45  47
ENDBRANCH   1  43
BRANCH   1  90
ATOM     90  C16 non d ame      -6.204   9.342  68.282  0.00  0.00    -0.035 C 
ATOM     91  H21 non d ame      -6.195   8.332  67.871  0.00  0.00     0.037 H 
ATOM     92  H22 non d ame      -5.861  10.180  67.676  0.00  0.00     0.037 H 
BRANCH  90  93
ATOM     93  C17 non d ame      -5.288   9.309  69.548  0.00  0.00    -0.059 C 
ATOM     94  H23 non d ame      -4.299   9.656  69.249  0.00  0.00     0.038 H 
BRANCH  93  95
ATOM     95  C18 non d ame      -5.807  10.260  70.674  0.00  0.00    -0.073 C 
ATOM     96  H24 non d ame      -6.895  10.214  70.715  0.00  0.00     0.028 H 
ATOM     97  H25 non d ame      -5.393   9.945  71.633  0.00  0.00     0.028 H 
ATOM     98  H26 non d ame      -5.492  11.281  70.461  0.00  0.00     0.028 H 
ENDBRANCH  93  95
BRANCH  93  99
ATOM     99  C19 non d ame      -5.130   7.880  70.071  0.00  0.00    -0.073 C 
ATOM    100  H27 non d ame      -4.867   7.217  69.246  0.00  0.00     0.028 H 
ATOM    101  H28 non d ame      -4.341   7.854  70.823  0.00  0.00     0.028 H 
ATOM    102  H29 non d ame      -6.067   7.550  70.518  0.00  0.00     0.028 H 
ENDBRANCH  93  99
ENDBRANCH  90  93
ENDBRANCH   1  90
TORSDOF 26
ENDMDL
MODEL 15
REMARK VINA RESULT:      -6.3      3.085      8.307
REMARK  26 active torsions:
REMARK  status: ('A' for Active; 'I' for Inactive)
REMARK    1  A    between atoms: C2_2  and  C3_3 
REMARK    2  A    between atoms: C4_6  and  C5_7 
REMARK       I    between atoms: C5_7  and  N2_9 
REMARK    3  A    between atoms: N2_9  and  C6_10 
REMARK    4  A    between atoms: C6_10  and  C7_11 
REMARK    5  A    between atoms: C6_10  and  C8_13 
REMARK       I    between atoms: C7_11  and  N3_14 
REMARK    6  A    between atoms: N3_14  and  C9_15 
REMARK    7  A    between atoms: C9_15  and  C10_16 
REMARK    8  A    between atoms: C9_15  and  C11_18 
REMARK       I    between atoms: C10_16  and  N4_21 
REMARK    9  A    between atoms: C11_18  and  C12_19 
REMARK   10  A    between atoms: C11_18  and  C13_20 
REMARK   11  A    between atoms: N4_21  and  C14_22 
REMARK   12  A    between atoms: C14_22  and  C15_23 
REMARK   13  A    between atoms: C14_22  and  C16_25 
REMARK       I    between atoms: C15_23  and  N6_40 
REMARK   14  A    between atoms: C16_25  and  C17_26 
REMARK   15  A    between atoms: C17_26  and  C18_27 
REMARK   16  A    between atoms: C17_26  and  C19_28 
REMARK   17  A    between atoms: C20_29  and  C21_30 
REMARK   18  A    between atoms: C20_29  and  C24_33 
REMARK   19  A    between atoms: C20_29  and  N6_40 
REMARK   20  A    between atoms: C21_30  and  C22_31 
REMARK   21  A    between atoms: C22_31  and  C23_32 
REMARK   22  A    between atoms: C23_32  and  O8_43 
REMARK   23  A    between atoms: C24_33  and  C25_34 
REMARK   24  A    between atoms: C28_38  and  O6_39 
REMARK   25  A    between atoms: C29_42  and  O8_43 
REMARK   26  A    between atoms: C29_42  and  C35_49 
ROOT
ATOM      1  C14 non d ame      -9.141   6.894  66.211  0.00  0.00     0.089 C 
ATOM      2  H20 non d ame      -9.529   6.405  65.318  0.00  0.00     0.087 H 
ENDROOT
BRANCH   1   3
ATOM      3  N4  non d ame      -8.692   8.223  65.822  0.00  0.00    -0.346 N 
ATOM      4  C10 non d ame      -8.139   8.466  64.440  0.00  0.00     0.241 C 
ATOM      5  O4  non d ame      -8.063   7.575  63.659  0.00  0.00    -0.271 OA
ATOM      6  H19 non d ame      -8.762   8.966  66.502  0.00  0.00     0.163 HD
BRANCH   4   7
ATOM      7  C9  non d ame      -7.684   9.848  64.053  0.00  0.00     0.092 C 
ATOM      8  H11 non d ame      -7.703   9.941  62.967  0.00  0.00     0.088 H 
BRANCH   7   9
ATOM      9  N3  non d ame      -8.621  10.840  64.589  0.00  0.00    -0.346 N 
ATOM     10  C7  non d ame      -9.817  11.172  63.855  0.00  0.00     0.240 C 
ATOM     11  O3  non d ame     -10.040  10.652  62.830  0.00  0.00    -0.271 OA
ATOM     12  H10 non d ame      -8.441  11.298  65.471  0.00  0.00     0.163 HD
BRANCH  10  13
ATOM     13  C6  non d ame     -10.809  12.231  64.429  0.00  0.00     0.086 C 
ATOM     14  H6  non d ame     -11.196  11.957  65.411  0.00  0.00     0.086 H 
BRANCH  13  15
ATOM     15  N2  non d ame     -10.108  13.493  64.595  0.00  0.00    -0.343 N 
ATOM     16  C5  non d ame     -10.440  14.359  65.729  0.00  0.00     0.273 C 
ATOM     17  O2  non d ame     -11.275  14.032  66.499  0.00  0.00    -0.266 OA
ATOM     18  H5  non d ame      -9.397  13.765  63.931  0.00  0.00     0.163 HD
BRANCH  16  19
ATOM     19  C4  non d ame      -9.705  15.695  65.918  0.00  0.00     0.154 A 
ATOM     20  C1  non d ame      -8.456  15.908  66.583  0.00  0.00    -0.017 A 
ATOM     21  C2  non d ame      -8.223  17.298  66.481  0.00  0.00     0.077 A 
ATOM     22  H1  non d ame      -7.817  15.169  67.065  0.00  0.00     0.091 H 
ATOM     23  O1  non d ame      -9.225  17.812  65.830  0.00  0.00    -0.218 OA
ATOM     24  N1  non d ame     -10.103  16.897  65.492  0.00  0.00    -0.123 NA
BRANCH  21  25
ATOM     25  C3  non d ame      -7.020  18.053  67.030  0.00  0.00    -0.029 C 
ATOM     26  H2  non d ame      -6.989  17.949  68.115  0.00  0.00     0.036 H 
ATOM     27  H3  non d ame      -6.106  17.643  66.599  0.00  0.00     0.036 H 
ATOM     28  H4  non d ame      -7.102  19.109  66.768  0.00  0.00     0.036 H 
ENDBRANCH  21  25
ENDBRANCH  16  19
ENDBRANCH  13  15
BRANCH  13  29
ATOM     29  C8  non d ame     -11.968  12.405  63.480  0.00  0.00    -0.049 C 
ATOM     30  H7  non d ame     -11.907  13.385  63.008  0.00  0.00     0.030 H 
ATOM     31  H8  non d ame     -11.930  11.630  62.715  0.00  0.00     0.030 H 
ATOM     32  H9  non d ame     -12.904  12.326  64.032  0.00  0.00     0.030 H 
ENDBRANCH  13  29
ENDBRANCH  10  13
ENDBRANCH   7   9
BRANCH   7  33
ATOM     33  C11 non d ame      -6.265  10.110  64.638  0.00  0.00    -0.033 C 
ATOM     34  H12 non d ame      -6.363  10.875  65.408  0.00  0.00     0.042 H 
BRANCH  33  35
ATOM     35  C12 non d ame      -5.686   8.831  65.318  0.00  0.00    -0.071 C 
ATOM     36  H13 non d ame      -6.426   8.418  66.005  0.00  0.00     0.028 H 
ATOM     37  H14 non d ame      -5.447   8.090  64.555  0.00  0.00     0.028 H 
ATOM     38  H15 non d ame      -4.783   9.090  65.869  0.00  0.00     0.028 H 
ENDBRANCH  33  35
BRANCH  33  39
ATOM     39  C13 non d ame      -5.298  10.653  63.537  0.00  0.00    -0.071 C 
ATOM     40  H16 non d ame      -5.763  11.497  63.028  0.00  0.00     0.028 H 
ATOM     41  H17 non d ame      -4.366  10.977  64.000  0.00  0.00     0.028 H 
ATOM     42  H18 non d ame      -5.090   9.863  62.815  0.00  0.00     0.028 H 
ENDBRANCH  33  39
ENDBRANCH   7  33
ENDBRANCH   4   7
ENDBRANCH   1   3
BRANCH   1  43
ATOM     43  C15 non d ame     -10.224   7.042  67.318  0.00  0.00     0.240 C 
ATOM     44  O5  non d ame     -11.372   6.898  67.045  0.00  0.00    -0.271 OA
ATOM     45  N6  non d ame      -9.829   7.355  68.721  0.00  0.00    -0.355 N 
ATOM     46  H46 non d ame      -8.857   7.476  68.966  0.00  0.00     0.162 HD
BRANCH  45  47
ATOM     47  C20 non d ame     -10.871   7.491  69.762  0.00  0.00     0.013 C 
ATOM     48  H30 non d ame     -11.792   7.056  69.374  0.00  0.00     0.072 H 
BRANCH  47  49
ATOM     49  C21 non d ame     -11.082   8.956  70.070  0.00  0.00    -0.038 C 
ATOM     50  H31 non d ame     -11.991   9.241  69.541  0.00  0.00     0.036 H 
ATOM     51  H32 non d ame     -11.034   9.038  71.156  0.00  0.00     0.036 H 
BRANCH  49  52
ATOM     52  C22 non d ame      -9.954   9.854  69.515  0.00  0.00     0.018 C 
ATOM     53  H33 non d ame      -9.821  10.649  70.249  0.00  0.00     0.048 H 
ATOM     54  H34 non d ame      -9.127   9.181  69.285  0.00  0.00     0.048 H 
BRANCH  52  55
ATOM     55  C23 non d ame     -10.316  10.559  68.179  0.00  0.00     0.259 C 
ATOM     56  O7  non d ame     -11.449  10.651  67.832  0.00  0.00    -0.265 OA
BRANCH  55  57
ATOM     57  O8  non d ame      -9.275  11.086  67.365  0.00  0.00    -0.317 OA
BRANCH  57  58
ATOM     58  C29 non d ame      -8.559  12.169  67.965  0.00  0.00     0.052 C 
ATOM     59  H47 non d ame      -8.707  13.023  67.303  0.00  0.00     0.082 H 
ATOM     60  H48 non d ame      -8.902  12.215  68.998  0.00  0.00     0.082 H 
BRANCH  58  61
ATOM     61  C35 non d ame      -7.050  11.804  67.965  0.00  0.00    -0.034 A 
ATOM     62  C30 non d ame      -6.132  12.634  67.329  0.00  0.00    -0.075 A 
ATOM     63  C31 non d ame      -4.777  12.306  67.329  0.00  0.00    -0.082 A 
ATOM     64  H49 non d ame      -6.474  13.541  66.831  0.00  0.00     0.084 H 
ATOM     65  C32 non d ame      -4.342  11.141  67.966  0.00  0.00    -0.083 A 
ATOM     66  H50 non d ame      -4.060  12.959  66.832  0.00  0.00     0.083 H 
ATOM     67  C33 non d ame      -5.262  10.314  68.596  0.00  0.00    -0.082 A 
ATOM     68  H51 non d ame      -3.284  10.877  67.972  0.00  0.00     0.083 H 
ATOM     69  C34 non d ame      -6.617  10.639  68.601  0.00  0.00    -0.075 A 
ATOM     70  H52 non d ame      -4.919   9.405  69.091  0.00  0.00     0.083 H 
ATOM     71  H53 non d ame      -7.333   9.985  69.099  0.00  0.00     0.084 H 
ENDBRANCH  58  61
ENDBRANCH  57  58
ENDBRANCH  55  57
ENDBRANCH  52  55
ENDBRANCH  49  52
ENDBRANCH  47  49
BRANCH  47  72
ATOM     72  C24 non d ame     -10.432   6.761  71.030  0.00  0.00    -0.039 C 
ATOM     73  H35 non d ame     -11.243   6.070  71.262  0.00  0.00     0.036 H 
ATOM     74  H36 non d ame      -9.435   6.378  70.814  0.00  0.00     0.036 H 
BRANCH  72  75
ATOM     75  C25 non d ame     -10.295   7.763  72.273  0.00  0.00    -0.001 C 
ATOM     76  C26 non d ame      -8.706   8.027  72.606  0.00  0.00    -0.035 C 
ATOM     77  C27 non d ame      -8.495   7.804  73.925  0.00  0.00     0.085 C 
ATOM     78  H38 non d ame      -8.092   7.271  72.118  0.00  0.00     0.036 H 
ATOM     79  H39 non d ame      -8.470   9.084  72.485  0.00  0.00     0.036 H 
ATOM     80  N5  non d ame      -9.718   7.097  74.456  0.00  0.00    -0.049 N 
ATOM     81  H40 non d ame      -7.643   7.124  73.973  0.00  0.00     0.075 H 
ATOM     82  H41 non d ame      -8.429   8.791  74.380  0.00  0.00     0.075 H 
ATOM     83  C28 non d ame     -10.860   7.278  73.328  0.00  0.00     0.193 C 
ATOM     84  H42 non d ame      -9.480   6.118  74.517  0.00  0.00     0.280 HD
ATOM     85  H43 non d ame     -10.003   7.600  75.284  0.00  0.00     0.280 HD
ATOM     86  H44 non d ame     -11.667   7.997  73.468  0.00  0.00     0.129 H 
ATOM     87  H37 non d ame     -10.932   8.641  72.168  0.00  0.00     0.046 H 
BRANCH  83  88
ATOM     88  O6  non d ame     -11.501   6.028  73.070  0.00  0.00    -0.369 OA
ATOM     89  H45 non d ame     -12.437   6.102  73.266  0.00  0.00     0.212 HD
ENDBRANCH  83  88
ENDBRANCH  72  75
ENDBRANCH  47  72
ENDBRANCH  45  47
ENDBRANCH   1  43
BRANCH   1  90
ATOM     90  C16 non d ame      -7.958   6.110  66.755  0.00  0.00    -0.035 C 
ATOM     91  H21 non d ame      -7.073   6.635  66.394  0.00  0.00     0.037 H 
ATOM     92  H22 non d ame      -8.139   6.021  67.826  0.00  0.00     0.037 H 
BRANCH  90  93
ATOM     93  C17 non d ame      -7.864   4.653  66.200  0.00  0.00    -0.059 C 
ATOM     94  H23 non d ame      -7.024   4.617  65.506  0.00  0.00     0.038 H 
BRANCH  93  95
ATOM     95  C18 non d ame      -7.592   3.609  67.330  0.00  0.00    -0.073 C 
ATOM     96  H24 non d ame      -7.102   4.101  68.170  0.00  0.00     0.028 H 
ATOM     97  H25 non d ame      -8.537   3.178  67.662  0.00  0.00     0.028 H 
ATOM     98  H26 non d ame      -6.948   2.817  66.946  0.00  0.00     0.028 H 
ENDBRANCH  93  95
BRANCH  93  99
ATOM     99  C19 non d ame      -9.123   4.286  65.411  0.00  0.00    -0.073 C 
ATOM    100  H27 non d ame      -8.997   3.300  64.963  0.00  0.00     0.028 H 
ATOM    101  H28 non d ame      -9.982   4.273  66.083  0.00  0.00     0.028 H 
ATOM    102  H29 non d ame      -9.287   5.024  64.626  0.00  0.00     0.028 H 
ENDBRANCH  93  99
ENDBRANCH  90  93
ENDBRANCH   1  90
TORSDOF 26
ENDMDL
MODEL 16
REMARK VINA RESULT:      -6.3      2.921      9.657
REMARK  26 active torsions:
REMARK  status: ('A' for Active; 'I' for Inactive)
REMARK    1  A    between atoms: C2_2  and  C3_3 
REMARK    2  A    between atoms: C4_6  and  C5_7 
REMARK       I    between atoms: C5_7  and  N2_9 
REMARK    3  A    between atoms: N2_9  and  C6_10 
REMARK    4  A    between atoms: C6_10  and  C7_11 
REMARK    5  A    between atoms: C6_10  and  C8_13 
REMARK       I    between atoms: C7_11  and  N3_14 
REMARK    6  A    between atoms: N3_14  and  C9_15 
REMARK    7  A    between atoms: C9_15  and  C10_16 
REMARK    8  A    between atoms: C9_15  and  C11_18 
REMARK       I    between atoms: C10_16  and  N4_21 
REMARK    9  A    between atoms: C11_18  and  C12_19 
REMARK   10  A    between atoms: C11_18  and  C13_20 
REMARK   11  A    between atoms: N4_21  and  C14_22 
REMARK   12  A    between atoms: C14_22  and  C15_23 
REMARK   13  A    between atoms: C14_22  and  C16_25 
REMARK       I    between atoms: C15_23  and  N6_40 
REMARK   14  A    between atoms: C16_25  and  C17_26 
REMARK   15  A    between atoms: C17_26  and  C18_27 
REMARK   16  A    between atoms: C17_26  and  C19_28 
REMARK   17  A    between atoms: C20_29  and  C21_30 
REMARK   18  A    between atoms: C20_29  and  C24_33 
REMARK   19  A    between atoms: C20_29  and  N6_40 
REMARK   20  A    between atoms: C21_30  and  C22_31 
REMARK   21  A    between atoms: C22_31  and  C23_32 
REMARK   22  A    between atoms: C23_32  and  O8_43 
REMARK   23  A    between atoms: C24_33  and  C25_34 
REMARK   24  A    between atoms: C28_38  and  O6_39 
REMARK   25  A    between atoms: C29_42  and  O8_43 
REMARK   26  A    between atoms: C29_42  and  C35_49 
ROOT
ATOM      1  C14 non d ame      -9.491   9.771  67.219  0.00  0.00     0.089 C 
ATOM      2  H20 non d ame     -10.415   9.195  67.151  0.00  0.00     0.087 H 
ENDROOT
BRANCH   1   3
ATOM      3  N4  non d ame      -9.803  11.144  66.851  0.00  0.00    -0.346 N 
ATOM      4  C10 non d ame     -11.158  11.728  67.166  0.00  0.00     0.241 C 
ATOM      5  O4  non d ame     -11.982  11.072  67.713  0.00  0.00    -0.271 OA
ATOM      6  H19 non d ame      -9.089  11.685  66.384  0.00  0.00     0.163 HD
BRANCH   4   7
ATOM      7  C9  non d ame     -11.462  13.153  66.783  0.00  0.00     0.092 C 
ATOM      8  H11 non d ame     -12.528  13.338  66.909  0.00  0.00     0.088 H 
BRANCH   7   9
ATOM      9  N3  non d ame     -10.753  14.064  67.687  0.00  0.00    -0.346 N 
ATOM     10  C7  non d ame     -11.363  14.461  68.933  0.00  0.00     0.240 C 
ATOM     11  O3  non d ame     -12.423  14.058  69.222  0.00  0.00    -0.271 OA
ATOM     12  H10 non d ame      -9.839  14.421  67.450  0.00  0.00     0.163 HD
BRANCH  10  13
ATOM     13  C6  non d ame     -10.605  15.433  69.889  0.00  0.00     0.086 C 
ATOM     14  H6  non d ame      -9.708  14.987  70.319  0.00  0.00     0.086 H 
BRANCH  13  15
ATOM     15  N2  non d ame     -10.170  16.595  69.133  0.00  0.00    -0.343 N 
ATOM     16  C5  non d ame      -8.867  16.574  68.464  0.00  0.00     0.273 C 
ATOM     17  O2  non d ame      -8.176  15.619  68.543  0.00  0.00    -0.266 OA
ATOM     18  H5  non d ame     -10.766  17.408  69.073  0.00  0.00     0.163 HD
BRANCH  16  19
ATOM     19  C4  non d ame      -8.396  17.795  67.659  0.00  0.00     0.154 A 
ATOM     20  C1  non d ame      -7.598  18.886  68.131  0.00  0.00    -0.017 A 
ATOM     21  C2  non d ame      -7.446  19.735  67.012  0.00  0.00     0.077 A 
ATOM     22  H1  non d ame      -7.193  19.038  69.131  0.00  0.00     0.091 H 
ATOM     23  O1  non d ame      -8.083  19.187  66.019  0.00  0.00    -0.218 OA
ATOM     24  N1  non d ame      -8.646  18.054  66.373  0.00  0.00    -0.123 NA
BRANCH  21  25
ATOM     25  C3  non d ame      -6.677  21.049  66.975  0.00  0.00    -0.029 C 
ATOM     26  H2  non d ame      -5.632  20.866  67.229  0.00  0.00     0.036 H 
ATOM     27  H3  non d ame      -6.738  21.479  65.976  0.00  0.00     0.036 H 
ATOM     28  H4  non d ame      -7.109  21.744  67.696  0.00  0.00     0.036 H 
ENDBRANCH  21  25
ENDBRANCH  16  19
ENDBRANCH  13  15
BRANCH  13  29
ATOM     29  C8  non d ame     -11.522  15.858  71.008  0.00  0.00    -0.049 C 
ATOM     30  H7  non d ame     -12.503  16.105  70.600  0.00  0.00     0.030 H 
ATOM     31  H8  non d ame     -11.622  15.044  71.725  0.00  0.00     0.030 H 
ATOM     32  H9  non d ame     -11.106  16.733  71.506  0.00  0.00     0.030 H 
ENDBRANCH  13  29
ENDBRANCH  10  13
ENDBRANCH   7   9
BRANCH   7  33
ATOM     33  C11 non d ame     -10.992  13.408  65.321  0.00  0.00    -0.033 C 
ATOM     34  H12 non d ame     -10.024  12.922  65.197  0.00  0.00     0.042 H 
BRANCH  33  35
ATOM     35  C12 non d ame     -11.973  12.770  64.289  0.00  0.00    -0.071 C 
ATOM     36  H13 non d ame     -11.850  13.258  63.321  0.00  0.00     0.028 H 
ATOM     37  H14 non d ame     -11.755  11.707  64.190  0.00  0.00     0.028 H 
ATOM     38  H15 non d ame     -12.999  12.901  64.634  0.00  0.00     0.028 H 
ENDBRANCH  33  35
BRANCH  33  39
ATOM     39  C13 non d ame     -10.803  14.936  65.053  0.00  0.00    -0.071 C 
ATOM     40  H16 non d ame     -11.683  15.327  64.543  0.00  0.00     0.028 H 
ATOM     41  H17 non d ame     -10.672  15.458  66.002  0.00  0.00     0.028 H 
ATOM     42  H18 non d ame      -9.923  15.089  64.429  0.00  0.00     0.028 H 
ENDBRANCH  33  39
ENDBRANCH   7  33
ENDBRANCH   4   7
ENDBRANCH   1   3
BRANCH   1  43
ATOM     43  C15 non d ame      -8.900   9.766  68.657  0.00  0.00     0.240 C 
ATOM     44  O5  non d ame      -8.034  10.527  68.943  0.00  0.00    -0.271 OA
ATOM     45  N6  non d ame      -9.421   8.816  69.682  0.00  0.00    -0.355 N 
ATOM     46  H46 non d ame     -10.160   8.168  69.453  0.00  0.00     0.162 HD
BRANCH  45  47
ATOM     47  C20 non d ame      -8.849   8.825  71.046  0.00  0.00     0.013 C 
ATOM     48  H30 non d ame      -8.269   9.740  71.161  0.00  0.00     0.072 H 
BRANCH  47  49
ATOM     49  C21 non d ame      -7.951   7.620  71.219  0.00  0.00    -0.038 C 
ATOM     50  H31 non d ame      -8.276   6.900  70.467  0.00  0.00     0.036 H 
ATOM     51  H32 non d ame      -6.932   8.008  71.199  0.00  0.00     0.036 H 
BRANCH  49  52
ATOM     52  C22 non d ame      -8.130   6.931  72.589  0.00  0.00     0.018 C 
ATOM     53  H33 non d ame      -7.123   6.797  72.986  0.00  0.00     0.048 H 
ATOM     54  H34 non d ame      -8.853   7.539  73.133  0.00  0.00     0.048 H 
BRANCH  52  55
ATOM     55  C23 non d ame      -8.748   5.508  72.499  0.00  0.00     0.259 C 
ATOM     56  O7  non d ame      -8.282   4.608  73.120  0.00  0.00    -0.265 OA
BRANCH  55  57
ATOM     57  O8  non d ame      -9.871   5.289  71.654  0.00  0.00    -0.317 OA
BRANCH  57  58
ATOM     58  C29 non d ame      -9.737   4.156  70.791  0.00  0.00     0.052 C 
ATOM     59  H47 non d ame      -8.696   3.843  70.875  0.00  0.00     0.082 H 
ATOM     60  H48 non d ame     -10.536   3.473  71.074  0.00  0.00     0.082 H 
BRANCH  58  61
ATOM     61  C35 non d ame      -9.990   4.632  69.335  0.00  0.00    -0.034 A 
ATOM     62  C30 non d ame     -10.734   5.783  69.098  0.00  0.00    -0.075 A 
ATOM     63  C31 non d ame     -10.963   6.210  67.791  0.00  0.00    -0.082 A 
ATOM     64  H49 non d ame     -11.138   6.351  69.936  0.00  0.00     0.084 H 
ATOM     65  C32 non d ame     -10.446   5.479  66.718  0.00  0.00    -0.083 A 
ATOM     66  H50 non d ame     -11.544   7.114  67.609  0.00  0.00     0.083 H 
ATOM     67  C33 non d ame      -9.707   4.329  66.959  0.00  0.00    -0.082 A 
ATOM     68  H51 non d ame     -10.619   5.807  65.693  0.00  0.00     0.083 H 
ATOM     69  C34 non d ame      -9.475   3.900  68.264  0.00  0.00    -0.075 A 
ATOM     70  H52 non d ame      -9.307   3.760  66.119  0.00  0.00     0.083 H 
ATOM     71  H53 non d ame      -8.893   2.996  68.445  0.00  0.00     0.084 H 
ENDBRANCH  58  61
ENDBRANCH  57  58
ENDBRANCH  55  57
ENDBRANCH  52  55
ENDBRANCH  49  52
ENDBRANCH  47  49
BRANCH  47  72
ATOM     72  C24 non d ame      -9.974   8.775  72.078  0.00  0.00    -0.039 C 
ATOM     73  H35 non d ame      -9.841   7.830  72.606  0.00  0.00     0.036 H 
ATOM     74  H36 non d ame      -9.909   9.716  72.623  0.00  0.00     0.036 H 
BRANCH  72  75
ATOM     75  C25 non d ame     -11.415   8.729  71.381  0.00  0.00    -0.001 C 
ATOM     76  C26 non d ame     -12.029  10.250  71.263  0.00  0.00    -0.035 C 
ATOM     77  C27 non d ame     -13.281  10.257  71.780  0.00  0.00     0.085 C 
ATOM     78  H38 non d ame     -11.479  10.926  71.917  0.00  0.00     0.036 H 
ATOM     79  H39 non d ame     -12.184  10.511  70.216  0.00  0.00     0.036 H 
ATOM     80  N5  non d ame     -13.454   8.961  72.535  0.00  0.00    -0.049 N 
ATOM     81  H40 non d ame     -13.300  11.086  72.488  0.00  0.00     0.075 H 
ATOM     82  H41 non d ame     -13.950  10.259  70.920  0.00  0.00     0.075 H 
ATOM     83  C28 non d ame     -12.241   8.007  72.063  0.00  0.00     0.193 C 
ATOM     84  H42 non d ame     -13.329   9.181  73.512  0.00  0.00     0.280 HD
ATOM     85  H43 non d ame     -14.324   8.558  72.215  0.00  0.00     0.280 HD
ATOM     86  H44 non d ame     -12.419   7.192  71.360  0.00  0.00     0.129 H 
ATOM     87  H37 non d ame     -11.418   8.122  70.476  0.00  0.00     0.046 H 
BRANCH  83  88
ATOM     88  O6  non d ame     -11.619   7.403  73.198  0.00  0.00    -0.369 OA
ATOM     89  H45 non d ame     -10.698   7.220  72.999  0.00  0.00     0.212 HD
ENDBRANCH  83  88
ENDBRANCH  72  75
ENDBRANCH  47  72
ENDBRANCH  45  47
ENDBRANCH   1  43
BRANCH   1  90
ATOM     90  C16 non d ame      -8.466   9.217  66.242  0.00  0.00    -0.035 C 
ATOM     91  H21 non d ame      -7.515   9.246  66.775  0.00  0.00     0.037 H 
ATOM     92  H22 non d ame      -8.873   8.263  65.907  0.00  0.00     0.037 H 
BRANCH  90  93
ATOM     93  C17 non d ame      -8.282  10.093  64.963  0.00  0.00    -0.059 C 
ATOM     94  H23 non d ame      -8.393  11.137  65.257  0.00  0.00     0.038 H 
BRANCH  93  95
ATOM     95  C18 non d ame      -6.863   9.924  64.332  0.00  0.00    -0.073 C 
ATOM     96  H24 non d ame      -6.104  10.180  65.071  0.00  0.00     0.028 H 
ATOM     97  H25 non d ame      -6.727   8.890  64.015  0.00  0.00     0.028 H 
ATOM     98  H26 non d ame      -6.768  10.584  63.469  0.00  0.00     0.028 H 
ENDBRANCH  93  95
BRANCH  93  99
ATOM     99  C19 non d ame      -9.375   9.793  63.933  0.00  0.00    -0.073 C 
ATOM    100  H27 non d ame      -9.424   8.718  63.757  0.00  0.00     0.028 H 
ATOM    101  H28 non d ame     -10.336  10.144  64.311  0.00  0.00     0.028 H 
ATOM    102  H29 non d ame      -9.144  10.305  62.999  0.00  0.00     0.028 H 
ENDBRANCH  93  99
ENDBRANCH  90  93
ENDBRANCH   1  90
TORSDOF 26
ENDMDL
MODEL 17
REMARK VINA RESULT:      -6.3      4.174      9.971
REMARK  26 active torsions:
REMARK  status: ('A' for Active; 'I' for Inactive)
REMARK    1  A    between atoms: C2_2  and  C3_3 
REMARK    2  A    between atoms: C4_6  and  C5_7 
REMARK       I    between atoms: C5_7  and  N2_9 
REMARK    3  A    between atoms: N2_9  and  C6_10 
REMARK    4  A    between atoms: C6_10  and  C7_11 
REMARK    5  A    between atoms: C6_10  and  C8_13 
REMARK       I    between atoms: C7_11  and  N3_14 
REMARK    6  A    between atoms: N3_14  and  C9_15 
REMARK    7  A    between atoms: C9_15  and  C10_16 
REMARK    8  A    between atoms: C9_15  and  C11_18 
REMARK       I    between atoms: C10_16  and  N4_21 
REMARK    9  A    between atoms: C11_18  and  C12_19 
REMARK   10  A    between atoms: C11_18  and  C13_20 
REMARK   11  A    between atoms: N4_21  and  C14_22 
REMARK   12  A    between atoms: C14_22  and  C15_23 
REMARK   13  A    between atoms: C14_22  and  C16_25 
REMARK       I    between atoms: C15_23  and  N6_40 
REMARK   14  A    between atoms: C16_25  and  C17_26 
REMARK   15  A    between atoms: C17_26  and  C18_27 
REMARK   16  A    between atoms: C17_26  and  C19_28 
REMARK   17  A    between atoms: C20_29  and  C21_30 
REMARK   18  A    between atoms: C20_29  and  C24_33 
REMARK   19  A    between atoms: C20_29  and  N6_40 
REMARK   20  A    between atoms: C21_30  and  C22_31 
REMARK   21  A    between atoms: C22_31  and  C23_32 
REMARK   22  A    between atoms: C23_32  and  O8_43 
REMARK   23  A    between atoms: C24_33  and  C25_34 
REMARK   24  A    between atoms: C28_38  and  O6_39 
REMARK   25  A    between atoms: C29_42  and  O8_43 
REMARK   26  A    between atoms: C29_42  and  C35_49 
ROOT
ATOM      1  C14 non d ame      -6.864   9.250  63.881  0.00  0.00     0.089 C 
ATOM      2  H20 non d ame      -6.808   9.738  62.908  0.00  0.00     0.087 H 
ENDROOT
BRANCH   1   3
ATOM      3  N4  non d ame      -7.951   9.873  64.622  0.00  0.00    -0.346 N 
ATOM      4  C10 non d ame      -9.209  10.304  63.910  0.00  0.00     0.241 C 
ATOM      5  O4  non d ame      -9.322  10.141  62.740  0.00  0.00    -0.271 OA
ATOM      6  H19 non d ame      -7.834  10.005  65.617  0.00  0.00     0.163 HD
BRANCH   4   7
ATOM      7  C9  non d ame     -10.326  10.942  64.694  0.00  0.00     0.092 C 
ATOM      8  H11 non d ame     -11.133  10.220  64.820  0.00  0.00     0.088 H 
BRANCH   7   9
ATOM      9  N3  non d ame      -9.845  11.295  66.033  0.00  0.00    -0.346 N 
ATOM     10  C7  non d ame     -10.189  10.467  67.163  0.00  0.00     0.240 C 
ATOM     11  O3  non d ame     -10.853   9.514  67.012  0.00  0.00    -0.271 OA
ATOM     12  H10 non d ame      -9.273  12.114  66.178  0.00  0.00     0.163 HD
BRANCH  10  13
ATOM     13  C6  non d ame      -9.677  10.849  68.586  0.00  0.00     0.086 C 
ATOM     14  H6  non d ame      -8.724  11.376  68.564  0.00  0.00     0.086 H 
BRANCH  13  15
ATOM     15  N2  non d ame     -10.635  11.748  69.207  0.00  0.00    -0.343 N 
ATOM     16  C5  non d ame     -10.547  13.187  68.947  0.00  0.00     0.273 C 
ATOM     17  O2  non d ame      -9.700  13.611  68.240  0.00  0.00    -0.266 OA
ATOM     18  H5  non d ame     -11.355  11.377  69.812  0.00  0.00     0.163 HD
BRANCH  16  19
ATOM     19  C4  non d ame     -11.555  14.149  69.595  0.00  0.00     0.154 A 
ATOM     20  C1  non d ame     -12.390  13.892  70.728  0.00  0.00    -0.017 A 
ATOM     21  C2  non d ame     -13.121  15.086  70.919  0.00  0.00     0.077 A 
ATOM     22  H1  non d ame     -12.455  12.980  71.321  0.00  0.00     0.091 H 
ATOM     23  O1  non d ame     -12.742  15.923  69.999  0.00  0.00    -0.218 OA
ATOM     24  N1  non d ame     -11.829  15.400  69.214  0.00  0.00    -0.123 NA
BRANCH  21  25
ATOM     25  C3  non d ame     -14.160  15.343  72.002  0.00  0.00    -0.029 C 
ATOM     26  H2  non d ame     -15.041  15.808  71.559  0.00  0.00     0.036 H 
ATOM     27  H3  non d ame     -14.443  14.399  72.467  0.00  0.00     0.036 H 
ATOM     28  H4  non d ame     -13.741  16.008  72.758  0.00  0.00     0.036 H 
ENDBRANCH  21  25
ENDBRANCH  16  19
ENDBRANCH  13  15
BRANCH  13  29
ATOM     29  C8  non d ame      -9.524   9.602  69.420  0.00  0.00    -0.049 C 
ATOM     30  H7  non d ame      -8.538   9.593  69.884  0.00  0.00     0.030 H 
ATOM     31  H8  non d ame     -10.290   9.587  70.195  0.00  0.00     0.030 H 
ATOM     32  H9  non d ame      -9.633   8.724  68.783  0.00  0.00     0.030 H 
ENDBRANCH  13  29
ENDBRANCH  10  13
ENDBRANCH   7   9
BRANCH   7  33
ATOM     33  C11 non d ame     -10.803  12.230  63.961  0.00  0.00    -0.033 C 
ATOM     34  H12 non d ame     -10.250  12.299  63.024  0.00  0.00     0.042 H 
BRANCH  33  35
ATOM     35  C12 non d ame     -12.320  12.154  63.606  0.00  0.00    -0.071 C 
ATOM     36  H13 non d ame     -12.474  12.512  62.588  0.00  0.00     0.028 H 
ATOM     37  H14 non d ame     -12.659  11.121  63.683  0.00  0.00     0.028 H 
ATOM     38  H15 non d ame     -12.887  12.775  64.299  0.00  0.00     0.028 H 
ENDBRANCH  33  35
BRANCH  33  39
ATOM     39  C13 non d ame     -10.482  13.505  64.805  0.00  0.00    -0.071 C 
ATOM     40  H16 non d ame      -9.512  13.387  65.288  0.00  0.00     0.028 H 
ATOM     41  H17 non d ame     -10.458  14.378  64.152  0.00  0.00     0.028 H 
ATOM     42  H18 non d ame     -11.252  13.641  65.565  0.00  0.00     0.028 H 
ENDBRANCH  33  39
ENDBRANCH   7  33
ENDBRANCH   4   7
ENDBRANCH   1   3
BRANCH   1  43
ATOM     43  C15 non d ame      -7.158   7.727  63.758  0.00  0.00     0.240 C 
ATOM     44  O5  non d ame      -7.267   7.231  62.684  0.00  0.00    -0.271 OA
ATOM     45  N6  non d ame      -7.295   6.885  64.981  0.00  0.00    -0.355 N 
ATOM     46  H46 non d ame      -7.199   7.294  65.899  0.00  0.00     0.162 HD
BRANCH  45  47
ATOM     47  C20 non d ame      -7.573   5.439  64.847  0.00  0.00     0.013 C 
ATOM     48  H30 non d ame      -7.383   5.155  63.812  0.00  0.00     0.072 H 
BRANCH  47  49
ATOM     49  C21 non d ame      -9.019   5.173  65.199  0.00  0.00    -0.038 C 
ATOM     50  H31 non d ame      -9.523   6.136  65.121  0.00  0.00     0.036 H 
ATOM     51  H32 non d ame      -9.328   4.342  64.564  0.00  0.00     0.036 H 
BRANCH  49  52
ATOM     52  C22 non d ame      -9.203   4.700  66.657  0.00  0.00     0.018 C 
ATOM     53  H33 non d ame     -10.051   4.015  66.641  0.00  0.00     0.048 H 
ATOM     54  H34 non d ame      -8.224   4.347  66.980  0.00  0.00     0.048 H 
BRANCH  52  55
ATOM     55  C23 non d ame      -9.592   5.840  67.640  0.00  0.00     0.259 C 
ATOM     56  O7  non d ame      -8.959   6.844  67.680  0.00  0.00    -0.265 OA
BRANCH  55  57
ATOM     57  O8  non d ame     -10.709   5.664  68.504  0.00  0.00    -0.317 OA
BRANCH  57  58
ATOM     58  C29 non d ame     -10.361   5.259  69.831  0.00  0.00     0.052 C 
ATOM     59  H47 non d ame     -10.924   4.344  70.017  0.00  0.00     0.082 H 
ATOM     60  H48 non d ame      -9.272   5.244  69.859  0.00  0.00     0.082 H 
BRANCH  58  61
ATOM     61  C35 non d ame     -10.863   6.352  70.812  0.00  0.00    -0.034 A 
ATOM     62  C30 non d ame     -12.130   6.903  70.652  0.00  0.00    -0.075 A 
ATOM     63  C31 non d ame     -12.580   7.885  71.533  0.00  0.00    -0.082 A 
ATOM     64  H49 non d ame     -12.770   6.566  69.837  0.00  0.00     0.084 H 
ATOM     65  C32 non d ame     -11.757   8.318  72.576  0.00  0.00    -0.083 A 
ATOM     66  H50 non d ame     -13.575   8.313  71.407  0.00  0.00     0.083 H 
ATOM     67  C33 non d ame     -10.492   7.768  72.729  0.00  0.00    -0.082 A 
ATOM     68  H51 non d ame     -12.101   9.085  73.270  0.00  0.00     0.083 H 
ATOM     69  C34 non d ame     -10.038   6.784  71.852  0.00  0.00    -0.075 A 
ATOM     70  H52 non d ame      -9.851   8.109  73.543  0.00  0.00     0.083 H 
ATOM     71  H53 non d ame      -9.044   6.356  71.980  0.00  0.00     0.084 H 
ENDBRANCH  58  61
ENDBRANCH  57  58
ENDBRANCH  55  57
ENDBRANCH  52  55
ENDBRANCH  49  52
ENDBRANCH  47  49
BRANCH  47  72
ATOM     72  C24 non d ame      -6.665   4.649  65.788  0.00  0.00    -0.039 C 
ATOM     73  H35 non d ame      -7.176   4.649  66.751  0.00  0.00     0.036 H 
ATOM     74  H36 non d ame      -6.466   3.707  65.277  0.00  0.00     0.036 H 
BRANCH  72  75
ATOM     75  C25 non d ame      -5.255   5.378  66.002  0.00  0.00    -0.001 C 
ATOM     76  C26 non d ame      -4.104   4.652  65.078  0.00  0.00    -0.035 C 
ATOM     77  C27 non d ame      -3.042   4.350  65.863  0.00  0.00     0.085 C 
ATOM     78  H38 non d ame      -4.456   3.678  64.739  0.00  0.00     0.036 H 
ATOM     79  H39 non d ame      -3.696   5.365  64.360  0.00  0.00     0.036 H 
ATOM     80  N5  non d ame      -3.492   4.505  67.295  0.00  0.00    -0.049 N 
ATOM     81  H40 non d ame      -2.826   3.299  65.670  0.00  0.00     0.075 H 
ATOM     82  H41 non d ame      -2.292   5.109  65.642  0.00  0.00     0.075 H 
ATOM     83  C28 non d ame      -4.883   5.324  67.237  0.00  0.00     0.193 C 
ATOM     84  H42 non d ame      -3.681   3.574  67.638  0.00  0.00     0.280 HD
ATOM     85  H43 non d ame      -2.800   5.081  67.752  0.00  0.00     0.280 HD
ATOM     86  H44 non d ame      -4.914   6.381  67.500  0.00  0.00     0.129 H 
ATOM     87  H37 non d ame      -5.336   6.463  65.931  0.00  0.00     0.046 H 
BRANCH  83  88
ATOM     88  O6  non d ame      -5.860   4.694  68.067  0.00  0.00    -0.369 OA
ATOM     89  H45 non d ame      -6.192   5.327  68.707  0.00  0.00     0.212 HD
ENDBRANCH  83  88
ENDBRANCH  72  75
ENDBRANCH  47  72
ENDBRANCH  45  47
ENDBRANCH   1  43
BRANCH   1  90
ATOM     90  C16 non d ame      -5.563   9.460  64.639  0.00  0.00    -0.035 C 
ATOM     91  H21 non d ame      -5.287  10.499  64.457  0.00  0.00     0.037 H 
ATOM     92  H22 non d ame      -5.763   9.120  65.656  0.00  0.00     0.037 H 
BRANCH  90  93
ATOM     93  C17 non d ame      -4.381   8.589  64.107  0.00  0.00    -0.059 C 
ATOM     94  H23 non d ame      -4.780   7.607  63.856  0.00  0.00     0.038 H 
BRANCH  93  95
ATOM     95  C18 non d ame      -3.742   9.189  62.814  0.00  0.00    -0.073 C 
ATOM     96  H24 non d ame      -2.776   9.630  63.057  0.00  0.00     0.028 H 
ATOM     97  H25 non d ame      -3.605   8.398  62.076  0.00  0.00     0.028 H 
ATOM     98  H26 non d ame      -4.401   9.956  62.406  0.00  0.00     0.028 H 
ENDBRANCH  93  95
BRANCH  93  99
ATOM     99  C19 non d ame      -3.321   8.384  65.193  0.00  0.00    -0.073 C 
ATOM    100  H27 non d ame      -3.238   9.289  65.796  0.00  0.00     0.028 H 
ATOM    101  H28 non d ame      -3.611   7.548  65.830  0.00  0.00     0.028 H 
ATOM    102  H29 non d ame      -2.360   8.169  64.727  0.00  0.00     0.028 H 
ENDBRANCH  93  99
ENDBRANCH  90  93
ENDBRANCH   1  90
TORSDOF 26
ENDMDL
MODEL 18
REMARK VINA RESULT:      -6.3      2.737      7.985
REMARK  26 active torsions:
REMARK  status: ('A' for Active; 'I' for Inactive)
REMARK    1  A    between atoms: C2_2  and  C3_3 
REMARK    2  A    between atoms: C4_6  and  C5_7 
REMARK       I    between atoms: C5_7  and  N2_9 
REMARK    3  A    between atoms: N2_9  and  C6_10 
REMARK    4  A    between atoms: C6_10  and  C7_11 
REMARK    5  A    between atoms: C6_10  and  C8_13 
REMARK       I    between atoms: C7_11  and  N3_14 
REMARK    6  A    between atoms: N3_14  and  C9_15 
REMARK    7  A    between atoms: C9_15  and  C10_16 
REMARK    8  A    between atoms: C9_15  and  C11_18 
REMARK       I    between atoms: C10_16  and  N4_21 
REMARK    9  A    between atoms: C11_18  and  C12_19 
REMARK   10  A    between atoms: C11_18  and  C13_20 
REMARK   11  A    between atoms: N4_21  and  C14_22 
REMARK   12  A    between atoms: C14_22  and  C15_23 
REMARK   13  A    between atoms: C14_22  and  C16_25 
REMARK       I    between atoms: C15_23  and  N6_40 
REMARK   14  A    between atoms: C16_25  and  C17_26 
REMARK   15  A    between atoms: C17_26  and  C18_27 
REMARK   16  A    between atoms: C17_26  and  C19_28 
REMARK   17  A    between atoms: C20_29  and  C21_30 
REMARK   18  A    between atoms: C20_29  and  C24_33 
REMARK   19  A    between atoms: C20_29  and  N6_40 
REMARK   20  A    between atoms: C21_30  and  C22_31 
REMARK   21  A    between atoms: C22_31  and  C23_32 
REMARK   22  A    between atoms: C23_32  and  O8_43 
REMARK   23  A    between atoms: C24_33  and  C25_34 
REMARK   24  A    between atoms: C28_38  and  O6_39 
REMARK   25  A    between atoms: C29_42  and  O8_43 
REMARK   26  A    between atoms: C29_42  and  C35_49 
ROOT
ATOM      1  C14 non d ame      -6.788  10.616  66.893  0.00  0.00     0.089 C 
ATOM      2  H20 non d ame      -5.903  10.558  67.529  0.00  0.00     0.087 H 
ENDROOT
BRANCH   1   3
ATOM      3  N4  non d ame      -7.381   9.288  66.846  0.00  0.00    -0.346 N 
ATOM      4  C10 non d ame      -6.658   8.108  67.445  0.00  0.00     0.241 C 
ATOM      5  O4  non d ame      -5.597   8.252  67.958  0.00  0.00    -0.271 OA
ATOM      6  H19 non d ame      -8.284   9.186  66.403  0.00  0.00     0.163 HD
BRANCH   4   7
ATOM      7  C9  non d ame      -7.290   6.742  67.392  0.00  0.00     0.092 C 
ATOM      8  H11 non d ame      -6.730   6.063  68.034  0.00  0.00     0.088 H 
BRANCH   7   9
ATOM      9  N3  non d ame      -8.655   6.813  67.922  0.00  0.00    -0.346 N 
ATOM     10  C7  non d ame      -8.872   6.876  69.346  0.00  0.00     0.240 C 
ATOM     11  O3  non d ame      -7.961   6.869  70.080  0.00  0.00    -0.271 OA
ATOM     12  H10 non d ame      -9.451   6.819  67.301  0.00  0.00     0.163 HD
BRANCH  10  13
ATOM     13  C6  non d ame     -10.328   6.949  69.904  0.00  0.00     0.086 C 
ATOM     14  H6  non d ame     -10.405   6.586  70.929  0.00  0.00     0.086 H 
BRANCH  13  15
ATOM     15  N2  non d ame     -10.757   8.338  69.922  0.00  0.00    -0.343 N 
ATOM     16  C5  non d ame     -11.635   8.807  70.996  0.00  0.00     0.273 C 
ATOM     17  O2  non d ame     -11.993   8.060  71.838  0.00  0.00    -0.266 OA
ATOM     18  H5  non d ame     -10.448   8.969  69.196  0.00  0.00     0.163 HD
BRANCH  16  19
ATOM     19  C4  non d ame     -12.096  10.273  71.028  0.00  0.00     0.154 A 
ATOM     20  C1  non d ame     -11.620  11.347  70.210  0.00  0.00    -0.017 A 
ATOM     21  C2  non d ame     -12.357  12.477  70.630  0.00  0.00     0.077 A 
ATOM     22  H1  non d ame     -10.857  11.312  69.432  0.00  0.00     0.091 H 
ATOM     23  O1  non d ame     -13.159  12.087  71.576  0.00  0.00    -0.218 OA
ATOM     24  N1  non d ame     -13.025  10.805  71.826  0.00  0.00    -0.123 NA
BRANCH  21  25
ATOM     25  C3  non d ame     -12.234  13.890  70.075  0.00  0.00    -0.029 C 
ATOM     26  H2  non d ame     -13.136  14.141  69.516  0.00  0.00     0.036 H 
ATOM     27  H3  non d ame     -12.108  14.594  70.898  0.00  0.00     0.036 H 
ATOM     28  H4  non d ame     -11.369  13.947  69.413  0.00  0.00     0.036 H 
ENDBRANCH  21  25
ENDBRANCH  16  19
ENDBRANCH  13  15
BRANCH  13  29
ATOM     29  C8  non d ame     -11.246   6.136  69.028  0.00  0.00    -0.049 C 
ATOM     30  H7  non d ame     -12.062   5.735  69.630  0.00  0.00     0.030 H 
ATOM     31  H8  non d ame     -11.653   6.770  68.241  0.00  0.00     0.030 H 
ATOM     32  H9  non d ame     -10.687   5.314  68.581  0.00  0.00     0.030 H 
ENDBRANCH  13  29
ENDBRANCH  10  13
ENDBRANCH   7   9
BRANCH   7  33
ATOM     33  C11 non d ame      -7.334   6.249  65.916  0.00  0.00    -0.033 C 
ATOM     34  H12 non d ame      -7.389   7.129  65.276  0.00  0.00     0.042 H 
BRANCH  33  35
ATOM     35  C12 non d ame      -6.035   5.473  65.536  0.00  0.00    -0.071 C 
ATOM     36  H13 non d ame      -6.119   4.438  65.870  0.00  0.00     0.028 H 
ATOM     37  H14 non d ame      -5.901   5.495  64.455  0.00  0.00     0.028 H 
ATOM     38  H15 non d ame      -5.178   5.942  66.019  0.00  0.00     0.028 H 
ENDBRANCH  33  35
BRANCH  33  39
ATOM     39  C13 non d ame      -8.608   5.382  65.654  0.00  0.00    -0.071 C 
ATOM     40  H16 non d ame      -8.351   4.545  65.005  0.00  0.00     0.028 H 
ATOM     41  H17 non d ame      -8.991   5.003  66.602  0.00  0.00     0.028 H 
ATOM     42  H18 non d ame      -9.371   5.995  65.173  0.00  0.00     0.028 H 
ENDBRANCH  33  39
ENDBRANCH   7  33
ENDBRANCH   4   7
ENDBRANCH   1   3
BRANCH   1  43
ATOM     43  C15 non d ame      -7.846  11.612  67.450  0.00  0.00     0.240 C 
ATOM     44  O5  non d ame      -8.315  11.434  68.527  0.00  0.00    -0.271 OA
ATOM     45  N6  non d ame      -8.267  12.792  66.642  0.00  0.00    -0.355 N 
ATOM     46  H46 non d ame      -7.871  12.956  65.728  0.00  0.00     0.162 HD
BRANCH  45  47
ATOM     47  C20 non d ame      -9.272  13.730  67.186  0.00  0.00     0.013 C 
ATOM     48  H30 non d ame      -9.144  13.770  68.267  0.00  0.00     0.072 H 
BRANCH  47  49
ATOM     49  C21 non d ame     -10.658  13.228  66.848  0.00  0.00    -0.038 C 
ATOM     50  H31 non d ame     -10.544  12.164  66.643  0.00  0.00     0.036 H 
ATOM     51  H32 non d ame     -11.298  13.561  67.666  0.00  0.00     0.036 H 
BRANCH  49  52
ATOM     52  C22 non d ame     -11.228  13.862  65.561  0.00  0.00     0.018 C 
ATOM     53  H33 non d ame     -12.294  13.999  65.746  0.00  0.00     0.048 H 
ATOM     54  H34 non d ame     -10.596  14.726  65.352  0.00  0.00     0.048 H 
BRANCH  52  55
ATOM     55  C23 non d ame     -11.125  12.944  64.312  0.00  0.00     0.259 C 
ATOM     56  O7  non d ame     -12.011  12.899  63.521  0.00  0.00    -0.265 OA
BRANCH  55  57
ATOM     57  O8  non d ame      -9.963  12.145  64.128  0.00  0.00    -0.317 OA
BRANCH  57  58
ATOM     58  C29 non d ame     -10.228  10.742  64.036  0.00  0.00     0.052 C 
ATOM     59  H47 non d ame     -10.168  10.363  65.056  0.00  0.00     0.082 H 
ATOM     60  H48 non d ame     -11.159  10.655  63.476  0.00  0.00     0.082 H 
BRANCH  58  61
ATOM     61  C35 non d ame      -9.092  10.093  63.202  0.00  0.00    -0.034 A 
ATOM     62  C30 non d ame      -8.609   8.834  63.544  0.00  0.00    -0.075 A 
ATOM     63  C31 non d ame      -7.588   8.251  62.795  0.00  0.00    -0.082 A 
ATOM     64  H49 non d ame      -9.032   8.304  64.397  0.00  0.00     0.084 H 
ATOM     65  C32 non d ame      -7.046   8.934  61.703  0.00  0.00    -0.083 A 
ATOM     66  H50 non d ame      -7.214   7.263  63.064  0.00  0.00     0.083 H 
ATOM     67  C33 non d ame      -7.529  10.192  61.368  0.00  0.00    -0.082 A 
ATOM     68  H51 non d ame      -6.248   8.485  61.112  0.00  0.00     0.083 H 
ATOM     69  C34 non d ame      -8.551  10.777  62.112  0.00  0.00    -0.075 A 
ATOM     70  H52 non d ame      -7.103  10.723  60.516  0.00  0.00     0.083 H 
ATOM     71  H53 non d ame      -8.925  11.765  61.842  0.00  0.00     0.084 H 
ENDBRANCH  58  61
ENDBRANCH  57  58
ENDBRANCH  55  57
ENDBRANCH  52  55
ENDBRANCH  49  52
ENDBRANCH  47  49
BRANCH  47  72
ATOM     72  C24 non d ame      -9.069  15.116  66.575  0.00  0.00    -0.039 C 
ATOM     73  H35 non d ame      -8.170  15.034  65.965  0.00  0.00     0.036 H 
ATOM     74  H36 non d ame     -10.022  15.370  66.111  0.00  0.00     0.036 H 
BRANCH  72  75
ATOM     75  C25 non d ame      -8.780  16.221  67.698  0.00  0.00    -0.001 C 
ATOM     76  C26 non d ame     -10.200  16.774  68.318  0.00  0.00    -0.035 C 
ATOM     77  C27 non d ame     -10.198  18.127  68.272  0.00  0.00     0.085 C 
ATOM     78  H38 non d ame     -11.026  16.497  67.664  0.00  0.00     0.036 H 
ATOM     79  H39 non d ame     -10.252  16.555  69.385  0.00  0.00     0.036 H 
ATOM     80  N5  non d ame      -9.052  18.538  67.380  0.00  0.00    -0.049 N 
ATOM     81  H40 non d ame     -11.138  18.404  67.793  0.00  0.00     0.075 H 
ATOM     82  H41 non d ame      -9.990  18.453  69.291  0.00  0.00     0.075 H 
ATOM     83  C28 non d ame      -8.129  17.224  67.210  0.00  0.00     0.193 C 
ATOM     84  H42 non d ame      -9.455  18.766  66.483  0.00  0.00     0.280 HD
ATOM     85  H43 non d ame      -8.527  19.235  67.890  0.00  0.00     0.280 HD
ATOM     86  H44 non d ame      -7.189  17.133  67.754  0.00  0.00     0.129 H 
ATOM     87  H37 non d ame      -8.020  15.898  68.410  0.00  0.00     0.046 H 
BRANCH  83  88
ATOM     88  O6  non d ame      -7.795  17.031  65.835  0.00  0.00    -0.369 OA
ATOM     89  H45 non d ame      -7.613  17.881  65.428  0.00  0.00     0.212 HD
ENDBRANCH  83  88
ENDBRANCH  72  75
ENDBRANCH  47  72
ENDBRANCH  45  47
ENDBRANCH   1  43
BRANCH   1  90
ATOM     90  C16 non d ame      -6.385  11.030  65.487  0.00  0.00    -0.035 C 
ATOM     91  H21 non d ame      -7.177  10.656  64.838  0.00  0.00     0.037 H 
ATOM     92  H22 non d ame      -6.191  12.101  65.546  0.00  0.00     0.037 H 
BRANCH  90  93
ATOM     93  C17 non d ame      -5.060  10.367  64.994  0.00  0.00    -0.059 C 
ATOM     94  H23 non d ame      -5.231   9.293  64.931  0.00  0.00     0.038 H 
BRANCH  93  95
ATOM     95  C18 non d ame      -4.644  10.867  63.573  0.00  0.00    -0.073 C 
ATOM     96  H24 non d ame      -3.606  11.198  63.594  0.00  0.00     0.028 H 
ATOM     97  H25 non d ame      -4.753  10.054  62.855  0.00  0.00     0.028 H 
ATOM     98  H26 non d ame      -5.285  11.699  63.279  0.00  0.00     0.028 H 
ENDBRANCH  93  95
BRANCH  93  99
ATOM     99  C19 non d ame      -3.930  10.589  66.002  0.00  0.00    -0.073 C 
ATOM    100  H27 non d ame      -3.002  10.174  65.606  0.00  0.00     0.028 H 
ATOM    101  H28 non d ame      -3.804  11.658  66.176  0.00  0.00     0.028 H 
ATOM    102  H29 non d ame      -4.178  10.095  66.941  0.00  0.00     0.028 H 
ENDBRANCH  93  99
ENDBRANCH  90  93
ENDBRANCH   1  90
TORSDOF 26
ENDMDL
MODEL 19
REMARK VINA RESULT:      -6.2      2.753      8.410
REMARK  26 active torsions:
REMARK  status: ('A' for Active; 'I' for Inactive)
REMARK    1  A    between atoms: C2_2  and  C3_3 
REMARK    2  A    between atoms: C4_6  and  C5_7 
REMARK       I    between atoms: C5_7  and  N2_9 
REMARK    3  A    between atoms: N2_9  and  C6_10 
REMARK    4  A    between atoms: C6_10  and  C7_11 
REMARK    5  A    between atoms: C6_10  and  C8_13 
REMARK       I    between atoms: C7_11  and  N3_14 
REMARK    6  A    between atoms: N3_14  and  C9_15 
REMARK    7  A    between atoms: C9_15  and  C10_16 
REMARK    8  A    between atoms: C9_15  and  C11_18 
REMARK       I    between atoms: C10_16  and  N4_21 
REMARK    9  A    between atoms: C11_18  and  C12_19 
REMARK   10  A    between atoms: C11_18  and  C13_20 
REMARK   11  A    between atoms: N4_21  and  C14_22 
REMARK   12  A    between atoms: C14_22  and  C15_23 
REMARK   13  A    between atoms: C14_22  and  C16_25 
REMARK       I    between atoms: C15_23  and  N6_40 
REMARK   14  A    between atoms: C16_25  and  C17_26 
REMARK   15  A    between atoms: C17_26  and  C18_27 
REMARK   16  A    between atoms: C17_26  and  C19_28 
REMARK   17  A    between atoms: C20_29  and  C21_30 
REMARK   18  A    between atoms: C20_29  and  C24_33 
REMARK   19  A    between atoms: C20_29  and  N6_40 
REMARK   20  A    between atoms: C21_30  and  C22_31 
REMARK   21  A    between atoms: C22_31  and  C23_32 
REMARK   22  A    between atoms: C23_32  and  O8_43 
REMARK   23  A    between atoms: C24_33  and  C25_34 
REMARK   24  A    between atoms: C28_38  and  O6_39 
REMARK   25  A    between atoms: C29_42  and  O8_43 
REMARK   26  A    between atoms: C29_42  and  C35_49 
ROOT
ATOM      1  C14 non d ame     -11.429  15.285  70.166  0.00  0.00     0.089 C 
ATOM      2  H20 non d ame     -10.576  15.027  70.794  0.00  0.00     0.087 H 
ENDROOT
BRANCH   1   3
ATOM      3  N4  non d ame     -11.130  16.554  69.520  0.00  0.00    -0.346 N 
ATOM      4  C10 non d ame      -9.730  16.859  69.052  0.00  0.00     0.241 C 
ATOM      5  O4  non d ame      -8.859  16.068  69.209  0.00  0.00    -0.271 OA
ATOM      6  H19 non d ame     -11.885  17.215  69.398  0.00  0.00     0.163 HD
BRANCH   4   7
ATOM      7  C9  non d ame      -9.439  18.176  68.380  0.00  0.00     0.092 C 
ATOM      8  H11 non d ame      -9.593  18.984  69.095  0.00  0.00     0.088 H 
BRANCH   7   9
ATOM      9  N3  non d ame      -8.031  18.217  67.974  0.00  0.00    -0.346 N 
ATOM     10  C7  non d ame      -7.107  19.079  68.669  0.00  0.00     0.240 C 
ATOM     11  O3  non d ame      -7.479  19.746  69.556  0.00  0.00    -0.271 OA
ATOM     12  H10 non d ame      -7.696  17.649  67.210  0.00  0.00     0.163 HD
BRANCH  10  13
ATOM     13  C6  non d ame      -5.610  19.122  68.231  0.00  0.00     0.086 C 
ATOM     14  H6  non d ame      -5.042  19.897  68.745  0.00  0.00     0.086 H 
BRANCH  13  15
ATOM     15  N2  non d ame      -4.983  17.854  68.568  0.00  0.00    -0.343 N 
ATOM     16  C5  non d ame      -4.406  17.667  69.901  0.00  0.00     0.273 C 
ATOM     17  O2  non d ame      -4.449  18.543  70.694  0.00  0.00    -0.266 OA
ATOM     18  H5  non d ame      -4.950  17.112  67.884  0.00  0.00     0.163 HD
BRANCH  16  19
ATOM     19  C4  non d ame      -3.743  16.331  70.272  0.00  0.00     0.154 A 
ATOM     20  C1  non d ame      -4.393  15.079  70.508  0.00  0.00    -0.017 A 
ATOM     21  C2  non d ame      -3.347  14.178  70.810  0.00  0.00     0.077 A 
ATOM     22  H1  non d ame      -5.459  14.857  70.466  0.00  0.00     0.091 H 
ATOM     23  O1  non d ame      -2.232  14.845  70.750  0.00  0.00    -0.218 OA
ATOM     24  N1  non d ame      -2.437  16.103  70.438  0.00  0.00    -0.123 NA
BRANCH  21  25
ATOM     25  C3  non d ame      -3.499  12.699  71.142  0.00  0.00    -0.029 C 
ATOM     26  H2  non d ame      -2.754  12.124  70.592  0.00  0.00     0.036 H 
ATOM     27  H3  non d ame      -3.355  12.551  72.212  0.00  0.00     0.036 H 
ATOM     28  H4  non d ame      -4.498  12.364  70.861  0.00  0.00     0.036 H 
ENDBRANCH  21  25
ENDBRANCH  16  19
ENDBRANCH  13  15
BRANCH  13  29
ATOM     29  C8  non d ame      -5.525  19.361  66.745  0.00  0.00    -0.049 C 
ATOM     30  H7  non d ame      -4.699  20.040  66.532  0.00  0.00     0.030 H 
ATOM     31  H8  non d ame      -5.357  18.413  66.233  0.00  0.00     0.030 H 
ATOM     32  H9  non d ame      -6.458  19.803  66.395  0.00  0.00     0.030 H 
ENDBRANCH  13  29
ENDBRANCH  10  13
ENDBRANCH   7   9
BRANCH   7  33
ATOM     33  C11 non d ame     -10.344  18.326  67.122  0.00  0.00    -0.033 C 
ATOM     34  H12 non d ame     -11.380  18.285  67.455  0.00  0.00     0.042 H 
BRANCH  33  35
ATOM     35  C12 non d ame     -10.128  19.708  66.429  0.00  0.00    -0.071 C 
ATOM     36  H13 non d ame      -9.586  19.565  65.494  0.00  0.00     0.028 H 
ATOM     37  H14 non d ame     -11.095  20.165  66.221  0.00  0.00     0.028 H 
ATOM     38  H15 non d ame      -9.552  20.358  67.087  0.00  0.00     0.028 H 
ENDBRANCH  33  35
BRANCH  33  39
ATOM     39  C13 non d ame     -10.111  17.148  66.122  0.00  0.00    -0.071 C 
ATOM     40  H16 non d ame      -9.064  16.849  66.150  0.00  0.00     0.028 H 
ATOM     41  H17 non d ame     -10.738  16.302  66.404  0.00  0.00     0.028 H 
ATOM     42  H18 non d ame     -10.370  17.472  65.114  0.00  0.00     0.028 H 
ENDBRANCH  33  39
ENDBRANCH   7  33
ENDBRANCH   4   7
ENDBRANCH   1   3
BRANCH   1  43
ATOM     43  C15 non d ame     -11.692  14.218  69.065  0.00  0.00     0.240 C 
ATOM     44  O5  non d ame     -12.291  14.518  68.083  0.00  0.00    -0.271 OA
ATOM     45  N6  non d ame     -11.189  12.825  69.231  0.00  0.00    -0.355 N 
ATOM     46  H46 non d ame     -10.675  12.560  70.058  0.00  0.00     0.162 HD
BRANCH  45  47
ATOM     47  C20 non d ame     -11.445  11.823  68.174  0.00  0.00     0.013 C 
ATOM     48  H30 non d ame     -12.364  12.105  67.660  0.00  0.00     0.072 H 
BRANCH  47  49
ATOM     49  C21 non d ame     -11.605  10.459  68.806  0.00  0.00    -0.038 C 
ATOM     50  H31 non d ame     -12.575  10.090  68.472  0.00  0.00     0.036 H 
ATOM     51  H32 non d ame     -10.697   9.910  68.556  0.00  0.00     0.036 H 
BRANCH  49  52
ATOM     52  C22 non d ame     -11.668  10.517  70.348  0.00  0.00     0.018 C 
ATOM     53  H33 non d ame     -11.275  11.496  70.623  0.00  0.00     0.048 H 
ATOM     54  H34 non d ame     -12.691  10.247  70.612  0.00  0.00     0.048 H 
BRANCH  52  55
ATOM     55  C23 non d ame     -10.755   9.475  71.052  0.00  0.00     0.259 C 
ATOM     56  O7  non d ame      -9.575   9.517  70.915  0.00  0.00    -0.265 OA
BRANCH  55  57
ATOM     57  O8  non d ame     -11.346   8.460  71.854  0.00  0.00    -0.317 OA
BRANCH  57  58
ATOM     58  C29 non d ame     -12.197   7.568  71.130  0.00  0.00     0.052 C 
ATOM     59  H47 non d ame     -12.822   7.082  71.880  0.00  0.00     0.082 H 
ATOM     60  H48 non d ame     -12.656   8.169  70.345  0.00  0.00     0.082 H 
BRANCH  58  61
ATOM     61  C35 non d ame     -11.303   6.489  70.462  0.00  0.00    -0.034 A 
ATOM     62  C30 non d ame     -10.574   5.604  71.249  0.00  0.00    -0.075 A 
ATOM     63  C31 non d ame      -9.770   4.635  70.650  0.00  0.00    -0.082 A 
ATOM     64  H49 non d ame     -10.632   5.669  72.336  0.00  0.00     0.084 H 
ATOM     65  C32 non d ame      -9.696   4.555  69.257  0.00  0.00    -0.083 A 
ATOM     66  H50 non d ame      -9.202   3.941  71.270  0.00  0.00     0.083 H 
ATOM     67  C33 non d ame     -10.423   5.443  68.475  0.00  0.00    -0.082 A 
ATOM     68  H51 non d ame      -9.071   3.800  68.780  0.00  0.00     0.083 H 
ATOM     69  C34 non d ame     -11.229   6.411  69.070  0.00  0.00    -0.075 A 
ATOM     70  H52 non d ame     -10.361   5.379  67.388  0.00  0.00     0.083 H 
ATOM     71  H53 non d ame     -11.798   7.104  68.450  0.00  0.00     0.084 H 
ENDBRANCH  58  61
ENDBRANCH  57  58
ENDBRANCH  55  57
ENDBRANCH  52  55
ENDBRANCH  49  52
ENDBRANCH  47  49
BRANCH  47  72
ATOM     72  C24 non d ame     -10.276  11.796  67.192  0.00  0.00    -0.039 C 
ATOM     73  H35 non d ame      -9.875  12.810  67.191  0.00  0.00     0.036 H 
ATOM     74  H36 non d ame      -9.649  10.963  67.511  0.00  0.00     0.036 H 
BRANCH  72  75
ATOM     75  C25 non d ame     -10.762  11.478  65.699  0.00  0.00    -0.001 C 
ATOM     76  C26 non d ame     -10.098  10.064  65.183  0.00  0.00    -0.035 C 
ATOM     77  C27 non d ame      -9.511  10.272  63.980  0.00  0.00     0.085 C 
ATOM     78  H38 non d ame      -9.265   9.785  65.828  0.00  0.00     0.036 H 
ATOM     79  H39 non d ame     -10.883   9.341  64.963  0.00  0.00     0.036 H 
ATOM     80  N5  non d ame      -9.429  11.766  63.780  0.00  0.00    -0.049 N 
ATOM     81  H40 non d ame      -8.502   9.870  64.075  0.00  0.00     0.075 H 
ATOM     82  H41 non d ame     -10.198   9.852  63.245  0.00  0.00     0.075 H 
ATOM     83  C28 non d ame     -10.412  12.416  64.884  0.00  0.00     0.193 C 
ATOM     84  H42 non d ame      -8.480  12.032  63.998  0.00  0.00     0.280 HD
ATOM     85  H43 non d ame      -9.808  11.953  62.863  0.00  0.00     0.280 HD
ATOM     86  H44 non d ame     -11.389  12.803  64.596  0.00  0.00     0.129 H 
ATOM     87  H37 non d ame     -11.840  11.591  65.583  0.00  0.00     0.046 H 
BRANCH  83  88
ATOM     88  O6  non d ame      -9.756  13.495  65.553  0.00  0.00    -0.369 OA
ATOM     89  H45 non d ame     -10.187  14.321  65.325  0.00  0.00     0.212 HD
ENDBRANCH  83  88
ENDBRANCH  72  75
ENDBRANCH  47  72
ENDBRANCH  45  47
ENDBRANCH   1  43
BRANCH   1  90
ATOM     90  C16 non d ame     -12.672  15.447  71.028  0.00  0.00    -0.035 C 
ATOM     91  H21 non d ame     -12.629  16.468  71.407  0.00  0.00     0.037 H 
ATOM     92  H22 non d ame     -13.504  15.136  70.396  0.00  0.00     0.037 H 
BRANCH  90  93
ATOM     93  C17 non d ame     -12.693  14.512  72.278  0.00  0.00    -0.059 C 
ATOM     94  H23 non d ame     -11.775  13.926  72.269  0.00  0.00     0.038 H 
BRANCH  93  95
ATOM     95  C18 non d ame     -12.731  15.318  73.616  0.00  0.00    -0.073 C 
ATOM     96  H24 non d ame     -12.291  14.719  74.413  0.00  0.00     0.028 H 
ATOM     97  H25 non d ame     -12.163  16.242  73.500  0.00  0.00     0.028 H 
ATOM     98  H26 non d ame     -13.764  15.556  73.868  0.00  0.00     0.028 H 
ENDBRANCH  93  95
BRANCH  93  99
ATOM     99  C19 non d ame     -13.862  13.526  72.204  0.00  0.00    -0.073 C 
ATOM    100  H27 non d ame     -14.418  13.550  73.142  0.00  0.00     0.028 H 
ATOM    101  H28 non d ame     -14.522  13.807  71.383  0.00  0.00     0.028 H 
ATOM    102  H29 non d ame     -13.479  12.520  72.033  0.00  0.00     0.028 H 
ENDBRANCH  93  99
ENDBRANCH  90  93
ENDBRANCH   1  90
TORSDOF 26
ENDMDL
MODEL 20
REMARK VINA RESULT:      -6.2      2.607      9.096
REMARK  26 active torsions:
REMARK  status: ('A' for Active; 'I' for Inactive)
REMARK    1  A    between atoms: C2_2  and  C3_3 
REMARK    2  A    between atoms: C4_6  and  C5_7 
REMARK       I    between atoms: C5_7  and  N2_9 
REMARK    3  A    between atoms: N2_9  and  C6_10 
REMARK    4  A    between atoms: C6_10  and  C7_11 
REMARK    5  A    between atoms: C6_10  and  C8_13 
REMARK       I    between atoms: C7_11  and  N3_14 
REMARK    6  A    between atoms: N3_14  and  C9_15 
REMARK    7  A    between atoms: C9_15  and  C10_16 
REMARK    8  A    between atoms: C9_15  and  C11_18 
REMARK       I    between atoms: C10_16  and  N4_21 
REMARK    9  A    between atoms: C11_18  and  C12_19 
REMARK   10  A    between atoms: C11_18  and  C13_20 
REMARK   11  A    between atoms: N4_21  and  C14_22 
REMARK   12  A    between atoms: C14_22  and  C15_23 
REMARK   13  A    between atoms: C14_22  and  C16_25 
REMARK       I    between atoms: C15_23  and  N6_40 
REMARK   14  A    between atoms: C16_25  and  C17_26 
REMARK   15  A    between atoms: C17_26  and  C18_27 
REMARK   16  A    between atoms: C17_26  and  C19_28 
REMARK   17  A    between atoms: C20_29  and  C21_30 
REMARK   18  A    between atoms: C20_29  and  C24_33 
REMARK   19  A    between atoms: C20_29  and  N6_40 
REMARK   20  A    between atoms: C21_30  and  C22_31 
REMARK   21  A    between atoms: C22_31  and  C23_32 
REMARK   22  A    between atoms: C23_32  and  O8_43 
REMARK   23  A    between atoms: C24_33  and  C25_34 
REMARK   24  A    between atoms: C28_38  and  O6_39 
REMARK   25  A    between atoms: C29_42  and  O8_43 
REMARK   26  A    between atoms: C29_42  and  C35_49 
ROOT
ATOM      1  C14 non d ame      -6.834  13.359  68.077  0.00  0.00     0.089 C 
ATOM      2  H20 non d ame      -6.162  13.277  67.223  0.00  0.00     0.087 H 
ENDROOT
BRANCH   1   3
ATOM      3  N4  non d ame      -7.081  14.774  68.307  0.00  0.00    -0.346 N 
ATOM      4  C10 non d ame      -6.167  15.814  67.708  0.00  0.00     0.241 C 
ATOM      5  O4  non d ame      -5.237  15.486  67.047  0.00  0.00    -0.271 OA
ATOM      6  H19 non d ame      -7.876  15.032  68.874  0.00  0.00     0.163 HD
BRANCH   4   7
ATOM      7  C9  non d ame      -6.440  17.275  67.951  0.00  0.00     0.092 C 
ATOM      8  H11 non d ame      -6.086  17.853  67.098  0.00  0.00     0.088 H 
BRANCH   7   9
ATOM      9  N3  non d ame      -7.887  17.492  68.051  0.00  0.00    -0.346 N 
ATOM     10  C7  non d ame      -8.650  17.813  66.870  0.00  0.00     0.240 C 
ATOM     11  O3  non d ame      -8.117  17.902  65.832  0.00  0.00    -0.271 OA
ATOM     12  H10 non d ame      -8.360  17.420  68.940  0.00  0.00     0.163 HD
BRANCH  10  13
ATOM     13  C6  non d ame     -10.189  18.046  66.984  0.00  0.00     0.086 C 
ATOM     14  H6  non d ame     -10.754  17.507  66.223  0.00  0.00     0.086 H 
BRANCH  13  15
ATOM     15  N2  non d ame     -10.647  17.551  68.271  0.00  0.00    -0.343 N 
ATOM     16  C5  non d ame     -11.226  16.209  68.363  0.00  0.00     0.273 C 
ATOM     17  O2  non d ame     -11.322  15.537  67.396  0.00  0.00    -0.266 OA
ATOM     18  H5  non d ame     -10.564  18.133  69.093  0.00  0.00     0.163 HD
BRANCH  16  19
ATOM     19  C4  non d ame     -11.713  15.672  69.718  0.00  0.00     0.154 A 
ATOM     20  C1  non d ame     -12.368  14.424  69.970  0.00  0.00    -0.017 A 
ATOM     21  C2  non d ame     -12.603  14.411  71.363  0.00  0.00     0.077 A 
ATOM     22  H1  non d ame     -12.631  13.647  69.252  0.00  0.00     0.091 H 
ATOM     23  O1  non d ame     -12.134  15.525  71.845  0.00  0.00    -0.218 OA
ATOM     24  N1  non d ame     -11.610  16.277  70.905  0.00  0.00    -0.123 NA
BRANCH  21  25
ATOM     25  C3  non d ame     -13.280  13.299  72.152  0.00  0.00    -0.029 C 
ATOM     26  H2  non d ame     -14.349  13.501  72.223  0.00  0.00     0.036 H 
ATOM     27  H3  non d ame     -13.123  12.347  71.645  0.00  0.00     0.036 H 
ATOM     28  H4  non d ame     -12.852  13.251  73.154  0.00  0.00     0.036 H 
ENDBRANCH  21  25
ENDBRANCH  16  19
ENDBRANCH  13  15
BRANCH  13  29
ATOM     29  C8  non d ame     -10.487  19.518  66.860  0.00  0.00    -0.049 C 
ATOM     30  H7  non d ame     -11.007  19.860  67.756  0.00  0.00     0.030 H 
ATOM     31  H8  non d ame      -9.554  20.070  66.748  0.00  0.00     0.030 H 
ATOM     32  H9  non d ame     -11.118  19.689  65.988  0.00  0.00     0.030 H 
ENDBRANCH  13  29
ENDBRANCH  10  13
ENDBRANCH   7   9
BRANCH   7  33
ATOM     33  C11 non d ame      -5.759  17.715  69.280  0.00  0.00    -0.033 C 
ATOM     34  H12 non d ame      -6.023  16.983  70.043  0.00  0.00     0.042 H 
BRANCH  33  35
ATOM     35  C12 non d ame      -4.204  17.717  69.149  0.00  0.00    -0.071 C 
ATOM     36  H13 non d ame      -3.922  18.131  68.180  0.00  0.00     0.028 H 
ATOM     37  H14 non d ame      -3.774  18.327  69.943  0.00  0.00     0.028 H 
ATOM     38  H15 non d ame      -3.832  16.697  69.231  0.00  0.00     0.028 H 
ENDBRANCH  33  35
BRANCH  33  39
ATOM     39  C13 non d ame      -6.290  19.109  69.745  0.00  0.00    -0.071 C 
ATOM     40  H16 non d ame      -6.111  19.229  70.813  0.00  0.00     0.028 H 
ATOM     41  H17 non d ame      -5.770  19.897  69.199  0.00  0.00     0.028 H 
ATOM     42  H18 non d ame      -7.360  19.175  69.546  0.00  0.00     0.028 H 
ENDBRANCH  33  39
ENDBRANCH   7  33
ENDBRANCH   4   7
ENDBRANCH   1   3
BRANCH   1  43
ATOM     43  C15 non d ame      -8.197  12.654  67.822  0.00  0.00     0.240 C 
ATOM     44  O5  non d ame      -9.212  13.233  68.038  0.00  0.00    -0.271 OA
ATOM     45  N6  non d ame      -8.237  11.258  67.299  0.00  0.00    -0.355 N 
ATOM     46  H46 non d ame      -7.382  10.758  67.106  0.00  0.00     0.162 HD
BRANCH  45  47
ATOM     47  C20 non d ame      -9.541  10.602  67.059  0.00  0.00     0.013 C 
ATOM     48  H30 non d ame     -10.324  11.275  67.409  0.00  0.00     0.072 H 
BRANCH  47  49
ATOM     49  C21 non d ame      -9.595   9.303  67.830  0.00  0.00    -0.038 C 
ATOM     50  H31 non d ame      -9.552   9.582  68.883  0.00  0.00     0.036 H 
ATOM     51  H32 non d ame     -10.462   8.767  67.442  0.00  0.00     0.036 H 
BRANCH  49  52
ATOM     52  C22 non d ame      -8.371   8.399  67.568  0.00  0.00     0.018 C 
ATOM     53  H33 non d ame      -7.876   8.819  66.691  0.00  0.00     0.048 H 
ATOM     54  H34 non d ame      -7.839   8.340  68.517  0.00  0.00     0.048 H 
BRANCH  52  55
ATOM     55  C23 non d ame      -8.740   6.937  67.192  0.00  0.00     0.259 C 
ATOM     56  O7  non d ame      -8.615   6.061  67.985  0.00  0.00    -0.265 OA
BRANCH  55  57
ATOM     57  O8  non d ame      -9.218   6.654  65.883  0.00  0.00    -0.317 OA
BRANCH  57  58
ATOM     58  C29 non d ame      -8.445   5.678  65.179  0.00  0.00     0.052 C 
ATOM     59  H47 non d ame      -7.934   5.096  65.946  0.00  0.00     0.082 H 
ATOM     60  H48 non d ame      -9.138   5.189  64.495  0.00  0.00     0.082 H 
BRANCH  58  61
ATOM     61  C35 non d ame      -7.376   6.429  64.340  0.00  0.00    -0.034 A 
ATOM     62  C30 non d ame      -7.606   7.738  63.929  0.00  0.00    -0.075 A 
ATOM     63  C31 non d ame      -6.647   8.412  63.175  0.00  0.00    -0.082 A 
ATOM     64  H49 non d ame      -8.538   8.235  64.198  0.00  0.00     0.084 H 
ATOM     65  C32 non d ame      -5.454   7.771  62.830  0.00  0.00    -0.083 A 
ATOM     66  H50 non d ame      -6.829   9.439  62.857  0.00  0.00     0.083 H 
ATOM     67  C33 non d ame      -5.230   6.464  63.239  0.00  0.00    -0.082 A 
ATOM     68  H51 non d ame      -4.699   8.291  62.241  0.00  0.00     0.083 H 
ATOM     69  C34 non d ame      -6.185   5.787  63.994  0.00  0.00    -0.075 A 
ATOM     70  H52 non d ame      -4.300   5.966  62.966  0.00  0.00     0.083 H 
ATOM     71  H53 non d ame      -6.002   4.760  64.313  0.00  0.00     0.084 H 
ENDBRANCH  58  61
ENDBRANCH  57  58
ENDBRANCH  55  57
ENDBRANCH  52  55
ENDBRANCH  49  52
ENDBRANCH  47  49
BRANCH  47  72
ATOM     72  C24 non d ame      -9.711  10.319  65.568  0.00  0.00    -0.039 C 
ATOM     73  H35 non d ame      -8.725  10.012  65.217  0.00  0.00     0.036 H 
ATOM     74  H36 non d ame     -10.553   9.630  65.498  0.00  0.00     0.036 H 
BRANCH  72  75
ATOM     75  C25 non d ame     -10.112  11.640  64.756  0.00  0.00    -0.001 C 
ATOM     76  C26 non d ame     -11.467  12.308  65.406  0.00  0.00    -0.035 C 
ATOM     77  C27 non d ame     -12.367  12.520  64.416  0.00  0.00     0.085 C 
ATOM     78  H38 non d ame     -11.965  11.587  66.053  0.00  0.00     0.036 H 
ATOM     79  H39 non d ame     -11.250  13.311  65.773  0.00  0.00     0.036 H 
ATOM     80  N5  non d ame     -11.879  11.760  63.206  0.00  0.00    -0.049 N 
ATOM     81  H40 non d ame     -13.297  12.071  64.767  0.00  0.00     0.075 H 
ATOM     82  H41 non d ame     -12.322  13.588  64.206  0.00  0.00     0.075 H 
ATOM     83  C28 non d ame     -10.342  11.373  63.514  0.00  0.00     0.193 C 
ATOM     84  H42 non d ame     -12.423  10.910  63.164  0.00  0.00     0.280 HD
ATOM     85  H43 non d ame     -11.898  12.410  62.433  0.00  0.00     0.280 HD
ATOM     86  H44 non d ame      -9.528  11.921  63.039  0.00  0.00     0.129 H 
ATOM     87  H37 non d ame      -9.260  12.302  64.597  0.00  0.00     0.046 H 
BRANCH  83  88
ATOM     88  O6  non d ame     -10.109   9.998  63.206  0.00  0.00    -0.369 OA
ATOM     89  H45 non d ame      -9.202   9.885  62.912  0.00  0.00     0.212 HD
ENDBRANCH  83  88
ENDBRANCH  72  75
ENDBRANCH  47  72
ENDBRANCH  45  47
ENDBRANCH   1  43
BRANCH   1  90
ATOM     90  C16 non d ame      -6.174  12.764  69.311  0.00  0.00    -0.035 C 
ATOM     91  H21 non d ame      -6.181  13.560  70.055  0.00  0.00     0.037 H 
ATOM     92  H22 non d ame      -6.709  11.833  69.504  0.00  0.00     0.037 H 
BRANCH  90  93
ATOM     93  C17 non d ame      -4.677  12.375  69.095  0.00  0.00    -0.059 C 
ATOM     94  H23 non d ame      -4.502  12.318  68.020  0.00  0.00     0.038 H 
BRANCH  93  95
ATOM     95  C18 non d ame      -3.700  13.445  69.680  0.00  0.00    -0.073 C 
ATOM     96  H24 non d ame      -3.336  14.083  68.876  0.00  0.00     0.028 H 
ATOM     97  H25 non d ame      -4.227  14.053  70.416  0.00  0.00     0.028 H 
ATOM     98  H26 non d ame      -2.858  12.944  70.158  0.00  0.00     0.028 H 
ENDBRANCH  93  95
BRANCH  93  99
ATOM     99  C19 non d ame      -4.382  10.991  69.677  0.00  0.00    -0.073 C 
ATOM    100  H27 non d ame      -3.324  10.922  69.933  0.00  0.00     0.028 H 
ATOM    101  H28 non d ame      -4.983  10.838  70.574  0.00  0.00     0.028 H 
ATOM    102  H29 non d ame      -4.628  10.226  68.941  0.00  0.00     0.028 H 
ENDBRANCH  93  99
ENDBRANCH  90  93
ENDBRANCH   1  90
TORSDOF 26
ENDMDL
