MODEL 1
REMARK VINA RESULT:      -7.9      0.000      0.000
REMARK  26 active torsions:
REMARK  status: ('A' for Active; 'I' for Inactive)
REMARK    1  A    between atoms: C2_2  and  C3_3 
REMARK    2  A    between atoms: C4_6  and  C5_7 
REMARK       I    between atoms: C5_7  and  N2_9 
REMARK    3  A    between atoms: N2_9  and  C6_10 
REMARK    4  A    between atoms: C6_10  and  C7_11 
REMARK    5  A    between atoms: C6_10  and  C8_13 
REMARK       I    between atoms: C7_11  and  N3_14 
REMARK    6  A    between atoms: N3_14  and  C9_15 
REMARK    7  A    between atoms: C9_15  and  C10_16 
REMARK    8  A    between atoms: C9_15  and  C11_18 
REMARK       I    between atoms: C10_16  and  N4_21 
REMARK    9  A    between atoms: C11_18  and  C12_19 
REMARK   10  A    between atoms: C11_18  and  C13_20 
REMARK   11  A    between atoms: N4_21  and  C14_22 
REMARK   12  A    between atoms: C14_22  and  C15_23 
REMARK   13  A    between atoms: C14_22  and  C16_25 
REMARK       I    between atoms: C15_23  and  N6_40 
REMARK   14  A    between atoms: C16_25  and  C17_26 
REMARK   15  A    between atoms: C17_26  and  C18_27 
REMARK   16  A    between atoms: C17_26  and  C19_28 
REMARK   17  A    between atoms: C20_29  and  C21_30 
REMARK   18  A    between atoms: C20_29  and  C24_33 
REMARK   19  A    between atoms: C20_29  and  N6_40 
REMARK   20  A    between atoms: C21_30  and  C22_31 
REMARK   21  A    between atoms: C22_31  and  C23_32 
REMARK   22  A    between atoms: C23_32  and  O8_43 
REMARK   23  A    between atoms: C24_33  and  C25_34 
REMARK   24  A    between atoms: C28_38  and  O6_39 
REMARK   25  A    between atoms: C29_42  and  O8_43 
REMARK   26  A    between atoms: C29_42  and  C35_49 
ROOT
ATOM      1  C14 non d ame     -11.937  13.593  69.516  0.00  0.00     0.089 C 
ATOM      2  H20 non d ame     -12.932  13.509  69.077  0.00  0.00     0.087 H 
ENDROOT
BRANCH   1   3
ATOM      3  N4  non d ame     -11.510  12.254  69.894  0.00  0.00    -0.346 N 
ATOM      4  C10 non d ame     -11.574  11.124  68.898  0.00  0.00     0.241 C 
ATOM      5  O4  non d ame     -11.975  11.316  67.797  0.00  0.00    -0.271 OA
ATOM      6  H19 non d ame     -11.174  12.111  70.836  0.00  0.00     0.163 HD
BRANCH   4   7
ATOM      7  C9  non d ame     -11.123   9.746  69.305  0.00  0.00     0.092 C 
ATOM      8  H11 non d ame     -11.876   9.018  69.003  0.00  0.00     0.088 H 
BRANCH   7   9
ATOM      9  N3  non d ame      -9.884   9.408  68.597  0.00  0.00    -0.346 N 
ATOM     10  C7  non d ame      -9.909   8.449  67.519  0.00  0.00     0.240 C 
ATOM     11  O3  non d ame     -10.917   7.940  67.210  0.00  0.00    -0.271 OA
ATOM     12  H10 non d ame      -9.007   9.838  68.854  0.00  0.00     0.163 HD
BRANCH  10  13
ATOM     13  C6  non d ame      -8.588   8.091  66.771  0.00  0.00     0.086 C 
ATOM     14  H6  non d ame      -7.944   7.427  67.347  0.00  0.00     0.086 H 
BRANCH  13  15
ATOM     15  N2  non d ame      -8.917   7.388  65.542  0.00  0.00    -0.343 N 
ATOM     16  C5  non d ame      -8.104   6.243  65.126  0.00  0.00     0.273 C 
ATOM     17  O2  non d ame      -7.186   5.897  65.785  0.00  0.00    -0.266 OA
ATOM     18  H5  non d ame      -9.702   7.693  64.984  0.00  0.00     0.163 HD
BRANCH  16  19
ATOM     19  C4  non d ame      -8.442   5.490  63.830  0.00  0.00     0.154 A 
ATOM     20  C1  non d ame      -9.504   4.553  63.626  0.00  0.00    -0.017 A 
ATOM     21  C2  non d ame      -9.382   4.154  62.277  0.00  0.00     0.077 A 
ATOM     22  H1  non d ame     -10.249   4.215  64.347  0.00  0.00     0.091 H 
ATOM     23  O1  non d ame      -8.367   4.793  61.773  0.00  0.00    -0.218 OA
ATOM     24  N1  non d ame      -7.802   5.579  62.661  0.00  0.00    -0.123 NA
BRANCH  21  25
ATOM     25  C3  non d ame     -10.275   3.159  61.547  0.00  0.00    -0.029 C 
ATOM     26  H2  non d ame     -10.389   2.260  62.152  0.00  0.00     0.036 H 
ATOM     27  H3  non d ame     -11.253   3.608  61.375  0.00  0.00     0.036 H 
ATOM     28  H4  non d ame      -9.822   2.898  60.589  0.00  0.00     0.036 H 
ENDBRANCH  21  25
ENDBRANCH  16  19
ENDBRANCH  13  15
BRANCH  13  29
ATOM     29  C8  non d ame      -7.827   9.354  66.456  0.00  0.00    -0.049 C 
ATOM     30  H7  non d ame      -8.152  10.151  67.125  0.00  0.00     0.030 H 
ATOM     31  H8  non d ame      -6.760   9.179  66.591  0.00  0.00     0.030 H 
ATOM     32  H9  non d ame      -8.020   9.646  65.424  0.00  0.00     0.030 H 
ENDBRANCH  13  29
ENDBRANCH  10  13
ENDBRANCH   7   9
BRANCH   7  33
ATOM     33  C11 non d ame     -10.864   9.717  70.840  0.00  0.00    -0.033 C 
ATOM     34  H12 non d ame     -10.667  10.741  71.159  0.00  0.00     0.042 H 
BRANCH  33  35
ATOM     35  C12 non d ame     -12.119   9.216  71.619  0.00  0.00    -0.071 C 
ATOM     36  H13 non d ame     -12.808   8.733  70.926  0.00  0.00     0.028 H 
ATOM     37  H14 non d ame     -11.812   8.502  72.382  0.00  0.00     0.028 H 
ATOM     38  H15 non d ame     -12.615  10.064  72.092  0.00  0.00     0.028 H 
ENDBRANCH  33  35
BRANCH  33  39
ATOM     39  C13 non d ame      -9.605   8.855  71.179  0.00  0.00    -0.071 C 
ATOM     40  H16 non d ame      -8.972   8.773  70.296  0.00  0.00     0.028 H 
ATOM     41  H17 non d ame      -9.045   9.330  71.985  0.00  0.00     0.028 H 
ATOM     42  H18 non d ame      -9.921   7.860  71.493  0.00  0.00     0.028 H 
ENDBRANCH  33  39
ENDBRANCH   7  33
ENDBRANCH   4   7
ENDBRANCH   1   3
BRANCH   1  43
ATOM     43  C15 non d ame     -10.901  14.178  68.514  0.00  0.00     0.240 C 
ATOM     44  O5  non d ame      -9.795  14.415  68.878  0.00  0.00    -0.271 OA
ATOM     45  N6  non d ame     -11.286  14.436  67.097  0.00  0.00    -0.355 N 
ATOM     46  H46 non d ame     -12.222  14.235  66.774  0.00  0.00     0.162 HD
BRANCH  45  47
ATOM     47  C20 non d ame     -10.289  14.992  66.156  0.00  0.00     0.013 C 
ATOM     48  H30 non d ame      -9.299  14.828  66.581  0.00  0.00     0.072 H 
BRANCH  47  49
ATOM     49  C21 non d ame     -10.539  16.473  65.981  0.00  0.00    -0.038 C 
ATOM     50  H31 non d ame     -10.454  16.661  64.910  0.00  0.00     0.036 H 
ATOM     51  H32 non d ame     -11.476  16.676  66.498  0.00  0.00     0.036 H 
BRANCH  49  52
ATOM     52  C22 non d ame      -9.464  17.346  66.664  0.00  0.00     0.018 C 
ATOM     53  H33 non d ame      -9.056  16.736  67.471  0.00  0.00     0.048 H 
ATOM     54  H34 non d ame      -8.813  17.695  65.862  0.00  0.00     0.048 H 
BRANCH  52  55
ATOM     55  C23 non d ame     -10.034  18.624  67.341  0.00  0.00     0.259 C 
ATOM     56  O7  non d ame     -11.161  18.658  67.714  0.00  0.00    -0.265 OA
BRANCH  55  57
ATOM     57  O8  non d ame      -9.194  19.762  67.497  0.00  0.00    -0.317 OA
BRANCH  57  58
ATOM     58  C29 non d ame      -7.902  19.619  66.902  0.00  0.00     0.052 C 
ATOM     59  H47 non d ame      -7.881  18.614  66.481  0.00  0.00     0.082 H 
ATOM     60  H48 non d ame      -7.779  20.485  66.251  0.00  0.00     0.082 H 
BRANCH  58  61
ATOM     61  C35 non d ame      -6.842  19.701  68.032  0.00  0.00    -0.034 A 
ATOM     62  C30 non d ame      -6.036  20.829  68.151  0.00  0.00    -0.075 A 
ATOM     63  C31 non d ame      -5.083  20.902  69.166  0.00  0.00    -0.082 A 
ATOM     64  H49 non d ame      -6.151  21.655  67.450  0.00  0.00     0.084 H 
ATOM     65  C32 non d ame      -4.936  19.841  70.063  0.00  0.00    -0.083 A 
ATOM     66  H50 non d ame      -4.455  21.788  69.259  0.00  0.00     0.083 H 
ATOM     67  C33 non d ame      -5.740  18.716  69.938  0.00  0.00    -0.082 A 
ATOM     68  H51 non d ame      -4.194  19.890  70.860  0.00  0.00     0.083 H 
ATOM     69  C34 non d ame      -6.695  18.639  68.927  0.00  0.00    -0.075 A 
ATOM     70  H52 non d ame      -5.621  17.888  70.638  0.00  0.00     0.083 H 
ATOM     71  H53 non d ame      -7.323  17.752  68.836  0.00  0.00     0.084 H 
ENDBRANCH  58  61
ENDBRANCH  57  58
ENDBRANCH  55  57
ENDBRANCH  52  55
ENDBRANCH  49  52
ENDBRANCH  47  49
BRANCH  47  72
ATOM     72  C24 non d ame     -10.408  14.291  64.804  0.00  0.00    -0.039 C 
ATOM     73  H35 non d ame     -11.063  14.925  64.205  0.00  0.00     0.036 H 
ATOM     74  H36 non d ame      -9.384  14.108  64.481  0.00  0.00     0.036 H 
BRANCH  72  75
ATOM     75  C25 non d ame     -11.125  12.865  64.937  0.00  0.00    -0.001 C 
ATOM     76  C26 non d ame     -10.009  11.663  64.809  0.00  0.00    -0.035 C 
ATOM     77  C27 non d ame     -10.430  10.775  63.877  0.00  0.00     0.085 C 
ATOM     78  H38 non d ame      -9.084  12.056  64.387  0.00  0.00     0.036 H 
ATOM     79  H39 non d ame      -9.984  11.077  65.727  0.00  0.00     0.036 H 
ATOM     80  N5  non d ame     -11.565  11.427  63.126  0.00  0.00    -0.049 N 
ATOM     81  H40 non d ame      -9.586  10.641  63.199  0.00  0.00     0.075 H 
ATOM     82  H41 non d ame     -10.817   9.926  64.439  0.00  0.00     0.075 H 
ATOM     83  C28 non d ame     -12.012  12.699  64.013  0.00  0.00     0.193 C 
ATOM     84  H42 non d ame     -11.177  11.762  62.255  0.00  0.00     0.280 HD
ATOM     85  H43 non d ame     -12.323  10.759  63.117  0.00  0.00     0.280 HD
ATOM     86  H44 non d ame     -12.920  12.663  64.615  0.00  0.00     0.129 H 
ATOM     87  H37 non d ame     -11.804  12.821  65.788  0.00  0.00     0.046 H 
BRANCH  83  88
ATOM     88  O6  non d ame     -12.149  13.855  63.184  0.00  0.00    -0.369 OA
ATOM     89  H45 non d ame     -12.301  14.626  63.734  0.00  0.00     0.212 HD
ENDBRANCH  83  88
ENDBRANCH  72  75
ENDBRANCH  47  72
ENDBRANCH  45  47
ENDBRANCH   1  43
BRANCH   1  90
ATOM     90  C16 non d ame     -11.995  14.465  70.759  0.00  0.00    -0.035 C 
ATOM     91  H21 non d ame     -11.295  14.013  71.462  0.00  0.00     0.037 H 
ATOM     92  H22 non d ame     -11.830  15.483  70.406  0.00  0.00     0.037 H 
BRANCH  90  93
ATOM     93  C17 non d ame     -13.389  14.463  71.462  0.00  0.00    -0.059 C 
ATOM     94  H23 non d ame     -14.150  14.565  70.688  0.00  0.00     0.038 H 
BRANCH  93  95
ATOM     95  C18 non d ame     -13.663  13.127  72.225  0.00  0.00    -0.073 C 
ATOM     96  H24 non d ame     -12.882  12.406  71.985  0.00  0.00     0.028 H 
ATOM     97  H25 non d ame     -13.665  13.317  73.299  0.00  0.00     0.028 H 
ATOM     98  H26 non d ame     -14.632  12.729  71.925  0.00  0.00     0.028 H 
ENDBRANCH  93  95
BRANCH  93  99
ATOM     99  C19 non d ame     -13.531  15.665  72.400  0.00  0.00    -0.073 C 
ATOM    100  H27 non d ame     -14.583  15.941  72.480  0.00  0.00     0.028 H 
ATOM    101  H28 non d ame     -13.148  15.403  73.386  0.00  0.00     0.028 H 
ATOM    102  H29 non d ame     -12.963  16.505  72.001  0.00  0.00     0.028 H 
ENDBRANCH  93  99
ENDBRANCH  90  93
ENDBRANCH   1  90
TORSDOF 26
ENDMDL
MODEL 2
REMARK VINA RESULT:      -7.6      3.025      4.821
REMARK  26 active torsions:
REMARK  status: ('A' for Active; 'I' for Inactive)
REMARK    1  A    between atoms: C2_2  and  C3_3 
REMARK    2  A    between atoms: C4_6  and  C5_7 
REMARK       I    between atoms: C5_7  and  N2_9 
REMARK    3  A    between atoms: N2_9  and  C6_10 
REMARK    4  A    between atoms: C6_10  and  C7_11 
REMARK    5  A    between atoms: C6_10  and  C8_13 
REMARK       I    between atoms: C7_11  and  N3_14 
REMARK    6  A    between atoms: N3_14  and  C9_15 
REMARK    7  A    between atoms: C9_15  and  C10_16 
REMARK    8  A    between atoms: C9_15  and  C11_18 
REMARK       I    between atoms: C10_16  and  N4_21 
REMARK    9  A    between atoms: C11_18  and  C12_19 
REMARK   10  A    between atoms: C11_18  and  C13_20 
REMARK   11  A    between atoms: N4_21  and  C14_22 
REMARK   12  A    between atoms: C14_22  and  C15_23 
REMARK   13  A    between atoms: C14_22  and  C16_25 
REMARK       I    between atoms: C15_23  and  N6_40 
REMARK   14  A    between atoms: C16_25  and  C17_26 
REMARK   15  A    between atoms: C17_26  and  C18_27 
REMARK   16  A    between atoms: C17_26  and  C19_28 
REMARK   17  A    between atoms: C20_29  and  C21_30 
REMARK   18  A    between atoms: C20_29  and  C24_33 
REMARK   19  A    between atoms: C20_29  and  N6_40 
REMARK   20  A    between atoms: C21_30  and  C22_31 
REMARK   21  A    between atoms: C22_31  and  C23_32 
REMARK   22  A    between atoms: C23_32  and  O8_43 
REMARK   23  A    between atoms: C24_33  and  C25_34 
REMARK   24  A    between atoms: C28_38  and  O6_39 
REMARK   25  A    between atoms: C29_42  and  O8_43 
REMARK   26  A    between atoms: C29_42  and  C35_49 
ROOT
ATOM      1  C14 non d ame     -12.115  13.799  69.573  0.00  0.00     0.089 C 
ATOM      2  H20 non d ame     -13.063  13.563  69.088  0.00  0.00     0.087 H 
ENDROOT
BRANCH   1   3
ATOM      3  N4  non d ame     -11.607  12.570  70.164  0.00  0.00    -0.346 N 
ATOM      4  C10 non d ame     -11.741  11.259  69.431  0.00  0.00     0.241 C 
ATOM      5  O4  non d ame     -12.264  11.218  68.366  0.00  0.00    -0.271 OA
ATOM      6  H19 non d ame     -11.168  12.625  71.073  0.00  0.00     0.163 HD
BRANCH   4   7
ATOM      7  C9  non d ame     -11.206   9.998  70.056  0.00  0.00     0.092 C 
ATOM      8  H11 non d ame     -11.365   9.163  69.373  0.00  0.00     0.088 H 
BRANCH   7   9
ATOM      9  N3  non d ame      -9.758  10.126  70.253  0.00  0.00    -0.346 N 
ATOM     10  C7  non d ame      -8.857   9.884  69.153  0.00  0.00     0.240 C 
ATOM     11  O3  non d ame      -9.280   9.583  68.103  0.00  0.00    -0.271 OA
ATOM     12  H10 non d ame      -9.379  10.382  71.153  0.00  0.00     0.163 HD
BRANCH  10  13
ATOM     13  C6  non d ame      -7.318  10.019  69.369  0.00  0.00     0.086 C 
ATOM     14  H6  non d ame      -6.738   9.478  68.622  0.00  0.00     0.086 H 
BRANCH  13  15
ATOM     15  N2  non d ame      -6.946  11.419  69.252  0.00  0.00    -0.343 N 
ATOM     16  C5  non d ame      -6.570  11.958  67.943  0.00  0.00     0.273 C 
ATOM     17  O2  non d ame      -6.567  11.256  66.992  0.00  0.00    -0.266 OA
ATOM     18  H5  non d ame      -6.949  12.011  70.070  0.00  0.00     0.163 HD
BRANCH  16  19
ATOM     19  C4  non d ame      -6.177  13.437  67.804  0.00  0.00     0.154 A 
ATOM     20  C1  non d ame      -4.967  14.055  68.252  0.00  0.00    -0.017 A 
ATOM     21  C2  non d ame      -5.096  15.414  67.886  0.00  0.00     0.077 A 
ATOM     22  H1  non d ame      -4.125  13.590  68.765  0.00  0.00     0.091 H 
ATOM     23  O1  non d ame      -6.247  15.548  67.296  0.00  0.00    -0.218 OA
ATOM     24  N1  non d ame      -6.897  14.408  67.236  0.00  0.00    -0.123 NA
BRANCH  21  25
ATOM     25  C3  non d ame      -4.074  16.515  68.135  0.00  0.00    -0.029 C 
ATOM     26  H2  non d ame      -4.489  17.245  68.831  0.00  0.00     0.036 H 
ATOM     27  H3  non d ame      -3.169  16.082  68.560  0.00  0.00     0.036 H 
ATOM     28  H4  non d ame      -3.833  17.008  67.193  0.00  0.00     0.036 H 
ENDBRANCH  21  25
ENDBRANCH  16  19
ENDBRANCH  13  15
BRANCH  13  29
ATOM     29  C8  non d ame      -6.953   9.500  70.737  0.00  0.00    -0.049 C 
ATOM     30  H7  non d ame      -7.862   9.262  71.290  0.00  0.00     0.030 H 
ATOM     31  H8  non d ame      -6.344   8.602  70.635  0.00  0.00     0.030 H 
ATOM     32  H9  non d ame      -6.390  10.263  71.276  0.00  0.00     0.030 H 
ENDBRANCH  13  29
ENDBRANCH  10  13
ENDBRANCH   7   9
BRANCH   7  33
ATOM     33  C11 non d ame     -11.895   9.768  71.432  0.00  0.00    -0.033 C 
ATOM     34  H12 non d ame     -11.698  10.644  72.049  0.00  0.00     0.042 H 
BRANCH  33  35
ATOM     35  C12 non d ame     -13.443   9.641  71.278  0.00  0.00    -0.071 C 
ATOM     36  H13 non d ame     -13.688   9.426  70.238  0.00  0.00     0.028 H 
ATOM     37  H14 non d ame     -13.806   8.831  71.911  0.00  0.00     0.028 H 
ATOM     38  H15 non d ame     -13.915  10.576  71.578  0.00  0.00     0.028 H 
ENDBRANCH  33  35
BRANCH  33  39
ATOM     39  C13 non d ame     -11.294   8.521  72.158  0.00  0.00    -0.071 C 
ATOM     40  H16 non d ame     -10.217   8.490  71.995  0.00  0.00     0.028 H 
ATOM     41  H17 non d ame     -11.498   8.589  73.227  0.00  0.00     0.028 H 
ATOM     42  H18 non d ame     -11.749   7.615  71.758  0.00  0.00     0.028 H 
ENDBRANCH  33  39
ENDBRANCH   7  33
ENDBRANCH   4   7
ENDBRANCH   1   3
BRANCH   1  43
ATOM     43  C15 non d ame     -11.058  14.336  68.565  0.00  0.00     0.240 C 
ATOM     44  O5  non d ame      -9.982  14.660  68.954  0.00  0.00    -0.271 OA
ATOM     45  N6  non d ame     -11.384  14.439  67.114  0.00  0.00    -0.355 N 
ATOM     46  H46 non d ame     -12.293  14.162  66.772  0.00  0.00     0.162 HD
BRANCH  45  47
ATOM     47  C20 non d ame     -10.368  14.950  66.169  0.00  0.00     0.013 C 
ATOM     48  H30 non d ame      -9.384  14.738  66.587  0.00  0.00     0.072 H 
BRANCH  47  49
ATOM     49  C21 non d ame     -10.548  16.442  66.002  0.00  0.00    -0.038 C 
ATOM     50  H31 non d ame     -10.562  16.618  64.926  0.00  0.00     0.036 H 
ATOM     51  H32 non d ame     -11.415  16.704  66.609  0.00  0.00     0.036 H 
BRANCH  49  52
ATOM     52  C22 non d ame      -9.361  17.255  66.562  0.00  0.00     0.018 C 
ATOM     53  H33 non d ame      -8.621  16.519  66.877  0.00  0.00     0.048 H 
ATOM     54  H34 non d ame      -9.110  17.983  65.789  0.00  0.00     0.048 H 
BRANCH  52  55
ATOM     55  C23 non d ame      -9.710  18.082  67.830  0.00  0.00     0.259 C 
ATOM     56  O7  non d ame     -10.717  17.874  68.427  0.00  0.00    -0.265 OA
BRANCH  55  57
ATOM     57  O8  non d ame      -8.819  19.102  68.265  0.00  0.00    -0.317 OA
BRANCH  57  58
ATOM     58  C29 non d ame      -8.762  20.235  67.395  0.00  0.00     0.052 C 
ATOM     59  H47 non d ame      -9.399  19.988  66.546  0.00  0.00     0.082 H 
ATOM     60  H48 non d ame      -8.995  21.098  68.018  0.00  0.00     0.082 H 
BRANCH  58  61
ATOM     61  C35 non d ame      -7.302  20.376  66.887  0.00  0.00    -0.034 A 
ATOM     62  C30 non d ame      -6.341  20.983  67.690  0.00  0.00    -0.075 A 
ATOM     63  C31 non d ame      -5.029  21.110  67.234  0.00  0.00    -0.082 A 
ATOM     64  H49 non d ame      -6.615  21.358  68.676  0.00  0.00     0.084 H 
ATOM     65  C32 non d ame      -4.681  20.630  65.969  0.00  0.00    -0.083 A 
ATOM     66  H50 non d ame      -4.278  21.584  67.867  0.00  0.00     0.083 H 
ATOM     67  C33 non d ame      -5.644  20.028  65.170  0.00  0.00    -0.082 A 
ATOM     68  H51 non d ame      -3.658  20.725  65.605  0.00  0.00     0.083 H 
ATOM     69  C34 non d ame      -6.955  19.897  65.623  0.00  0.00    -0.075 A 
ATOM     70  H52 non d ame      -5.369  19.657  64.183  0.00  0.00     0.083 H 
ATOM     71  H53 non d ame      -7.705  19.423  64.990  0.00  0.00     0.084 H 
ENDBRANCH  58  61
ENDBRANCH  57  58
ENDBRANCH  55  57
ENDBRANCH  52  55
ENDBRANCH  49  52
ENDBRANCH  47  49
BRANCH  47  72
ATOM     72  C24 non d ame     -10.529  14.262  64.815  0.00  0.00    -0.039 C 
ATOM     73  H35 non d ame     -11.223  14.887  64.253  0.00  0.00     0.036 H 
ATOM     74  H36 non d ame      -9.515  14.106  64.447  0.00  0.00     0.036 H 
BRANCH  72  75
ATOM     75  C25 non d ame     -11.206  12.818  64.961  0.00  0.00    -0.001 C 
ATOM     76  C26 non d ame     -10.045  11.653  64.968  0.00  0.00    -0.035 C 
ATOM     77  C27 non d ame     -10.368  10.711  64.050  0.00  0.00     0.085 C 
ATOM     78  H38 non d ame      -9.106  12.060  64.596  0.00  0.00     0.036 H 
ATOM     79  H39 non d ame     -10.068  11.108  65.912  0.00  0.00     0.036 H 
ATOM     80  N5  non d ame     -11.466  11.289  63.191  0.00  0.00    -0.049 N 
ATOM     81  H40 non d ame      -9.472  10.578  63.441  0.00  0.00     0.075 H 
ATOM     82  H41 non d ame     -10.767   9.873  64.621  0.00  0.00     0.075 H 
ATOM     83  C28 non d ame     -12.018  12.581  63.985  0.00  0.00     0.193 C 
ATOM     84  H42 non d ame     -11.027  11.600  62.336  0.00  0.00     0.280 HD
ATOM     85  H43 non d ame     -12.199  10.594  63.158  0.00  0.00     0.280 HD
ATOM     86  H44 non d ame     -12.966  12.538  64.522  0.00  0.00     0.129 H 
ATOM     87  H37 non d ame     -11.944  12.787  65.763  0.00  0.00     0.046 H 
BRANCH  83  88
ATOM     88  O6  non d ame     -12.132  13.694  63.097  0.00  0.00    -0.369 OA
ATOM     89  H45 non d ame     -13.020  13.724  62.734  0.00  0.00     0.212 HD
ENDBRANCH  83  88
ENDBRANCH  72  75
ENDBRANCH  47  72
ENDBRANCH  45  47
ENDBRANCH   1  43
BRANCH   1  90
ATOM     90  C16 non d ame     -12.339  14.823  70.673  0.00  0.00    -0.035 C 
ATOM     91  H21 non d ame     -11.372  14.937  71.163  0.00  0.00     0.037 H 
ATOM     92  H22 non d ame     -12.805  15.677  70.181  0.00  0.00     0.037 H 
BRANCH  90  93
ATOM     93  C17 non d ame     -13.340  14.350  71.775  0.00  0.00    -0.059 C 
ATOM     94  H23 non d ame     -13.446  13.269  71.683  0.00  0.00     0.038 H 
BRANCH  93  95
ATOM     95  C18 non d ame     -12.818  14.656  73.216  0.00  0.00    -0.073 C 
ATOM     96  H24 non d ame     -12.607  15.722  73.306  0.00  0.00     0.028 H 
ATOM     97  H25 non d ame     -13.577  14.372  73.945  0.00  0.00     0.028 H 
ATOM     98  H26 non d ame     -11.906  14.088  73.400  0.00  0.00     0.028 H 
ENDBRANCH  93  95
BRANCH  93  99
ATOM     99  C19 non d ame     -14.725  14.963  71.556  0.00  0.00    -0.073 C 
ATOM    100  H27 non d ame     -15.276  14.962  72.497  0.00  0.00     0.028 H 
ATOM    101  H28 non d ame     -14.617  15.987  71.199  0.00  0.00     0.028 H 
ATOM    102  H29 non d ame     -15.269  14.376  70.815  0.00  0.00     0.028 H 
ENDBRANCH  93  99
ENDBRANCH  90  93
ENDBRANCH   1  90
TORSDOF 26
ENDMDL
MODEL 3
REMARK VINA RESULT:      -7.5      3.255      9.743
REMARK  26 active torsions:
REMARK  status: ('A' for Active; 'I' for Inactive)
REMARK    1  A    between atoms: C2_2  and  C3_3 
REMARK    2  A    between atoms: C4_6  and  C5_7 
REMARK       I    between atoms: C5_7  and  N2_9 
REMARK    3  A    between atoms: N2_9  and  C6_10 
REMARK    4  A    between atoms: C6_10  and  C7_11 
REMARK    5  A    between atoms: C6_10  and  C8_13 
REMARK       I    between atoms: C7_11  and  N3_14 
REMARK    6  A    between atoms: N3_14  and  C9_15 
REMARK    7  A    between atoms: C9_15  and  C10_16 
REMARK    8  A    between atoms: C9_15  and  C11_18 
REMARK       I    between atoms: C10_16  and  N4_21 
REMARK    9  A    between atoms: C11_18  and  C12_19 
REMARK   10  A    between atoms: C11_18  and  C13_20 
REMARK   11  A    between atoms: N4_21  and  C14_22 
REMARK   12  A    between atoms: C14_22  and  C15_23 
REMARK   13  A    between atoms: C14_22  and  C16_25 
REMARK       I    between atoms: C15_23  and  N6_40 
REMARK   14  A    between atoms: C16_25  and  C17_26 
REMARK   15  A    between atoms: C17_26  and  C18_27 
REMARK   16  A    between atoms: C17_26  and  C19_28 
REMARK   17  A    between atoms: C20_29  and  C21_30 
REMARK   18  A    between atoms: C20_29  and  C24_33 
REMARK   19  A    between atoms: C20_29  and  N6_40 
REMARK   20  A    between atoms: C21_30  and  C22_31 
REMARK   21  A    between atoms: C22_31  and  C23_32 
REMARK   22  A    between atoms: C23_32  and  O8_43 
REMARK   23  A    between atoms: C24_33  and  C25_34 
REMARK   24  A    between atoms: C28_38  and  O6_39 
REMARK   25  A    between atoms: C29_42  and  O8_43 
REMARK   26  A    between atoms: C29_42  and  C35_49 
ROOT
ATOM      1  C14 non d ame      -6.558  13.761  68.175  0.00  0.00     0.089 C 
ATOM      2  H20 non d ame      -5.830  13.710  67.365  0.00  0.00     0.087 H 
ENDROOT
BRANCH   1   3
ATOM      3  N4  non d ame      -6.878  15.165  68.389  0.00  0.00    -0.346 N 
ATOM      4  C10 non d ame      -6.114  16.240  67.659  0.00  0.00     0.241 C 
ATOM      5  O4  non d ame      -5.243  15.952  66.906  0.00  0.00    -0.271 OA
ATOM      6  H19 non d ame      -7.621  15.389  69.036  0.00  0.00     0.163 HD
BRANCH   4   7
ATOM      7  C9  non d ame      -6.463  17.687  67.889  0.00  0.00     0.092 C 
ATOM      8  H11 non d ame      -6.175  18.269  67.013  0.00  0.00     0.088 H 
BRANCH   7   9
ATOM      9  N3  non d ame      -7.915  17.823  68.041  0.00  0.00    -0.346 N 
ATOM     10  C7  non d ame      -8.756  17.910  66.873  0.00  0.00     0.240 C 
ATOM     11  O3  non d ame      -8.282  17.874  65.803  0.00  0.00    -0.271 OA
ATOM     12  H10 non d ame      -8.338  17.856  68.957  0.00  0.00     0.163 HD
BRANCH  10  13
ATOM     13  C6  non d ame     -10.301  18.056  67.041  0.00  0.00     0.086 C 
ATOM     14  H6  non d ame     -10.861  17.535  66.265  0.00  0.00     0.086 H 
BRANCH  13  15
ATOM     15  N2  non d ame     -10.695  17.464  68.308  0.00  0.00    -0.343 N 
ATOM     16  C5  non d ame     -11.148  16.072  68.344  0.00  0.00     0.273 C 
ATOM     17  O2  non d ame     -11.194  15.438  67.347  0.00  0.00    -0.266 OA
ATOM     18  H5  non d ame     -10.655  18.014  69.155  0.00  0.00     0.163 HD
BRANCH  16  19
ATOM     19  C4  non d ame     -11.567  15.432  69.677  0.00  0.00     0.154 A 
ATOM     20  C1  non d ame     -11.640  16.069  70.956  0.00  0.00    -0.017 A 
ATOM     21  C2  non d ame     -12.073  15.057  71.842  0.00  0.00     0.077 A 
ATOM     22  H1  non d ame     -11.413  17.106  71.204  0.00  0.00     0.091 H 
ATOM     23  O1  non d ame     -12.228  13.971  71.143  0.00  0.00    -0.218 OA
ATOM     24  N1  non d ame     -11.939  14.165  69.877  0.00  0.00    -0.123 NA
BRANCH  21  25
ATOM     25  C3  non d ame     -12.313  15.211  73.338  0.00  0.00    -0.029 C 
ATOM     26  H2  non d ame     -12.855  14.341  73.710  0.00  0.00     0.036 H 
ATOM     27  H3  non d ame     -11.356  15.291  73.853  0.00  0.00     0.036 H 
ATOM     28  H4  non d ame     -12.900  16.111  73.521  0.00  0.00     0.036 H 
ENDBRANCH  21  25
ENDBRANCH  16  19
ENDBRANCH  13  15
BRANCH  13  29
ATOM     29  C8  non d ame     -10.675  19.517  67.014  0.00  0.00    -0.049 C 
ATOM     30  H7  non d ame     -11.012  19.787  66.013  0.00  0.00     0.030 H 
ATOM     31  H8  non d ame     -11.478  19.699  67.729  0.00  0.00     0.030 H 
ATOM     32  H9  non d ame      -9.807  20.119  67.280  0.00  0.00     0.030 H 
ENDBRANCH  13  29
ENDBRANCH  10  13
ENDBRANCH   7   9
BRANCH   7  33
ATOM     33  C11 non d ame      -5.759  18.192  69.183  0.00  0.00    -0.033 C 
ATOM     34  H12 non d ame      -5.943  17.455  69.965  0.00  0.00     0.042 H 
BRANCH  33  35
ATOM     35  C12 non d ame      -4.215  18.293  68.987  0.00  0.00    -0.071 C 
ATOM     36  H13 non d ame      -4.000  18.786  68.038  0.00  0.00     0.028 H 
ATOM     37  H14 non d ame      -3.783  18.873  69.803  0.00  0.00     0.028 H 
ATOM     38  H15 non d ame      -3.783  17.293  68.983  0.00  0.00     0.028 H 
ENDBRANCH  33  35
BRANCH  33  39
ATOM     39  C13 non d ame      -6.362  19.555  69.652  0.00  0.00    -0.071 C 
ATOM     40  H16 non d ame      -5.868  20.371  69.125  0.00  0.00     0.028 H 
ATOM     41  H17 non d ame      -7.430  19.575  69.434  0.00  0.00     0.028 H 
ATOM     42  H18 non d ame      -6.208  19.669  70.725  0.00  0.00     0.028 H 
ENDBRANCH  33  39
ENDBRANCH   7  33
ENDBRANCH   4   7
ENDBRANCH   1   3
BRANCH   1  43
ATOM     43  C15 non d ame      -7.871  13.000  67.835  0.00  0.00     0.240 C 
ATOM     44  O5  non d ame      -8.873  13.257  68.420  0.00  0.00    -0.271 OA
ATOM     45  N6  non d ame      -7.882  11.955  66.771  0.00  0.00    -0.355 N 
ATOM     46  H46 non d ame      -7.038  11.731  66.264  0.00  0.00     0.162 HD
BRANCH  45  47
ATOM     47  C20 non d ame      -9.138  11.241  66.458  0.00  0.00     0.013 C 
ATOM     48  H30 non d ame      -9.968  11.852  66.813  0.00  0.00     0.072 H 
BRANCH  47  49
ATOM     49  C21 non d ame      -9.142   9.903  67.162  0.00  0.00    -0.038 C 
ATOM     50  H31 non d ame      -8.832   9.175  66.413  0.00  0.00     0.036 H 
ATOM     51  H32 non d ame      -8.547  10.045  68.065  0.00  0.00     0.036 H 
BRANCH  49  52
ATOM     52  C22 non d ame     -10.550   9.477  67.631  0.00  0.00     0.018 C 
ATOM     53  H33 non d ame     -11.166   9.451  66.731  0.00  0.00     0.048 H 
ATOM     54  H34 non d ame     -10.404   8.569  68.217  0.00  0.00     0.048 H 
BRANCH  52  55
ATOM     55  C23 non d ame     -11.229  10.498  68.585  0.00  0.00     0.259 C 
ATOM     56  O7  non d ame     -12.202  11.088  68.244  0.00  0.00    -0.265 OA
BRANCH  55  57
ATOM     57  O8  non d ame     -10.666  10.730  69.871  0.00  0.00    -0.317 OA
BRANCH  57  58
ATOM     58  C29 non d ame     -10.376   9.537  70.604  0.00  0.00     0.052 C 
ATOM     59  H47 non d ame      -9.941   8.846  69.882  0.00  0.00     0.082 H 
ATOM     60  H48 non d ame      -9.796   9.856  71.470  0.00  0.00     0.082 H 
BRANCH  58  61
ATOM     61  C35 non d ame     -11.720   8.943  71.105  0.00  0.00    -0.034 A 
ATOM     62  C30 non d ame     -12.681   9.775  71.670  0.00  0.00    -0.075 A 
ATOM     63  C31 non d ame     -13.888   9.242  72.120  0.00  0.00    -0.082 A 
ATOM     64  H49 non d ame     -12.489  10.844  71.761  0.00  0.00     0.084 H 
ATOM     65  C32 non d ame     -14.131   7.870  72.005  0.00  0.00    -0.083 A 
ATOM     66  H50 non d ame     -14.640   9.896  72.561  0.00  0.00     0.083 H 
ATOM     67  C33 non d ame     -13.168   7.044  71.443  0.00  0.00    -0.082 A 
ATOM     68  H51 non d ame     -15.072   7.446  72.354  0.00  0.00     0.083 H 
ATOM     69  C34 non d ame     -11.961   7.573  70.990  0.00  0.00    -0.075 A 
ATOM     70  H52 non d ame     -13.359   5.974  71.357  0.00  0.00     0.083 H 
ATOM     71  H53 non d ame     -11.209   6.917  70.549  0.00  0.00     0.084 H 
ENDBRANCH  58  61
ENDBRANCH  57  58
ENDBRANCH  55  57
ENDBRANCH  52  55
ENDBRANCH  49  52
ENDBRANCH  47  49
BRANCH  47  72
ATOM     72  C24 non d ame      -9.247  11.024  64.950  0.00  0.00    -0.039 C 
ATOM     73  H35 non d ame      -8.235  11.154  64.565  0.00  0.00     0.036 H 
ATOM     74  H36 non d ame      -9.757  10.068  64.831  0.00  0.00     0.036 H 
BRANCH  72  75
ATOM     75  C25 non d ame     -10.164  12.139  64.255  0.00  0.00    -0.001 C 
ATOM     76  C26 non d ame     -11.449  12.487  65.220  0.00  0.00    -0.035 C 
ATOM     77  C27 non d ame     -12.584  12.393  64.486  0.00  0.00     0.085 C 
ATOM     78  H38 non d ame     -11.570  11.712  65.976  0.00  0.00     0.036 H 
ATOM     79  H39 non d ame     -11.423  13.537  65.514  0.00  0.00     0.036 H 
ATOM     80  N5  non d ame     -12.220  11.695  63.198  0.00  0.00    -0.049 N 
ATOM     81  H40 non d ame     -13.251  11.751  65.062  0.00  0.00     0.075 H 
ATOM     82  H41 non d ame     -12.873  13.420  64.264  0.00  0.00     0.075 H 
ATOM     83  C28 non d ame     -10.608  11.733  63.112  0.00  0.00     0.193 C 
ATOM     84  H42 non d ame     -12.514  10.735  63.299  0.00  0.00     0.280 HD
ATOM     85  H43 non d ame     -12.594  12.262  62.449  0.00  0.00     0.280 HD
ATOM     86  H44 non d ame     -10.105  12.432  62.445  0.00  0.00     0.129 H 
ATOM     87  H37 non d ame      -9.580  12.981  63.884  0.00  0.00     0.046 H 
BRANCH  83  88
ATOM     88  O6  non d ame     -10.102  10.443  62.765  0.00  0.00    -0.369 OA
ATOM     89  H45 non d ame     -10.422  10.198  61.894  0.00  0.00     0.212 HD
ENDBRANCH  83  88
ENDBRANCH  72  75
ENDBRANCH  47  72
ENDBRANCH  45  47
ENDBRANCH   1  43
BRANCH   1  90
ATOM     90  C16 non d ame      -5.952  13.191  69.448  0.00  0.00    -0.035 C 
ATOM     91  H21 non d ame      -6.521  13.638  70.264  0.00  0.00     0.037 H 
ATOM     92  H22 non d ame      -5.955  12.110  69.310  0.00  0.00     0.037 H 
BRANCH  90  93
ATOM     93  C17 non d ame      -4.462  13.603  69.671  0.00  0.00    -0.059 C 
ATOM     94  H23 non d ame      -4.093  14.027  68.738  0.00  0.00     0.038 H 
BRANCH  93  95
ATOM     95  C18 non d ame      -4.312  14.692  70.782  0.00  0.00    -0.073 C 
ATOM     96  H24 non d ame      -5.180  15.350  70.765  0.00  0.00     0.028 H 
ATOM     97  H25 non d ame      -4.241  14.209  71.757  0.00  0.00     0.028 H 
ATOM     98  H26 non d ame      -3.409  15.275  70.599  0.00  0.00     0.028 H 
ENDBRANCH  93  95
BRANCH  93  99
ATOM     99  C19 non d ame      -3.598  12.379  69.988  0.00  0.00    -0.073 C 
ATOM    100  H27 non d ame      -2.560  12.591  69.732  0.00  0.00     0.028 H 
ATOM    101  H28 non d ame      -3.671  12.149  71.052  0.00  0.00     0.028 H 
ATOM    102  H29 non d ame      -3.950  11.526  69.408  0.00  0.00     0.028 H 
ENDBRANCH  93  99
ENDBRANCH  90  93
ENDBRANCH   1  90
TORSDOF 26
ENDMDL
MODEL 4
REMARK VINA RESULT:      -7.5      2.457      9.424
REMARK  26 active torsions:
REMARK  status: ('A' for Active; 'I' for Inactive)
REMARK    1  A    between atoms: C2_2  and  C3_3 
REMARK    2  A    between atoms: C4_6  and  C5_7 
REMARK       I    between atoms: C5_7  and  N2_9 
REMARK    3  A    between atoms: N2_9  and  C6_10 
REMARK    4  A    between atoms: C6_10  and  C7_11 
REMARK    5  A    between atoms: C6_10  and  C8_13 
REMARK       I    between atoms: C7_11  and  N3_14 
REMARK    6  A    between atoms: N3_14  and  C9_15 
REMARK    7  A    between atoms: C9_15  and  C10_16 
REMARK    8  A    between atoms: C9_15  and  C11_18 
REMARK       I    between atoms: C10_16  and  N4_21 
REMARK    9  A    between atoms: C11_18  and  C12_19 
REMARK   10  A    between atoms: C11_18  and  C13_20 
REMARK   11  A    between atoms: N4_21  and  C14_22 
REMARK   12  A    between atoms: C14_22  and  C15_23 
REMARK   13  A    between atoms: C14_22  and  C16_25 
REMARK       I    between atoms: C15_23  and  N6_40 
REMARK   14  A    between atoms: C16_25  and  C17_26 
REMARK   15  A    between atoms: C17_26  and  C18_27 
REMARK   16  A    between atoms: C17_26  and  C19_28 
REMARK   17  A    between atoms: C20_29  and  C21_30 
REMARK   18  A    between atoms: C20_29  and  C24_33 
REMARK   19  A    between atoms: C20_29  and  N6_40 
REMARK   20  A    between atoms: C21_30  and  C22_31 
REMARK   21  A    between atoms: C22_31  and  C23_32 
REMARK   22  A    between atoms: C23_32  and  O8_43 
REMARK   23  A    between atoms: C24_33  and  C25_34 
REMARK   24  A    between atoms: C28_38  and  O6_39 
REMARK   25  A    between atoms: C29_42  and  O8_43 
REMARK   26  A    between atoms: C29_42  and  C35_49 
ROOT
ATOM      1  C14 non d ame      -9.185   6.912  66.518  0.00  0.00     0.089 C 
ATOM      2  H20 non d ame      -9.638   6.619  65.571  0.00  0.00     0.087 H 
ENDROOT
BRANCH   1   3
ATOM      3  N4  non d ame      -8.697   8.274  66.369  0.00  0.00    -0.346 N 
ATOM      4  C10 non d ame      -8.324   8.805  65.007  0.00  0.00     0.241 C 
ATOM      5  O4  non d ame      -8.422   8.114  64.047  0.00  0.00    -0.271 OA
ATOM      6  H19 non d ame      -8.618   8.845  67.199  0.00  0.00     0.163 HD
BRANCH   4   7
ATOM      7  C9  non d ame      -7.825  10.219  64.870  0.00  0.00     0.092 C 
ATOM      8  H11 non d ame      -7.531  10.397  63.836  0.00  0.00     0.088 H 
BRANCH   7   9
ATOM      9  N3  non d ame      -8.913  11.153  65.178  0.00  0.00    -0.346 N 
ATOM     10  C7  non d ame      -9.871  11.503  64.159  0.00  0.00     0.240 C 
ATOM     11  O3  non d ame      -9.782  11.044  63.086  0.00  0.00    -0.271 OA
ATOM     12  H10 non d ame      -9.002  11.558  66.099  0.00  0.00     0.163 HD
BRANCH  10  13
ATOM     13  C6  non d ame     -11.025  12.500  64.492  0.00  0.00     0.086 C 
ATOM     14  H6  non d ame     -11.616  12.189  65.353  0.00  0.00     0.086 H 
BRANCH  13  15
ATOM     15  N2  non d ame     -10.449  13.792  64.828  0.00  0.00    -0.343 N 
ATOM     16  C5  non d ame     -11.085  14.619  65.855  0.00  0.00     0.273 C 
ATOM     17  O2  non d ame     -12.060  14.238  66.403  0.00  0.00    -0.266 OA
ATOM     18  H5  non d ame      -9.617  14.111  64.352  0.00  0.00     0.163 HD
BRANCH  16  19
ATOM     19  C4  non d ame     -10.486  15.986  66.222  0.00  0.00     0.154 A 
ATOM     20  C1  non d ame     -10.613  16.680  67.467  0.00  0.00    -0.017 A 
ATOM     21  C2  non d ame      -9.886  17.878  67.291  0.00  0.00     0.077 A 
ATOM     22  H1  non d ame     -11.150  16.362  68.361  0.00  0.00     0.091 H 
ATOM     23  O1  non d ame      -9.402  17.864  66.084  0.00  0.00    -0.218 OA
ATOM     24  N1  non d ame      -9.739  16.770  65.440  0.00  0.00    -0.123 NA
BRANCH  21  25
ATOM     25  C3  non d ame      -9.702  18.981  68.325  0.00  0.00    -0.029 C 
ATOM     26  H2  non d ame      -8.671  18.980  68.680  0.00  0.00     0.036 H 
ATOM     27  H3  non d ame      -9.929  19.946  67.870  0.00  0.00     0.036 H 
ATOM     28  H4  non d ame     -10.376  18.809  69.165  0.00  0.00     0.036 H 
ENDBRANCH  21  25
ENDBRANCH  16  19
ENDBRANCH  13  15
BRANCH  13  29
ATOM     29  C8  non d ame     -11.936  12.635  63.298  0.00  0.00    -0.049 C 
ATOM     30  H7  non d ame     -11.912  11.714  62.716  0.00  0.00     0.030 H 
ATOM     31  H8  non d ame     -12.954  12.824  63.638  0.00  0.00     0.030 H 
ATOM     32  H9  non d ame     -11.599  13.465  62.677  0.00  0.00     0.030 H 
ENDBRANCH  13  29
ENDBRANCH  10  13
ENDBRANCH   7   9
BRANCH   7  33
ATOM     33  C11 non d ame      -6.648  10.453  65.862  0.00  0.00    -0.033 C 
ATOM     34  H12 non d ame      -6.547   9.554  66.470  0.00  0.00     0.042 H 
BRANCH  33  35
ATOM     35  C12 non d ame      -5.300  10.661  65.105  0.00  0.00    -0.071 C 
ATOM     36  H13 non d ame      -4.927   9.698  64.755  0.00  0.00     0.028 H 
ATOM     37  H14 non d ame      -5.460  11.319  64.252  0.00  0.00     0.028 H 
ATOM     38  H15 non d ame      -4.571  11.110  65.779  0.00  0.00     0.028 H 
ENDBRANCH  33  35
BRANCH  33  39
ATOM     39  C13 non d ame      -6.952  11.651  66.818  0.00  0.00    -0.071 C 
ATOM     40  H16 non d ame      -6.545  12.568  66.392  0.00  0.00     0.028 H 
ATOM     41  H17 non d ame      -8.031  11.754  66.940  0.00  0.00     0.028 H 
ATOM     42  H18 non d ame      -6.493  11.466  67.789  0.00  0.00     0.028 H 
ENDBRANCH  33  39
ENDBRANCH   7  33
ENDBRANCH   4   7
ENDBRANCH   1   3
BRANCH   1  43
ATOM     43  C15 non d ame     -10.206   6.878  67.692  0.00  0.00     0.240 C 
ATOM     44  O5  non d ame     -11.198   6.230  67.594  0.00  0.00    -0.271 OA
ATOM     45  N6  non d ame      -9.943   7.646  68.942  0.00  0.00    -0.355 N 
ATOM     46  H46 non d ame      -9.102   8.196  69.039  0.00  0.00     0.162 HD
BRANCH  45  47
ATOM     47  C20 non d ame     -10.923   7.602  70.049  0.00  0.00     0.013 C 
ATOM     48  H30 non d ame     -11.817   7.095  69.686  0.00  0.00     0.072 H 
BRANCH  47  49
ATOM     49  C21 non d ame     -11.264   9.013  70.470  0.00  0.00    -0.038 C 
ATOM     50  H31 non d ame     -12.343   9.106  70.342  0.00  0.00     0.036 H 
ATOM     51  H32 non d ame     -10.820   9.142  71.457  0.00  0.00     0.036 H 
BRANCH  49  52
ATOM     52  C22 non d ame     -10.622  10.083  69.560  0.00  0.00     0.018 C 
ATOM     53  H33 non d ame      -9.931  10.636  70.196  0.00  0.00     0.048 H 
ATOM     54  H34 non d ame     -10.249   9.543  68.689  0.00  0.00     0.048 H 
BRANCH  52  55
ATOM     55  C23 non d ame     -11.633  11.129  69.014  0.00  0.00     0.259 C 
ATOM     56  O7  non d ame     -11.923  11.144  67.861  0.00  0.00    -0.265 OA
BRANCH  55  57
ATOM     57  O8  non d ame     -12.201  12.081  69.906  0.00  0.00    -0.317 OA
BRANCH  57  58
ATOM     58  C29 non d ame     -11.791  13.428  69.658  0.00  0.00     0.052 C 
ATOM     59  H47 non d ame     -10.705  13.396  69.575  0.00  0.00     0.082 H 
ATOM     60  H48 non d ame     -12.392  13.769  68.815  0.00  0.00     0.082 H 
BRANCH  58  61
ATOM     61  C35 non d ame     -12.164  14.279  70.901  0.00  0.00    -0.034 A 
ATOM     62  C30 non d ame     -11.523  15.492  71.133  0.00  0.00    -0.075 A 
ATOM     63  C31 non d ame     -11.857  16.256  72.250  0.00  0.00    -0.082 A 
ATOM     64  H49 non d ame     -10.759  15.844  70.439  0.00  0.00     0.084 H 
ATOM     65  C32 non d ame     -12.835  15.801  73.139  0.00  0.00    -0.083 A 
ATOM     66  H50 non d ame     -11.355  17.207  72.428  0.00  0.00     0.083 H 
ATOM     67  C33 non d ame     -13.469  14.589  72.905  0.00  0.00    -0.082 A 
ATOM     68  H51 non d ame     -13.103  16.393  74.015  0.00  0.00     0.083 H 
ATOM     69  C34 non d ame     -13.140  13.823  71.789  0.00  0.00    -0.075 A 
ATOM     70  H52 non d ame     -14.230  14.236  73.602  0.00  0.00     0.083 H 
ATOM     71  H53 non d ame     -13.644  12.872  71.612  0.00  0.00     0.084 H 
ENDBRANCH  58  61
ENDBRANCH  57  58
ENDBRANCH  55  57
ENDBRANCH  52  55
ENDBRANCH  49  52
ENDBRANCH  47  49
BRANCH  47  72
ATOM     72  C24 non d ame     -10.328   6.846  71.235  0.00  0.00    -0.039 C 
ATOM     73  H35 non d ame     -11.053   6.067  71.475  0.00  0.00     0.036 H 
ATOM     74  H36 non d ame      -9.318   6.573  70.929  0.00  0.00     0.036 H 
BRANCH  72  75
ATOM     75  C25 non d ame     -10.194   7.782  72.528  0.00  0.00    -0.001 C 
ATOM     76  C26 non d ame      -8.614   8.164  72.781  0.00  0.00    -0.035 C 
ATOM     77  C27 non d ame      -8.299   7.885  74.068  0.00  0.00     0.085 C 
ATOM     78  H38 non d ame      -7.972   7.494  72.210  0.00  0.00     0.036 H 
ATOM     79  H39 non d ame      -8.475   9.243  72.713  0.00  0.00     0.036 H 
ATOM     80  N5  non d ame      -9.422   7.045  74.626  0.00  0.00    -0.049 N 
ATOM     81  H40 non d ame      -7.392   7.280  74.022  0.00  0.00     0.075 H 
ATOM     82  H41 non d ame      -8.287   8.846  74.580  0.00  0.00     0.075 H 
ATOM     83  C28 non d ame     -10.646   7.190  73.583  0.00  0.00     0.193 C 
ATOM     84  H42 non d ame      -9.099   6.088  74.611  0.00  0.00     0.280 HD
ATOM     85  H43 non d ame      -9.693   7.473  75.500  0.00  0.00     0.280 HD
ATOM     86  H44 non d ame     -11.500   7.826  73.816  0.00  0.00     0.129 H 
ATOM     87  H37 non d ame     -10.907   8.606  72.517  0.00  0.00     0.046 H 
BRANCH  83  88
ATOM     88  O6  non d ame     -11.196   5.905  73.286  0.00  0.00    -0.369 OA
ATOM     89  H45 non d ame     -12.042   5.810  73.728  0.00  0.00     0.212 HD
ENDBRANCH  83  88
ENDBRANCH  72  75
ENDBRANCH  47  72
ENDBRANCH  45  47
ENDBRANCH   1  43
BRANCH   1  90
ATOM     90  C16 non d ame      -8.013   5.996  66.834  0.00  0.00    -0.035 C 
ATOM     91  H21 non d ame      -7.137   6.496  66.421  0.00  0.00     0.037 H 
ATOM     92  H22 non d ame      -8.077   5.805  67.905  0.00  0.00     0.037 H 
BRANCH  90  93
ATOM     93  C17 non d ame      -8.099   4.604  66.131  0.00  0.00    -0.059 C 
ATOM     94  H23 non d ame      -7.089   4.322  65.833  0.00  0.00     0.038 H 
BRANCH  93  95
ATOM     95  C18 non d ame      -8.642   3.494  67.086  0.00  0.00    -0.073 C 
ATOM     96  H24 non d ame      -7.890   3.265  67.841  0.00  0.00     0.028 H 
ATOM     97  H25 non d ame      -9.551   3.847  67.574  0.00  0.00     0.028 H 
ATOM     98  H26 non d ame      -8.864   2.595  66.510  0.00  0.00     0.028 H 
ENDBRANCH  93  95
BRANCH  93  99
ATOM     99  C19 non d ame      -8.943   4.686  64.856  0.00  0.00    -0.073 C 
ATOM    100  H27 non d ame      -9.487   3.751  64.720  0.00  0.00     0.028 H 
ATOM    101  H28 non d ame      -9.652   5.510  64.943  0.00  0.00     0.028 H 
ATOM    102  H29 non d ame      -8.292   4.857  63.999  0.00  0.00     0.028 H 
ENDBRANCH  93  99
ENDBRANCH  90  93
ENDBRANCH   1  90
TORSDOF 26
ENDMDL
MODEL 5
REMARK VINA RESULT:      -7.2      2.199      2.591
REMARK  26 active torsions:
REMARK  status: ('A' for Active; 'I' for Inactive)
REMARK    1  A    between atoms: C2_2  and  C3_3 
REMARK    2  A    between atoms: C4_6  and  C5_7 
REMARK       I    between atoms: C5_7  and  N2_9 
REMARK    3  A    between atoms: N2_9  and  C6_10 
REMARK    4  A    between atoms: C6_10  and  C7_11 
REMARK    5  A    between atoms: C6_10  and  C8_13 
REMARK       I    between atoms: C7_11  and  N3_14 
REMARK    6  A    between atoms: N3_14  and  C9_15 
REMARK    7  A    between atoms: C9_15  and  C10_16 
REMARK    8  A    between atoms: C9_15  and  C11_18 
REMARK       I    between atoms: C10_16  and  N4_21 
REMARK    9  A    between atoms: C11_18  and  C12_19 
REMARK   10  A    between atoms: C11_18  and  C13_20 
REMARK   11  A    between atoms: N4_21  and  C14_22 
REMARK   12  A    between atoms: C14_22  and  C15_23 
REMARK   13  A    between atoms: C14_22  and  C16_25 
REMARK       I    between atoms: C15_23  and  N6_40 
REMARK   14  A    between atoms: C16_25  and  C17_26 
REMARK   15  A    between atoms: C17_26  and  C18_27 
REMARK   16  A    between atoms: C17_26  and  C19_28 
REMARK   17  A    between atoms: C20_29  and  C21_30 
REMARK   18  A    between atoms: C20_29  and  C24_33 
REMARK   19  A    between atoms: C20_29  and  N6_40 
REMARK   20  A    between atoms: C21_30  and  C22_31 
REMARK   21  A    between atoms: C22_31  and  C23_32 
REMARK   22  A    between atoms: C23_32  and  O8_43 
REMARK   23  A    between atoms: C24_33  and  C25_34 
REMARK   24  A    between atoms: C28_38  and  O6_39 
REMARK   25  A    between atoms: C29_42  and  O8_43 
REMARK   26  A    between atoms: C29_42  and  C35_49 
ROOT
ATOM      1  C14 non d ame     -12.050  13.986  69.601  0.00  0.00     0.089 C 
ATOM      2  H20 non d ame     -13.011  13.828  69.110  0.00  0.00     0.087 H 
ENDROOT
BRANCH   1   3
ATOM      3  N4  non d ame     -11.605  12.701  70.118  0.00  0.00    -0.346 N 
ATOM      4  C10 non d ame     -11.715  11.459  69.269  0.00  0.00     0.241 C 
ATOM      5  O4  non d ame     -12.167  11.519  68.173  0.00  0.00    -0.271 OA
ATOM      6  H19 non d ame     -11.225  12.670  71.054  0.00  0.00     0.163 HD
BRANCH   4   7
ATOM      7  C9  non d ame     -11.244  10.138  69.818  0.00  0.00     0.092 C 
ATOM      8  H11 non d ame     -11.586   9.336  69.164  0.00  0.00     0.088 H 
BRANCH   7   9
ATOM      9  N3  non d ame      -9.779  10.102  69.818  0.00  0.00    -0.346 N 
ATOM     10  C7  non d ame      -9.082   9.110  69.037  0.00  0.00     0.240 C 
ATOM     11  O3  non d ame      -9.685   8.331  68.404  0.00  0.00    -0.271 OA
ATOM     12  H10 non d ame      -9.245  10.766  70.361  0.00  0.00     0.163 HD
BRANCH  10  13
ATOM     13  C6  non d ame      -7.522   9.075  69.044  0.00  0.00     0.086 C 
ATOM     14  H6  non d ame      -7.123   8.122  69.391  0.00  0.00     0.086 H 
BRANCH  13  15
ATOM     15  N2  non d ame      -7.041   9.257  67.685  0.00  0.00    -0.343 N 
ATOM     16  C5  non d ame      -6.574   8.096  66.924  0.00  0.00     0.273 C 
ATOM     17  O2  non d ame      -6.586   7.021  67.415  0.00  0.00    -0.266 OA
ATOM     18  H5  non d ame      -7.031  10.179  67.274  0.00  0.00     0.163 HD
BRANCH  16  19
ATOM     19  C4  non d ame      -6.063   8.273  65.485  0.00  0.00     0.154 A 
ATOM     20  C1  non d ame      -4.777   8.748  65.077  0.00  0.00    -0.017 A 
ATOM     21  C2  non d ame      -4.812   8.722  63.664  0.00  0.00     0.077 A 
ATOM     22  H1  non d ame      -3.946   9.063  65.708  0.00  0.00     0.091 H 
ATOM     23  O1  non d ame      -5.984   8.281  63.314  0.00  0.00    -0.218 OA
ATOM     24  N1  non d ame      -6.732   8.012  64.359  0.00  0.00    -0.123 NA
BRANCH  21  25
ATOM     25  C3  non d ame      -3.684   9.134  62.727  0.00  0.00    -0.029 C 
ATOM     26  H2  non d ame      -2.726   8.853  63.165  0.00  0.00     0.036 H 
ATOM     27  H3  non d ame      -3.807   8.630  61.768  0.00  0.00     0.036 H 
ATOM     28  H4  non d ame      -3.712  10.213  62.576  0.00  0.00     0.036 H 
ENDBRANCH  21  25
ENDBRANCH  16  19
ENDBRANCH  13  15
BRANCH  13  29
ATOM     29  C8  non d ame      -6.996  10.175  69.930  0.00  0.00    -0.049 C 
ATOM     30  H7  non d ame      -6.382  10.856  69.339  0.00  0.00     0.030 H 
ATOM     31  H8  non d ame      -7.832  10.724  70.364  0.00  0.00     0.030 H 
ATOM     32  H9  non d ame      -6.393   9.742  70.727  0.00  0.00     0.030 H 
ENDBRANCH  13  29
ENDBRANCH  10  13
ENDBRANCH   7   9
BRANCH   7  33
ATOM     33  C11 non d ame     -11.765   9.967  71.275  0.00  0.00    -0.033 C 
ATOM     34  H12 non d ame     -11.512  10.874  71.823  0.00  0.00     0.042 H 
BRANCH  33  35
ATOM     35  C12 non d ame     -13.318   9.816  71.310  0.00  0.00    -0.071 C 
ATOM     36  H13 non d ame     -13.648   9.689  72.341  0.00  0.00     0.028 H 
ATOM     37  H14 non d ame     -13.779  10.710  70.889  0.00  0.00     0.028 H 
ATOM     38  H15 non d ame     -13.611   8.945  70.724  0.00  0.00     0.028 H 
ENDBRANCH  33  35
BRANCH  33  39
ATOM     39  C13 non d ame     -11.063   8.763  71.982  0.00  0.00    -0.071 C 
ATOM     40  H16 non d ame     -10.012   8.736  71.695  0.00  0.00     0.028 H 
ATOM     41  H17 non d ame     -11.142   8.880  73.063  0.00  0.00     0.028 H 
ATOM     42  H18 non d ame     -11.546   7.834  71.681  0.00  0.00     0.028 H 
ENDBRANCH  33  39
ENDBRANCH   7  33
ENDBRANCH   4   7
ENDBRANCH   1   3
BRANCH   1  43
ATOM     43  C15 non d ame     -10.971  14.526  68.619  0.00  0.00     0.240 C 
ATOM     44  O5  non d ame      -9.900  14.836  69.030  0.00  0.00    -0.271 OA
ATOM     45  N6  non d ame     -11.270  14.647  67.164  0.00  0.00    -0.355 N 
ATOM     46  H46 non d ame     -12.175  14.383  66.802  0.00  0.00     0.162 HD
BRANCH  45  47
ATOM     47  C20 non d ame     -10.233  15.161  66.243  0.00  0.00     0.013 C 
ATOM     48  H30 non d ame      -9.262  15.019  66.718  0.00  0.00     0.072 H 
BRANCH  47  49
ATOM     49  C21 non d ame     -10.474  16.631  65.988  0.00  0.00    -0.038 C 
ATOM     50  H31 non d ame     -10.474  16.747  64.904  0.00  0.00     0.036 H 
ATOM     51  H32 non d ame     -11.363  16.887  66.564  0.00  0.00     0.036 H 
BRANCH  49  52
ATOM     52  C22 non d ame      -9.335  17.527  66.522  0.00  0.00     0.018 C 
ATOM     53  H33 non d ame      -8.529  16.846  66.798  0.00  0.00     0.048 H 
ATOM     54  H34 non d ame      -9.170  18.284  65.756  0.00  0.00     0.048 H 
BRANCH  52  55
ATOM     55  C23 non d ame      -9.703  18.302  67.818  0.00  0.00     0.259 C 
ATOM     56  O7  non d ame     -10.693  18.036  68.419  0.00  0.00    -0.265 OA
BRANCH  55  57
ATOM     57  O8  non d ame      -8.848  19.345  68.272  0.00  0.00    -0.317 OA
BRANCH  57  58
ATOM     58  C29 non d ame      -8.500  20.294  67.261  0.00  0.00     0.052 C 
ATOM     59  H47 non d ame      -8.747  19.818  66.312  0.00  0.00     0.082 H 
ATOM     60  H48 non d ame      -8.990  21.224  67.548  0.00  0.00     0.082 H 
BRANCH  58  61
ATOM     61  C35 non d ame      -6.964  20.512  67.317  0.00  0.00    -0.034 A 
ATOM     62  C30 non d ame      -6.299  20.469  68.538  0.00  0.00    -0.075 A 
ATOM     63  C31 non d ame      -4.919  20.665  68.588  0.00  0.00    -0.082 A 
ATOM     64  H49 non d ame      -6.858  20.282  69.455  0.00  0.00     0.084 H 
ATOM     65  C32 non d ame      -4.205  20.907  67.411  0.00  0.00    -0.083 A 
ATOM     66  H50 non d ame      -4.400  20.629  69.546  0.00  0.00     0.083 H 
ATOM     67  C33 non d ame      -4.874  20.951  66.196  0.00  0.00    -0.082 A 
ATOM     68  H51 non d ame      -3.127  21.060  67.442  0.00  0.00     0.083 H 
ATOM     69  C34 non d ame      -6.253  20.754  66.140  0.00  0.00    -0.075 A 
ATOM     70  H52 non d ame      -4.315  21.142  65.280  0.00  0.00     0.083 H 
ATOM     71  H53 non d ame      -6.771  20.790  65.182  0.00  0.00     0.084 H 
ENDBRANCH  58  61
ENDBRANCH  57  58
ENDBRANCH  55  57
ENDBRANCH  52  55
ENDBRANCH  49  52
ENDBRANCH  47  49
BRANCH  47  72
ATOM     72  C24 non d ame     -10.292  14.398  64.921  0.00  0.00    -0.039 C 
ATOM     73  H35 non d ame     -10.870  15.030  64.247  0.00  0.00     0.036 H 
ATOM     74  H36 non d ame      -9.258  14.150  64.682  0.00  0.00     0.036 H 
BRANCH  72  75
ATOM     75  C25 non d ame     -11.087  13.015  65.070  0.00  0.00    -0.001 C 
ATOM     76  C26 non d ame     -10.054  11.751  64.874  0.00  0.00    -0.035 C 
ATOM     77  C27 non d ame     -10.572  10.904  63.952  0.00  0.00     0.085 C 
ATOM     78  H38 non d ame      -9.128  12.093  64.414  0.00  0.00     0.036 H 
ATOM     79  H39 non d ame     -10.022  11.150  65.783  0.00  0.00     0.036 H 
ATOM     80  N5  non d ame     -11.699  11.635  63.264  0.00  0.00    -0.049 N 
ATOM     81  H40 non d ame      -9.770  10.730  63.234  0.00  0.00     0.075 H 
ATOM     82  H41 non d ame     -10.983  10.071  64.521  0.00  0.00     0.075 H 
ATOM     83  C28 non d ame     -12.025  12.918  64.188  0.00  0.00     0.193 C 
ATOM     84  H42 non d ame     -11.333  11.959  62.381  0.00  0.00     0.280 HD
ATOM     85  H43 non d ame     -12.496  11.014  63.283  0.00  0.00     0.280 HD
ATOM     86  H44 non d ame     -12.905  12.927  64.832  0.00  0.00     0.129 H 
ATOM     87  H37 non d ame     -11.728  13.000  65.952  0.00  0.00     0.046 H 
BRANCH  83  88
ATOM     88  O6  non d ame     -12.130  14.092  63.381  0.00  0.00    -0.369 OA
ATOM     89  H45 non d ame     -11.672  14.818  63.811  0.00  0.00     0.212 HD
ENDBRANCH  83  88
ENDBRANCH  72  75
ENDBRANCH  47  72
ENDBRANCH  45  47
ENDBRANCH   1  43
BRANCH   1  90
ATOM     90  C16 non d ame     -12.217  14.956  70.760  0.00  0.00    -0.035 C 
ATOM     91  H21 non d ame     -11.232  15.027  71.221  0.00  0.00     0.037 H 
ATOM     92  H22 non d ame     -12.682  15.843  70.329  0.00  0.00     0.037 H 
BRANCH  90  93
ATOM     93  C17 non d ame     -13.188  14.444  71.871  0.00  0.00    -0.059 C 
ATOM     94  H23 non d ame     -13.185  13.354  71.836  0.00  0.00     0.038 H 
BRANCH  93  95
ATOM     95  C18 non d ame     -12.729  14.877  73.300  0.00  0.00    -0.073 C 
ATOM     96  H24 non d ame     -12.627  15.961  73.335  0.00  0.00     0.028 H 
ATOM     97  H25 non d ame     -13.472  14.557  74.032  0.00  0.00     0.028 H 
ATOM     98  H26 non d ame     -11.770  14.413  73.530  0.00  0.00     0.028 H 
ENDBRANCH  93  95
BRANCH  93  99
ATOM     99  C19 non d ame     -14.623  14.903  71.597  0.00  0.00    -0.073 C 
ATOM    100  H27 non d ame     -14.795  15.865  72.079  0.00  0.00     0.028 H 
ATOM    101  H28 non d ame     -14.773  15.003  70.521  0.00  0.00     0.028 H 
ATOM    102  H29 non d ame     -15.322  14.167  71.994  0.00  0.00     0.028 H 
ENDBRANCH  93  99
ENDBRANCH  90  93
ENDBRANCH   1  90
TORSDOF 26
ENDMDL
MODEL 6
REMARK VINA RESULT:      -7.2      2.811      8.801
REMARK  26 active torsions:
REMARK  status: ('A' for Active; 'I' for Inactive)
REMARK    1  A    between atoms: C2_2  and  C3_3 
REMARK    2  A    between atoms: C4_6  and  C5_7 
REMARK       I    between atoms: C5_7  and  N2_9 
REMARK    3  A    between atoms: N2_9  and  C6_10 
REMARK    4  A    between atoms: C6_10  and  C7_11 
REMARK    5  A    between atoms: C6_10  and  C8_13 
REMARK       I    between atoms: C7_11  and  N3_14 
REMARK    6  A    between atoms: N3_14  and  C9_15 
REMARK    7  A    between atoms: C9_15  and  C10_16 
REMARK    8  A    between atoms: C9_15  and  C11_18 
REMARK       I    between atoms: C10_16  and  N4_21 
REMARK    9  A    between atoms: C11_18  and  C12_19 
REMARK   10  A    between atoms: C11_18  and  C13_20 
REMARK   11  A    between atoms: N4_21  and  C14_22 
REMARK   12  A    between atoms: C14_22  and  C15_23 
REMARK   13  A    between atoms: C14_22  and  C16_25 
REMARK       I    between atoms: C15_23  and  N6_40 
REMARK   14  A    between atoms: C16_25  and  C17_26 
REMARK   15  A    between atoms: C17_26  and  C18_27 
REMARK   16  A    between atoms: C17_26  and  C19_28 
REMARK   17  A    between atoms: C20_29  and  C21_30 
REMARK   18  A    between atoms: C20_29  and  C24_33 
REMARK   19  A    between atoms: C20_29  and  N6_40 
REMARK   20  A    between atoms: C21_30  and  C22_31 
REMARK   21  A    between atoms: C22_31  and  C23_32 
REMARK   22  A    between atoms: C23_32  and  O8_43 
REMARK   23  A    between atoms: C24_33  and  C25_34 
REMARK   24  A    between atoms: C28_38  and  O6_39 
REMARK   25  A    between atoms: C29_42  and  O8_43 
REMARK   26  A    between atoms: C29_42  and  C35_49 
ROOT
ATOM      1  C14 non d ame     -11.869  15.034  69.972  0.00  0.00     0.089 C 
ATOM      2  H20 non d ame     -11.082  15.162  70.715  0.00  0.00     0.087 H 
ENDROOT
BRANCH   1   3
ATOM      3  N4  non d ame     -11.542  15.884  68.836  0.00  0.00    -0.346 N 
ATOM      4  C10 non d ame     -10.146  16.432  68.672  0.00  0.00     0.241 C 
ATOM      5  O4  non d ame      -9.304  16.178  69.469  0.00  0.00    -0.271 OA
ATOM      6  H19 non d ame     -12.273  16.090  68.171  0.00  0.00     0.163 HD
BRANCH   4   7
ATOM      7  C9  non d ame      -9.824  17.305  67.488  0.00  0.00     0.092 C 
ATOM      8  H11 non d ame      -8.742  17.357  67.365  0.00  0.00     0.088 H 
BRANCH   7   9
ATOM      9  N3  non d ame     -10.372  16.700  66.271  0.00  0.00    -0.346 N 
ATOM     10  C7  non d ame     -10.128  15.307  65.986  0.00  0.00     0.240 C 
ATOM     11  O3  non d ame      -9.492  14.660  66.725  0.00  0.00    -0.271 OA
ATOM     12  H10 non d ame     -10.920  17.246  65.622  0.00  0.00     0.163 HD
BRANCH  10  13
ATOM     13  C6  non d ame     -10.710  14.669  64.687  0.00  0.00     0.086 C 
ATOM     14  H6  non d ame     -10.663  15.341  63.830  0.00  0.00     0.086 H 
BRANCH  13  15
ATOM     15  N2  non d ame      -9.921  13.499  64.342  0.00  0.00    -0.343 N 
ATOM     16  C5  non d ame     -10.515  12.446  63.515  0.00  0.00     0.273 C 
ATOM     17  O2  non d ame     -11.630  12.548  63.136  0.00  0.00    -0.266 OA
ATOM     18  H5  non d ame      -8.970  13.418  64.672  0.00  0.00     0.163 HD
BRANCH  16  19
ATOM     19  C4  non d ame      -9.692  11.203  63.141  0.00  0.00     0.154 A 
ATOM     20  C1  non d ame      -8.451  11.171  62.430  0.00  0.00    -0.017 A 
ATOM     21  C2  non d ame      -8.115   9.801  62.347  0.00  0.00     0.077 A 
ATOM     22  H1  non d ame      -7.881  12.012  62.034  0.00  0.00     0.091 H 
ATOM     23  O1  non d ame      -9.058   9.134  62.945  0.00  0.00    -0.218 OA
ATOM     24  N1  non d ame      -9.990   9.931  63.417  0.00  0.00    -0.123 NA
BRANCH  21  25
ATOM     25  C3  non d ame      -6.877   9.215  61.682  0.00  0.00    -0.029 C 
ATOM     26  H2  non d ame      -6.291   8.668  62.421  0.00  0.00     0.036 H 
ATOM     27  H3  non d ame      -7.180   8.536  60.885  0.00  0.00     0.036 H 
ATOM     28  H4  non d ame      -6.273  10.020  61.263  0.00  0.00     0.036 H 
ENDBRANCH  21  25
ENDBRANCH  16  19
ENDBRANCH  13  15
BRANCH  13  29
ATOM     29  C8  non d ame     -12.146  14.274  64.918  0.00  0.00    -0.049 C 
ATOM     30  H7  non d ame     -12.558  14.863  65.737  0.00  0.00     0.030 H 
ATOM     31  H8  non d ame     -12.724  14.456  64.012  0.00  0.00     0.030 H 
ATOM     32  H9  non d ame     -12.195  13.215  65.174  0.00  0.00     0.030 H 
ENDBRANCH  13  29
ENDBRANCH  10  13
ENDBRANCH   7   9
BRANCH   7  33
ATOM     33  C11 non d ame     -10.457  18.713  67.694  0.00  0.00    -0.033 C 
ATOM     34  H12 non d ame     -11.479  18.565  68.044  0.00  0.00     0.042 H 
BRANCH  33  35
ATOM     35  C12 non d ame      -9.698  19.522  68.791  0.00  0.00    -0.071 C 
ATOM     36  H13 non d ame      -8.815  18.967  69.107  0.00  0.00     0.028 H 
ATOM     37  H14 non d ame      -9.394  20.487  68.385  0.00  0.00     0.028 H 
ATOM     38  H15 non d ame     -10.355  19.679  69.647  0.00  0.00     0.028 H 
ENDBRANCH  33  35
BRANCH  33  39
ATOM     39  C13 non d ame     -10.517  19.502  66.347  0.00  0.00    -0.071 C 
ATOM     40  H16 non d ame     -11.192  20.351  66.453  0.00  0.00     0.028 H 
ATOM     41  H17 non d ame      -9.519  19.861  66.092  0.00  0.00     0.028 H 
ATOM     42  H18 non d ame     -10.879  18.845  65.557  0.00  0.00     0.028 H 
ENDBRANCH  33  39
ENDBRANCH   7  33
ENDBRANCH   4   7
ENDBRANCH   1   3
BRANCH   1  43
ATOM     43  C15 non d ame     -11.974  13.564  69.475  0.00  0.00     0.240 C 
ATOM     44  O5  non d ame     -12.147  13.340  68.321  0.00  0.00    -0.271 OA
ATOM     45  N6  non d ame     -11.851  12.433  70.439  0.00  0.00    -0.355 N 
ATOM     46  H46 non d ame     -11.699  12.610  71.421  0.00  0.00     0.162 HD
BRANCH  45  47
ATOM     47  C20 non d ame     -11.952  11.040  69.951  0.00  0.00     0.013 C 
ATOM     48  H30 non d ame     -12.774  10.994  69.236  0.00  0.00     0.072 H 
BRANCH  47  49
ATOM     49  C21 non d ame     -12.231  10.121  71.119  0.00  0.00    -0.038 C 
ATOM     50  H31 non d ame     -12.367  10.773  71.982  0.00  0.00     0.036 H 
ATOM     51  H32 non d ame     -13.043   9.470  70.793  0.00  0.00     0.036 H 
BRANCH  49  52
ATOM     52  C22 non d ame     -11.039   9.198  71.453  0.00  0.00     0.018 C 
ATOM     53  H33 non d ame     -10.243   9.482  70.763  0.00  0.00     0.048 H 
ATOM     54  H34 non d ame     -10.886   9.290  72.528  0.00  0.00     0.048 H 
BRANCH  52  55
ATOM     55  C23 non d ame     -11.318   7.693  71.188  0.00  0.00     0.259 C 
ATOM     56  O7  non d ame     -12.402   7.240  71.367  0.00  0.00    -0.265 OA
BRANCH  55  57
ATOM     57  O8  non d ame     -10.259   6.855  70.740  0.00  0.00    -0.317 OA
BRANCH  57  58
ATOM     58  C29 non d ame     -10.400   5.484  71.121  0.00  0.00     0.052 C 
ATOM     59  H47 non d ame      -9.681   5.326  71.924  0.00  0.00     0.082 H 
ATOM     60  H48 non d ame     -11.464   5.337  71.305  0.00  0.00     0.082 H 
BRANCH  58  61
ATOM     61  C35 non d ame      -9.985   4.606  69.910  0.00  0.00    -0.034 A 
ATOM     62  C30 non d ame     -10.085   5.110  68.617  0.00  0.00    -0.075 A 
ATOM     63  C31 non d ame      -9.712   4.321  67.530  0.00  0.00    -0.082 A 
ATOM     64  H49 non d ame     -10.453   6.123  68.456  0.00  0.00     0.084 H 
ATOM     65  C32 non d ame      -9.242   3.022  67.739  0.00  0.00    -0.083 A 
ATOM     66  H50 non d ame      -9.789   4.720  66.518  0.00  0.00     0.083 H 
ATOM     67  C33 non d ame      -9.148   2.522  69.031  0.00  0.00    -0.082 A 
ATOM     68  H51 non d ame      -8.948   2.398  66.894  0.00  0.00     0.083 H 
ATOM     69  C34 non d ame      -9.517   3.307  70.120  0.00  0.00    -0.075 A 
ATOM     70  H52 non d ame      -8.783   1.507  69.190  0.00  0.00     0.083 H 
ATOM     71  H53 non d ame      -9.439   2.908  71.132  0.00  0.00     0.084 H 
ENDBRANCH  58  61
ENDBRANCH  57  58
ENDBRANCH  55  57
ENDBRANCH  52  55
ENDBRANCH  49  52
ENDBRANCH  47  49
BRANCH  47  72
ATOM     72  C24 non d ame     -10.642  10.631  69.281  0.00  0.00    -0.039 C 
ATOM     73  H35 non d ame     -10.047  11.543  69.226  0.00  0.00     0.036 H 
ATOM     74  H36 non d ame     -10.278   9.777  69.853  0.00  0.00     0.036 H 
BRANCH  72  75
ATOM     75  C25 non d ame     -10.877  10.128  67.778  0.00  0.00    -0.001 C 
ATOM     76  C26 non d ame     -10.434   8.551  67.640  0.00  0.00    -0.035 C 
ATOM     77  C27 non d ame      -9.589   8.425  66.589  0.00  0.00     0.085 C 
ATOM     78  H38 non d ame      -9.824   8.258  68.494  0.00  0.00     0.036 H 
ATOM     79  H39 non d ame     -11.293   7.945  67.351  0.00  0.00     0.036 H 
ATOM     80  N5  non d ame      -9.158   9.818  66.199  0.00  0.00    -0.049 N 
ATOM     81  H40 non d ame      -8.726   7.880  66.972  0.00  0.00     0.075 H 
ATOM     82  H41 non d ame     -10.188   8.001  65.784  0.00  0.00     0.075 H 
ATOM     83  C28 non d ame     -10.183  10.823  66.939  0.00  0.00     0.193 C 
ATOM     84  H42 non d ame      -8.237   9.953  66.591  0.00  0.00     0.280 HD
ATOM     85  H43 non d ame      -9.299   9.893  65.202  0.00  0.00     0.280 HD
ATOM     86  H44 non d ame     -10.980  11.312  66.380  0.00  0.00     0.129 H 
ATOM     87  H37 non d ame     -11.862  10.402  67.400  0.00  0.00     0.046 H 
BRANCH  83  88
ATOM     88  O6  non d ame      -9.463  11.878  67.579  0.00  0.00    -0.369 OA
ATOM     89  H45 non d ame     -10.063  12.388  68.128  0.00  0.00     0.212 HD
ENDBRANCH  83  88
ENDBRANCH  72  75
ENDBRANCH  47  72
ENDBRANCH  45  47
ENDBRANCH   1  43
BRANCH   1  90
ATOM     90  C16 non d ame     -13.203  15.474  70.553  0.00  0.00    -0.035 C 
ATOM     91  H21 non d ame     -13.365  16.483  70.171  0.00  0.00     0.037 H 
ATOM     92  H22 non d ame     -13.904  14.678  70.302  0.00  0.00     0.037 H 
BRANCH  90  93
ATOM     93  C17 non d ame     -13.201  15.587  72.111  0.00  0.00    -0.059 C 
ATOM     94  H23 non d ame     -14.022  16.244  72.396  0.00  0.00     0.038 H 
BRANCH  93  95
ATOM     95  C18 non d ame     -13.434  14.205  72.802  0.00  0.00    -0.073 C 
ATOM     96  H24 non d ame     -13.532  14.350  73.878  0.00  0.00     0.028 H 
ATOM     97  H25 non d ame     -14.346  13.753  72.411  0.00  0.00     0.028 H 
ATOM     98  H26 non d ame     -12.587  13.550  72.598  0.00  0.00     0.028 H 
ENDBRANCH  93  95
BRANCH  93  99
ATOM     99  C19 non d ame     -11.907  16.234  72.610  0.00  0.00    -0.073 C 
ATOM    100  H27 non d ame     -12.142  17.163  73.131  0.00  0.00     0.028 H 
ATOM    101  H28 non d ame     -11.400  15.552  73.294  0.00  0.00     0.028 H 
ATOM    102  H29 non d ame     -11.256  16.448  71.763  0.00  0.00     0.028 H 
ENDBRANCH  93  99
ENDBRANCH  90  93
ENDBRANCH   1  90
TORSDOF 26
ENDMDL
MODEL 7
REMARK VINA RESULT:      -7.1      3.060     10.016
REMARK  26 active torsions:
REMARK  status: ('A' for Active; 'I' for Inactive)
REMARK    1  A    between atoms: C2_2  and  C3_3 
REMARK    2  A    between atoms: C4_6  and  C5_7 
REMARK       I    between atoms: C5_7  and  N2_9 
REMARK    3  A    between atoms: N2_9  and  C6_10 
REMARK    4  A    between atoms: C6_10  and  C7_11 
REMARK    5  A    between atoms: C6_10  and  C8_13 
REMARK       I    between atoms: C7_11  and  N3_14 
REMARK    6  A    between atoms: N3_14  and  C9_15 
REMARK    7  A    between atoms: C9_15  and  C10_16 
REMARK    8  A    between atoms: C9_15  and  C11_18 
REMARK       I    between atoms: C10_16  and  N4_21 
REMARK    9  A    between atoms: C11_18  and  C12_19 
REMARK   10  A    between atoms: C11_18  and  C13_20 
REMARK   11  A    between atoms: N4_21  and  C14_22 
REMARK   12  A    between atoms: C14_22  and  C15_23 
REMARK   13  A    between atoms: C14_22  and  C16_25 
REMARK       I    between atoms: C15_23  and  N6_40 
REMARK   14  A    between atoms: C16_25  and  C17_26 
REMARK   15  A    between atoms: C17_26  and  C18_27 
REMARK   16  A    between atoms: C17_26  and  C19_28 
REMARK   17  A    between atoms: C20_29  and  C21_30 
REMARK   18  A    between atoms: C20_29  and  C24_33 
REMARK   19  A    between atoms: C20_29  and  N6_40 
REMARK   20  A    between atoms: C21_30  and  C22_31 
REMARK   21  A    between atoms: C22_31  and  C23_32 
REMARK   22  A    between atoms: C23_32  and  O8_43 
REMARK   23  A    between atoms: C24_33  and  C25_34 
REMARK   24  A    between atoms: C28_38  and  O6_39 
REMARK   25  A    between atoms: C29_42  and  O8_43 
REMARK   26  A    between atoms: C29_42  and  C35_49 
ROOT
ATOM      1  C14 non d ame      -7.081  13.716  67.817  0.00  0.00     0.089 C 
ATOM      2  H20 non d ame      -6.287  13.574  67.083  0.00  0.00     0.087 H 
ENDROOT
BRANCH   1   3
ATOM      3  N4  non d ame      -7.258  15.149  67.998  0.00  0.00    -0.346 N 
ATOM      4  C10 non d ame      -6.157  16.107  67.619  0.00  0.00     0.241 C 
ATOM      5  O4  non d ame      -5.135  15.700  67.172  0.00  0.00    -0.271 OA
ATOM      6  H19 non d ame      -8.134  15.475  68.382  0.00  0.00     0.163 HD
BRANCH   4   7
ATOM      7  C9  non d ame      -6.360  17.587  67.808  0.00  0.00     0.092 C 
ATOM      8  H11 non d ame      -6.119  18.104  66.879  0.00  0.00     0.088 H 
BRANCH   7   9
ATOM      9  N3  non d ame      -7.771  17.854  68.100  0.00  0.00    -0.346 N 
ATOM     10  C7  non d ame      -8.750  17.792  67.042  0.00  0.00     0.240 C 
ATOM     11  O3  non d ame      -8.419  17.530  65.951  0.00  0.00    -0.271 OA
ATOM     12  H10 non d ame      -8.072  18.084  69.037  0.00  0.00     0.163 HD
BRANCH  10  13
ATOM     13  C6  non d ame     -10.250  18.080  67.359  0.00  0.00     0.086 C 
ATOM     14  H6  non d ame     -10.927  17.658  66.616  0.00  0.00     0.086 H 
BRANCH  13  15
ATOM     15  N2  non d ame     -10.591  17.463  68.630  0.00  0.00    -0.343 N 
ATOM     16  C5  non d ame     -11.302  16.183  68.642  0.00  0.00     0.273 C 
ATOM     17  O2  non d ame     -11.598  15.659  67.625  0.00  0.00    -0.266 OA
ATOM     18  H5  non d ame     -10.337  17.919  69.495  0.00  0.00     0.163 HD
BRANCH  16  19
ATOM     19  C4  non d ame     -11.668  15.518  69.979  0.00  0.00     0.154 A 
ATOM     20  C1  non d ame     -11.724  16.140  71.267  0.00  0.00    -0.017 A 
ATOM     21  C2  non d ame     -12.105  15.107  72.152  0.00  0.00     0.077 A 
ATOM     22  H1  non d ame     -11.520  17.180  71.520  0.00  0.00     0.091 H 
ATOM     23  O1  non d ame     -12.250  14.024  71.445  0.00  0.00    -0.218 OA
ATOM     24  N1  non d ame     -11.999  14.239  70.174  0.00  0.00    -0.123 NA
BRANCH  21  25
ATOM     25  C3  non d ame     -12.310  15.238  73.655  0.00  0.00    -0.029 C 
ATOM     26  H2  non d ame     -12.043  14.300  74.142  0.00  0.00     0.036 H 
ATOM     27  H3  non d ame     -11.679  16.040  74.039  0.00  0.00     0.036 H 
ATOM     28  H4  non d ame     -13.356  15.469  73.861  0.00  0.00     0.036 H 
ENDBRANCH  21  25
ENDBRANCH  16  19
ENDBRANCH  13  15
BRANCH  13  29
ATOM     29  C8  non d ame     -10.475  19.569  67.431  0.00  0.00    -0.049 C 
ATOM     30  H7  non d ame     -10.271  20.015  66.457  0.00  0.00     0.030 H 
ATOM     31  H8  non d ame     -11.509  19.768  67.713  0.00  0.00     0.030 H 
ATOM     32  H9  non d ame      -9.805  20.001  68.175  0.00  0.00     0.030 H 
ENDBRANCH  13  29
ENDBRANCH  10  13
ENDBRANCH   7   9
BRANCH   7  33
ATOM     33  C11 non d ame      -5.484  18.083  68.996  0.00  0.00    -0.033 C 
ATOM     34  H12 non d ame      -4.454  18.138  68.645  0.00  0.00     0.042 H 
BRANCH  33  35
ATOM     35  C12 non d ame      -5.901  19.517  69.450  0.00  0.00    -0.071 C 
ATOM     36  H13 non d ame      -5.673  20.230  68.657  0.00  0.00     0.028 H 
ATOM     37  H14 non d ame      -6.971  19.535  69.658  0.00  0.00     0.028 H 
ATOM     38  H15 non d ame      -5.351  19.787  70.351  0.00  0.00     0.028 H 
ENDBRANCH  33  35
BRANCH  33  39
ATOM     39  C13 non d ame      -5.536  17.074  70.188  0.00  0.00    -0.071 C 
ATOM     40  H16 non d ame      -4.524  16.874  70.539  0.00  0.00     0.028 H 
ATOM     41  H17 non d ame      -6.124  17.501  71.001  0.00  0.00     0.028 H 
ATOM     42  H18 non d ame      -5.997  16.144  69.856  0.00  0.00     0.028 H 
ENDBRANCH  33  39
ENDBRANCH   7  33
ENDBRANCH   4   7
ENDBRANCH   1   3
BRANCH   1  43
ATOM     43  C15 non d ame      -8.432  13.106  67.347  0.00  0.00     0.240 C 
ATOM     44  O5  non d ame      -9.269  13.810  66.881  0.00  0.00    -0.271 OA
ATOM     45  N6  non d ame      -8.680  11.641  67.468  0.00  0.00    -0.355 N 
ATOM     46  H46 non d ame      -7.975  11.032  67.858  0.00  0.00     0.162 HD
BRANCH  45  47
ATOM     47  C20 non d ame      -9.969  11.075  67.015  0.00  0.00     0.013 C 
ATOM     48  H30 non d ame     -10.721  11.861  67.080  0.00  0.00     0.072 H 
BRANCH  47  49
ATOM     49  C21 non d ame     -10.351   9.920  67.912  0.00  0.00    -0.038 C 
ATOM     50  H31 non d ame      -9.542   9.829  68.637  0.00  0.00     0.036 H 
ATOM     51  H32 non d ame     -11.365  10.133  68.251  0.00  0.00     0.036 H 
BRANCH  49  52
ATOM     52  C22 non d ame     -10.417   8.573  67.160  0.00  0.00     0.018 C 
ATOM     53  H33 non d ame     -11.362   8.583  66.617  0.00  0.00     0.048 H 
ATOM     54  H34 non d ame      -9.476   8.494  66.614  0.00  0.00     0.048 H 
BRANCH  52  55
ATOM     55  C23 non d ame     -10.473   7.334  68.096  0.00  0.00     0.259 C 
ATOM     56  O7  non d ame     -11.039   6.346  67.756  0.00  0.00    -0.265 OA
BRANCH  55  57
ATOM     57  O8  non d ame      -9.852   7.398  69.374  0.00  0.00    -0.317 OA
BRANCH  57  58
ATOM     58  C29 non d ame     -10.534   6.660  70.391  0.00  0.00     0.052 C 
ATOM     59  H47 non d ame     -11.000   5.816  69.881  0.00  0.00     0.082 H 
ATOM     60  H48 non d ame      -9.797   6.484  71.174  0.00  0.00     0.082 H 
BRANCH  58  61
ATOM     61  C35 non d ame     -11.656   7.564  70.969  0.00  0.00    -0.034 A 
ATOM     62  C30 non d ame     -12.929   7.045  71.182  0.00  0.00    -0.075 A 
ATOM     63  C31 non d ame     -13.936   7.857  71.700  0.00  0.00    -0.082 A 
ATOM     64  H49 non d ame     -13.137   6.002  70.944  0.00  0.00     0.084 H 
ATOM     65  C32 non d ame     -13.668   9.195  72.003  0.00  0.00    -0.083 A 
ATOM     66  H50 non d ame     -14.932   7.447  71.869  0.00  0.00     0.083 H 
ATOM     67  C33 non d ame     -12.397   9.709  71.785  0.00  0.00    -0.082 A 
ATOM     68  H51 non d ame     -14.449   9.837  72.409  0.00  0.00     0.083 H 
ATOM     69  C34 non d ame     -11.386   8.901  71.269  0.00  0.00    -0.075 A 
ATOM     70  H52 non d ame     -12.191  10.754  72.020  0.00  0.00     0.083 H 
ATOM     71  H53 non d ame     -10.390   9.312  71.102  0.00  0.00     0.084 H 
ENDBRANCH  58  61
ENDBRANCH  57  58
ENDBRANCH  55  57
ENDBRANCH  52  55
ENDBRANCH  49  52
ENDBRANCH  47  49
BRANCH  47  72
ATOM     72  C24 non d ame      -9.839  10.582  65.576  0.00  0.00    -0.039 C 
ATOM     73  H35 non d ame      -8.773  10.414  65.422  0.00  0.00     0.036 H 
ATOM     74  H36 non d ame     -10.540   9.751  65.489  0.00  0.00     0.036 H 
BRANCH  72  75
ATOM     75  C25 non d ame     -10.299  11.699  64.523  0.00  0.00    -0.001 C 
ATOM     76  C26 non d ame     -11.744  12.338  64.979  0.00  0.00    -0.035 C 
ATOM     77  C27 non d ame     -12.594  12.289  63.925  0.00  0.00     0.085 C 
ATOM     78  H38 non d ame     -12.219  11.695  65.720  0.00  0.00     0.036 H 
ATOM     79  H39 non d ame     -11.637  13.405  65.171  0.00  0.00     0.036 H 
ATOM     80  N5  non d ame     -11.969  11.381  62.895  0.00  0.00    -0.049 N 
ATOM     81  H40 non d ame     -13.503  11.822  64.306  0.00  0.00     0.075 H 
ATOM     82  H41 non d ame     -12.627  13.304  63.531  0.00  0.00     0.075 H 
ATOM     83  C28 non d ame     -10.427  11.200  63.339  0.00  0.00     0.193 C 
ATOM     84  H42 non d ame     -12.434  10.488  62.979  0.00  0.00     0.280 HD
ATOM     85  H43 non d ame     -11.994  11.882  62.018  0.00  0.00     0.280 HD
ATOM     86  H44 non d ame      -9.634  11.732  62.813  0.00  0.00     0.129 H 
ATOM     87  H37 non d ame      -9.498  12.401  64.290  0.00  0.00     0.046 H 
BRANCH  83  88
ATOM     88  O6  non d ame     -10.059   9.821  63.292  0.00  0.00    -0.369 OA
ATOM     89  H45 non d ame      -9.353   9.657  63.921  0.00  0.00     0.212 HD
ENDBRANCH  83  88
ENDBRANCH  72  75
ENDBRANCH  47  72
ENDBRANCH  45  47
ENDBRANCH   1  43
BRANCH   1  90
ATOM     90  C16 non d ame      -6.674  13.095  69.144  0.00  0.00    -0.035 C 
ATOM     91  H21 non d ame      -6.538  13.935  69.826  0.00  0.00     0.037 H 
ATOM     92  H22 non d ame      -7.432  12.340  69.354  0.00  0.00     0.037 H 
BRANCH  90  93
ATOM     93  C17 non d ame      -5.306  12.344  69.090  0.00  0.00    -0.059 C 
ATOM     94  H23 non d ame      -4.571  12.957  69.611  0.00  0.00     0.038 H 
BRANCH  93  95
ATOM     95  C18 non d ame      -5.365  10.958  69.810  0.00  0.00    -0.073 C 
ATOM     96  H24 non d ame      -6.357  10.525  69.681  0.00  0.00     0.028 H 
ATOM     97  H25 non d ame      -4.618  10.292  69.377  0.00  0.00     0.028 H 
ATOM     98  H26 non d ame      -5.161  11.092  70.872  0.00  0.00     0.028 H 
ENDBRANCH  93  95
BRANCH  93  99
ATOM     99  C19 non d ame      -4.825  12.186  67.645  0.00  0.00    -0.073 C 
ATOM    100  H27 non d ame      -5.584  12.574  66.965  0.00  0.00     0.028 H 
ATOM    101  H28 non d ame      -3.897  12.743  67.509  0.00  0.00     0.028 H 
ATOM    102  H29 non d ame      -4.650  11.132  67.433  0.00  0.00     0.028 H 
ENDBRANCH  93  99
ENDBRANCH  90  93
ENDBRANCH   1  90
TORSDOF 26
ENDMDL
MODEL 8
REMARK VINA RESULT:      -7.0      2.786      9.250
REMARK  26 active torsions:
REMARK  status: ('A' for Active; 'I' for Inactive)
REMARK    1  A    between atoms: C2_2  and  C3_3 
REMARK    2  A    between atoms: C4_6  and  C5_7 
REMARK       I    between atoms: C5_7  and  N2_9 
REMARK    3  A    between atoms: N2_9  and  C6_10 
REMARK    4  A    between atoms: C6_10  and  C7_11 
REMARK    5  A    between atoms: C6_10  and  C8_13 
REMARK       I    between atoms: C7_11  and  N3_14 
REMARK    6  A    between atoms: N3_14  and  C9_15 
REMARK    7  A    between atoms: C9_15  and  C10_16 
REMARK    8  A    between atoms: C9_15  and  C11_18 
REMARK       I    between atoms: C10_16  and  N4_21 
REMARK    9  A    between atoms: C11_18  and  C12_19 
REMARK   10  A    between atoms: C11_18  and  C13_20 
REMARK   11  A    between atoms: N4_21  and  C14_22 
REMARK   12  A    between atoms: C14_22  and  C15_23 
REMARK   13  A    between atoms: C14_22  and  C16_25 
REMARK       I    between atoms: C15_23  and  N6_40 
REMARK   14  A    between atoms: C16_25  and  C17_26 
REMARK   15  A    between atoms: C17_26  and  C18_27 
REMARK   16  A    between atoms: C17_26  and  C19_28 
REMARK   17  A    between atoms: C20_29  and  C21_30 
REMARK   18  A    between atoms: C20_29  and  C24_33 
REMARK   19  A    between atoms: C20_29  and  N6_40 
REMARK   20  A    between atoms: C21_30  and  C22_31 
REMARK   21  A    between atoms: C22_31  and  C23_32 
REMARK   22  A    between atoms: C23_32  and  O8_43 
REMARK   23  A    between atoms: C24_33  and  C25_34 
REMARK   24  A    between atoms: C28_38  and  O6_39 
REMARK   25  A    between atoms: C29_42  and  O8_43 
REMARK   26  A    between atoms: C29_42  and  C35_49 
ROOT
ATOM      1  C14 non d ame      -9.139   6.587  67.703  0.00  0.00     0.089 C 
ATOM      2  H20 non d ame      -9.222   5.799  66.954  0.00  0.00     0.087 H 
ENDROOT
BRANCH   1   3
ATOM      3  N4  non d ame      -8.939   7.844  66.997  0.00  0.00    -0.346 N 
ATOM      4  C10 non d ame      -8.544   7.846  65.542  0.00  0.00     0.241 C 
ATOM      5  O4  non d ame      -8.389   6.823  64.961  0.00  0.00    -0.271 OA
ATOM      6  H19 non d ame      -9.074   8.704  67.511  0.00  0.00     0.163 HD
BRANCH   4   7
ATOM      7  C9  non d ame      -8.347   9.157  64.826  0.00  0.00     0.092 C 
ATOM      8  H11 non d ame      -8.350   8.981  63.750  0.00  0.00     0.088 H 
BRANCH   7   9
ATOM      9  N3  non d ame      -9.471  10.050  65.123  0.00  0.00    -0.346 N 
ATOM     10  C7  non d ame     -10.091  10.804  64.061  0.00  0.00     0.240 C 
ATOM     11  O3  non d ame      -9.697  10.706  62.964  0.00  0.00    -0.271 OA
ATOM     12  H10 non d ame      -9.820  10.146  66.065  0.00  0.00     0.163 HD
BRANCH  10  13
ATOM     13  C6  non d ame     -11.285  11.756  64.384  0.00  0.00     0.086 C 
ATOM     14  H6  non d ame     -11.809  11.480  65.299  0.00  0.00     0.086 H 
BRANCH  13  15
ATOM     15  N2  non d ame     -10.774  13.101  64.587  0.00  0.00    -0.343 N 
ATOM     16  C5  non d ame     -11.643  14.122  65.177  0.00  0.00     0.273 C 
ATOM     17  O2  non d ame     -12.753  13.851  65.481  0.00  0.00    -0.266 OA
ATOM     18  H5  non d ame      -9.825  13.325  64.322  0.00  0.00     0.163 HD
BRANCH  16  19
ATOM     19  C4  non d ame     -11.116  15.548  65.399  0.00  0.00     0.154 A 
ATOM     20  C1  non d ame     -10.398  16.037  66.537  0.00  0.00    -0.017 A 
ATOM     21  C2  non d ame     -10.146  17.397  66.250  0.00  0.00     0.077 A 
ATOM     22  H1  non d ame     -10.105  15.489  67.432  0.00  0.00     0.091 H 
ATOM     23  O1  non d ame     -10.661  17.649  65.082  0.00  0.00    -0.218 OA
ATOM     24  N1  non d ame     -11.233  16.586  64.566  0.00  0.00    -0.123 NA
BRANCH  21  25
ATOM     25  C3  non d ame      -9.407  18.385  67.143  0.00  0.00    -0.029 C 
ATOM     26  H2  non d ame      -8.890  19.119  66.525  0.00  0.00     0.036 H 
ATOM     27  H3  non d ame     -10.121  18.894  67.791  0.00  0.00     0.036 H 
ATOM     28  H4  non d ame      -8.681  17.849  67.755  0.00  0.00     0.036 H 
ENDBRANCH  21  25
ENDBRANCH  16  19
ENDBRANCH  13  15
BRANCH  13  29
ATOM     29  C8  non d ame     -12.265  11.743  63.238  0.00  0.00    -0.049 C 
ATOM     30  H7  non d ame     -12.941  10.895  63.347  0.00  0.00     0.030 H 
ATOM     31  H8  non d ame     -12.840  12.669  63.242  0.00  0.00     0.030 H 
ATOM     32  H9  non d ame     -11.722  11.656  62.298  0.00  0.00     0.030 H 
ENDBRANCH  13  29
ENDBRANCH  10  13
ENDBRANCH   7   9
BRANCH   7  33
ATOM     33  C11 non d ame      -7.022   9.817  65.308  0.00  0.00    -0.033 C 
ATOM     34  H12 non d ame      -6.437   9.049  65.814  0.00  0.00     0.042 H 
BRANCH  33  35
ATOM     35  C12 non d ame      -6.174  10.334  64.104  0.00  0.00    -0.071 C 
ATOM     36  H13 non d ame      -6.672  11.192  63.651  0.00  0.00     0.028 H 
ATOM     37  H14 non d ame      -5.187  10.633  64.457  0.00  0.00     0.028 H 
ATOM     38  H15 non d ame      -6.072   9.540  63.365  0.00  0.00     0.028 H 
ENDBRANCH  33  35
BRANCH  33  39
ATOM     39  C13 non d ame      -7.308  10.961  66.333  0.00  0.00    -0.071 C 
ATOM     40  H16 non d ame      -6.940  10.669  67.316  0.00  0.00     0.028 H 
ATOM     41  H17 non d ame      -6.801  11.872  66.011  0.00  0.00     0.028 H 
ATOM     42  H18 non d ame      -8.381  11.142  66.384  0.00  0.00     0.028 H 
ENDBRANCH  33  39
ENDBRANCH   7  33
ENDBRANCH   4   7
ENDBRANCH   1   3
BRANCH   1  43
ATOM     43  C15 non d ame     -10.423   6.706  68.574  0.00  0.00     0.240 C 
ATOM     44  O5  non d ame     -11.432   6.195  68.211  0.00  0.00    -0.271 OA
ATOM     45  N6  non d ame     -10.391   7.451  69.865  0.00  0.00    -0.355 N 
ATOM     46  H46 non d ame      -9.538   7.886  70.185  0.00  0.00     0.162 HD
BRANCH  45  47
ATOM     47  C20 non d ame     -11.619   7.554  70.682  0.00  0.00     0.013 C 
ATOM     48  H30 non d ame     -12.437   7.109  70.116  0.00  0.00     0.072 H 
BRANCH  47  49
ATOM     49  C21 non d ame     -11.915   9.011  70.957  0.00  0.00    -0.038 C 
ATOM     50  H31 non d ame     -12.844   9.228  70.429  0.00  0.00     0.036 H 
ATOM     51  H32 non d ame     -11.865   9.122  72.041  0.00  0.00     0.036 H 
BRANCH  49  52
ATOM     52  C22 non d ame     -10.848   9.961  70.371  0.00  0.00     0.018 C 
ATOM     53  H33 non d ame     -10.808  10.814  71.048  0.00  0.00     0.048 H 
ATOM     54  H34 non d ame      -9.960   9.347  70.215  0.00  0.00     0.048 H 
BRANCH  52  55
ATOM     55  C23 non d ame     -11.221  10.537  68.977  0.00  0.00     0.259 C 
ATOM     56  O7  non d ame     -10.658  10.162  67.999  0.00  0.00    -0.265 OA
BRANCH  55  57
ATOM     57  O8  non d ame     -12.235  11.530  68.882  0.00  0.00    -0.317 OA
BRANCH  57  58
ATOM     58  C29 non d ame     -11.735  12.858  68.699  0.00  0.00     0.052 C 
ATOM     59  H47 non d ame     -10.658  12.751  68.564  0.00  0.00     0.082 H 
ATOM     60  H48 non d ame     -12.342  13.296  67.908  0.00  0.00     0.082 H 
BRANCH  58  61
ATOM     61  C35 non d ame     -11.990  13.650  70.009  0.00  0.00    -0.034 A 
ATOM     62  C30 non d ame     -12.790  13.105  71.008  0.00  0.00    -0.075 A 
ATOM     63  C31 non d ame     -13.020  13.817  72.185  0.00  0.00    -0.082 A 
ATOM     64  H49 non d ame     -13.238  12.121  70.869  0.00  0.00     0.084 H 
ATOM     65  C32 non d ame     -12.447  15.079  72.360  0.00  0.00    -0.083 A 
ATOM     66  H50 non d ame     -13.646  13.386  72.967  0.00  0.00     0.083 H 
ATOM     67  C33 non d ame     -11.651  15.620  71.359  0.00  0.00    -0.082 A 
ATOM     68  H51 non d ame     -12.620  15.642  73.277  0.00  0.00     0.083 H 
ATOM     69  C34 non d ame     -11.417  14.912  70.182  0.00  0.00    -0.075 A 
ATOM     70  H52 non d ame     -11.207  16.606  71.498  0.00  0.00     0.083 H 
ATOM     71  H53 non d ame     -10.790  15.343  69.401  0.00  0.00     0.084 H 
ENDBRANCH  58  61
ENDBRANCH  57  58
ENDBRANCH  55  57
ENDBRANCH  52  55
ENDBRANCH  49  52
ENDBRANCH  47  49
BRANCH  47  72
ATOM     72  C24 non d ame     -11.424   6.815  72.004  0.00  0.00    -0.039 C 
ATOM     73  H35 non d ame     -11.636   7.549  72.781  0.00  0.00     0.036 H 
ATOM     74  H36 non d ame     -12.032   5.914  71.925  0.00  0.00     0.036 H 
BRANCH  72  75
ATOM     75  C25 non d ame      -9.905   6.343  72.200  0.00  0.00    -0.001 C 
ATOM     76  C26 non d ame      -9.783   4.724  71.939  0.00  0.00    -0.035 C 
ATOM     77  C27 non d ame      -9.142   4.160  72.991  0.00  0.00     0.085 C 
ATOM     78  H38 non d ame     -10.771   4.266  71.967  0.00  0.00     0.036 H 
ATOM     79  H39 non d ame      -9.115   4.530  71.100  0.00  0.00     0.036 H 
ATOM     80  N5  non d ame      -9.108   5.192  74.092  0.00  0.00    -0.049 N 
ATOM     81  H40 non d ame      -9.774   3.327  73.304  0.00  0.00     0.075 H 
ATOM     82  H41 non d ame      -8.126   3.974  72.647  0.00  0.00     0.075 H 
ATOM     83  C28 non d ame      -9.488   6.598  73.396  0.00  0.00     0.193 C 
ATOM     84  H42 non d ame      -9.842   4.945  74.740  0.00  0.00     0.280 HD
ATOM     85  H43 non d ame      -8.150   5.240  74.410  0.00  0.00     0.280 HD
ATOM     86  H44 non d ame      -8.716   7.337  73.183  0.00  0.00     0.129 H 
ATOM     87  H37 non d ame      -9.202   6.986  71.670  0.00  0.00     0.046 H 
BRANCH  83  88
ATOM     88  O6  non d ame     -10.469   7.284  74.174  0.00  0.00    -0.369 OA
ATOM     89  H45 non d ame     -11.339   7.136  73.796  0.00  0.00     0.212 HD
ENDBRANCH  83  88
ENDBRANCH  72  75
ENDBRANCH  47  72
ENDBRANCH  45  47
ENDBRANCH   1  43
BRANCH   1  90
ATOM     90  C16 non d ame      -7.938   6.324  68.597  0.00  0.00    -0.035 C 
ATOM     91  H21 non d ame      -8.353   6.094  69.578  0.00  0.00     0.037 H 
ATOM     92  H22 non d ame      -7.343   5.578  68.068  0.00  0.00     0.037 H 
BRANCH  90  93
ATOM     93  C17 non d ame      -7.015   7.569  68.789  0.00  0.00    -0.059 C 
ATOM     94  H23 non d ame      -7.460   8.399  68.240  0.00  0.00     0.038 H 
BRANCH  93  95
ATOM     95  C18 non d ame      -6.902   7.994  70.288  0.00  0.00    -0.073 C 
ATOM     96  H24 non d ame      -6.383   7.216  70.848  0.00  0.00     0.028 H 
ATOM     97  H25 non d ame      -6.344   8.927  70.360  0.00  0.00     0.028 H 
ATOM     98  H26 non d ame      -7.901   8.135  70.701  0.00  0.00     0.028 H 
ENDBRANCH  93  95
BRANCH  93  99
ATOM     99  C19 non d ame      -5.629   7.319  68.188  0.00  0.00    -0.073 C 
ATOM    100  H27 non d ame      -5.124   8.273  68.029  0.00  0.00     0.028 H 
ATOM    101  H28 non d ame      -5.041   6.707  68.873  0.00  0.00     0.028 H 
ATOM    102  H29 non d ame      -5.733   6.800  67.236  0.00  0.00     0.028 H 
ENDBRANCH  93  99
ENDBRANCH  90  93
ENDBRANCH   1  90
TORSDOF 26
ENDMDL
MODEL 9
REMARK VINA RESULT:      -7.0      2.401      5.529
REMARK  26 active torsions:
REMARK  status: ('A' for Active; 'I' for Inactive)
REMARK    1  A    between atoms: C2_2  and  C3_3 
REMARK    2  A    between atoms: C4_6  and  C5_7 
REMARK       I    between atoms: C5_7  and  N2_9 
REMARK    3  A    between atoms: N2_9  and  C6_10 
REMARK    4  A    between atoms: C6_10  and  C7_11 
REMARK    5  A    between atoms: C6_10  and  C8_13 
REMARK       I    between atoms: C7_11  and  N3_14 
REMARK    6  A    between atoms: N3_14  and  C9_15 
REMARK    7  A    between atoms: C9_15  and  C10_16 
REMARK    8  A    between atoms: C9_15  and  C11_18 
REMARK       I    between atoms: C10_16  and  N4_21 
REMARK    9  A    between atoms: C11_18  and  C12_19 
REMARK   10  A    between atoms: C11_18  and  C13_20 
REMARK   11  A    between atoms: N4_21  and  C14_22 
REMARK   12  A    between atoms: C14_22  and  C15_23 
REMARK   13  A    between atoms: C14_22  and  C16_25 
REMARK       I    between atoms: C15_23  and  N6_40 
REMARK   14  A    between atoms: C16_25  and  C17_26 
REMARK   15  A    between atoms: C17_26  and  C18_27 
REMARK   16  A    between atoms: C17_26  and  C19_28 
REMARK   17  A    between atoms: C20_29  and  C21_30 
REMARK   18  A    between atoms: C20_29  and  C24_33 
REMARK   19  A    between atoms: C20_29  and  N6_40 
REMARK   20  A    between atoms: C21_30  and  C22_31 
REMARK   21  A    between atoms: C22_31  and  C23_32 
REMARK   22  A    between atoms: C23_32  and  O8_43 
REMARK   23  A    between atoms: C24_33  and  C25_34 
REMARK   24  A    between atoms: C28_38  and  O6_39 
REMARK   25  A    between atoms: C29_42  and  O8_43 
REMARK   26  A    between atoms: C29_42  and  C35_49 
ROOT
ATOM      1  C14 non d ame     -11.178   9.882  69.473  0.00  0.00     0.089 C 
ATOM      2  H20 non d ame     -11.806   9.089  69.068  0.00  0.00     0.087 H 
ENDROOT
BRANCH   1   3
ATOM      3  N4  non d ame      -9.818   9.643  69.012  0.00  0.00    -0.346 N 
ATOM      4  C10 non d ame      -9.342   8.238  68.740  0.00  0.00     0.241 C 
ATOM      5  O4  non d ame     -10.070   7.316  68.903  0.00  0.00    -0.271 OA
ATOM      6  H19 non d ame      -9.214  10.442  68.881  0.00  0.00     0.163 HD
BRANCH   4   7
ATOM      7  C9  non d ame      -7.934   8.010  68.257  0.00  0.00     0.092 C 
ATOM      8  H11 non d ame      -7.872   7.030  67.783  0.00  0.00     0.088 H 
BRANCH   7   9
ATOM      9  N3  non d ame      -7.599   9.007  67.236  0.00  0.00    -0.346 N 
ATOM     10  C7  non d ame      -7.442   8.604  65.860  0.00  0.00     0.240 C 
ATOM     11  O3  non d ame      -7.580   7.482  65.557  0.00  0.00    -0.271 OA
ATOM     12  H10 non d ame      -7.475   9.979  67.482  0.00  0.00     0.163 HD
BRANCH  10  13
ATOM     13  C6  non d ame      -7.083   9.670  64.778  0.00  0.00     0.086 C 
ATOM     14  H6  non d ame      -6.998   9.244  63.779  0.00  0.00     0.086 H 
BRANCH  13  15
ATOM     15  N2  non d ame      -8.147  10.659  64.719  0.00  0.00    -0.343 N 
ATOM     16  C5  non d ame      -9.297  10.429  63.842  0.00  0.00     0.273 C 
ATOM     17  O2  non d ame      -9.357   9.447  63.187  0.00  0.00    -0.266 OA
ATOM     18  H5  non d ame      -8.087  11.496  65.280  0.00  0.00     0.163 HD
BRANCH  16  19
ATOM     19  C4  non d ame     -10.430  11.465  63.771  0.00  0.00     0.154 A 
ATOM     20  C1  non d ame     -10.528  12.690  64.503  0.00  0.00    -0.017 A 
ATOM     21  C2  non d ame     -11.745  13.271  64.080  0.00  0.00     0.077 A 
ATOM     22  H1  non d ame      -9.825  13.096  65.230  0.00  0.00     0.091 H 
ATOM     23  O1  non d ame     -12.274  12.465  63.206  0.00  0.00    -0.218 OA
ATOM     24  N1  non d ame     -11.526  11.405  63.009  0.00  0.00    -0.123 NA
BRANCH  21  25
ATOM     25  C3  non d ame     -12.327  14.594  64.557  0.00  0.00    -0.029 C 
ATOM     26  H2  non d ame     -11.630  15.402  64.329  0.00  0.00     0.036 H 
ATOM     27  H3  non d ame     -13.275  14.778  64.052  0.00  0.00     0.036 H 
ATOM     28  H4  non d ame     -12.492  14.551  65.634  0.00  0.00     0.036 H 
ENDBRANCH  21  25
ENDBRANCH  16  19
ENDBRANCH  13  15
BRANCH  13  29
ATOM     29  C8  non d ame      -5.779  10.335  65.137  0.00  0.00    -0.049 C 
ATOM     30  H7  non d ame      -4.980   9.926  64.519  0.00  0.00     0.030 H 
ATOM     31  H8  non d ame      -5.859  11.408  64.965  0.00  0.00     0.030 H 
ATOM     32  H9  non d ame      -5.555  10.151  66.188  0.00  0.00     0.030 H 
ENDBRANCH  13  29
ENDBRANCH  10  13
ENDBRANCH   7   9
BRANCH   7  33
ATOM     33  C11 non d ame      -6.947   8.146  69.453  0.00  0.00    -0.033 C 
ATOM     34  H12 non d ame      -6.129   7.445  69.286  0.00  0.00     0.042 H 
BRANCH  33  35
ATOM     35  C12 non d ame      -6.331   9.578  69.523  0.00  0.00    -0.071 C 
ATOM     36  H13 non d ame      -6.670  10.161  68.666  0.00  0.00     0.028 H 
ATOM     37  H14 non d ame      -6.650  10.066  70.443  0.00  0.00     0.028 H 
ATOM     38  H15 non d ame      -5.244   9.506  69.506  0.00  0.00     0.028 H 
ENDBRANCH  33  35
BRANCH  33  39
ATOM     39  C13 non d ame      -7.643   7.763  70.799  0.00  0.00    -0.071 C 
ATOM     40  H16 non d ame      -8.276   6.890  70.645  0.00  0.00     0.028 H 
ATOM     41  H17 non d ame      -6.885   7.534  71.549  0.00  0.00     0.028 H 
ATOM     42  H18 non d ame      -8.253   8.599  71.142  0.00  0.00     0.028 H 
ENDBRANCH  33  39
ENDBRANCH   7  33
ENDBRANCH   4   7
ENDBRANCH   1   3
BRANCH   1  43
ATOM     43  C15 non d ame     -11.625  11.291  68.990  0.00  0.00     0.240 C 
ATOM     44  O5  non d ame     -12.357  11.392  68.059  0.00  0.00    -0.271 OA
ATOM     45  N6  non d ame     -11.146  12.516  69.693  0.00  0.00    -0.355 N 
ATOM     46  H46 non d ame     -10.528  12.443  70.488  0.00  0.00     0.162 HD
BRANCH  45  47
ATOM     47  C20 non d ame     -11.582  13.848  69.222  0.00  0.00     0.013 C 
ATOM     48  H30 non d ame     -12.623  13.770  68.909  0.00  0.00     0.072 H 
BRANCH  47  49
ATOM     49  C21 non d ame     -10.721  14.271  68.053  0.00  0.00    -0.038 C 
ATOM     50  H31 non d ame      -9.975  13.484  67.936  0.00  0.00     0.036 H 
ATOM     51  H32 non d ame     -11.414  14.490  67.241  0.00  0.00     0.036 H 
BRANCH  49  52
ATOM     52  C22 non d ame      -9.940  15.575  68.324  0.00  0.00     0.018 C 
ATOM     53  H33 non d ame     -10.175  15.852  69.352  0.00  0.00     0.048 H 
ATOM     54  H34 non d ame      -8.909  15.366  68.038  0.00  0.00     0.048 H 
BRANCH  52  55
ATOM     55  C23 non d ame     -10.395  16.772  67.443  0.00  0.00     0.259 C 
ATOM     56  O7  non d ame     -10.377  16.689  66.257  0.00  0.00    -0.265 OA
BRANCH  55  57
ATOM     57  O8  non d ame     -10.821  17.976  68.069  0.00  0.00    -0.317 OA
BRANCH  57  58
ATOM     58  C29 non d ame     -10.509  19.159  67.329  0.00  0.00     0.052 C 
ATOM     59  H47 non d ame     -10.631  18.891  66.279  0.00  0.00     0.082 H 
ATOM     60  H48 non d ame     -11.120  19.949  67.764  0.00  0.00     0.082 H 
BRANCH  58  61
ATOM     61  C35 non d ame      -9.015  19.500  67.578  0.00  0.00    -0.034 A 
ATOM     62  C30 non d ame      -8.452  19.285  68.832  0.00  0.00    -0.075 A 
ATOM     63  C31 non d ame      -7.110  19.591  69.056  0.00  0.00    -0.082 A 
ATOM     64  H49 non d ame      -9.061  18.876  69.638  0.00  0.00     0.084 H 
ATOM     65  C32 non d ame      -6.332  20.118  68.022  0.00  0.00    -0.083 A 
ATOM     66  H50 non d ame      -6.671  19.419  70.039  0.00  0.00     0.083 H 
ATOM     67  C33 non d ame      -6.900  20.334  66.773  0.00  0.00    -0.082 A 
ATOM     68  H51 non d ame      -5.283  20.360  68.188  0.00  0.00     0.083 H 
ATOM     69  C34 non d ame      -8.240  20.027  66.544  0.00  0.00    -0.075 A 
ATOM     70  H52 non d ame      -6.291  20.747  65.969  0.00  0.00     0.083 H 
ATOM     71  H53 non d ame      -8.678  20.199  65.560  0.00  0.00     0.084 H 
ENDBRANCH  58  61
ENDBRANCH  57  58
ENDBRANCH  55  57
ENDBRANCH  52  55
ENDBRANCH  49  52
ENDBRANCH  47  49
BRANCH  47  72
ATOM     72  C24 non d ame     -11.442  14.866  70.352  0.00  0.00    -0.039 C 
ATOM     73  H35 non d ame     -10.404  14.800  70.676  0.00  0.00     0.036 H 
ATOM     74  H36 non d ame     -11.828  15.803  69.948  0.00  0.00     0.036 H 
BRANCH  72  75
ATOM     75  C25 non d ame     -12.356  14.483  71.611  0.00  0.00    -0.001 C 
ATOM     76  C26 non d ame     -13.877  14.112  71.107  0.00  0.00    -0.035 C 
ATOM     77  C27 non d ame     -14.765  14.834  71.830  0.00  0.00     0.085 C 
ATOM     78  H38 non d ame     -14.030  14.466  70.088  0.00  0.00     0.036 H 
ATOM     79  H39 non d ame     -14.115  13.080  71.367  0.00  0.00     0.036 H 
ATOM     80  N5  non d ame     -13.981  15.903  72.552  0.00  0.00    -0.049 N 
ATOM     81  H40 non d ame     -15.420  15.308  71.098  0.00  0.00     0.075 H 
ATOM     82  H41 non d ame     -15.177  14.141  72.562  0.00  0.00     0.075 H 
ATOM     83  C28 non d ame     -12.431  15.462  72.449  0.00  0.00     0.193 C 
ATOM     84  H42 non d ame     -14.108  16.756  72.027  0.00  0.00     0.280 HD
ATOM     85  H43 non d ame     -14.263  15.859  73.521  0.00  0.00     0.280 HD
ATOM     86  H44 non d ame     -11.921  15.027  73.309  0.00  0.00     0.129 H 
ATOM     87  H37 non d ame     -11.866  13.771  72.275  0.00  0.00     0.046 H 
BRANCH  83  88
ATOM     88  O6  non d ame     -11.628  16.575  72.052  0.00  0.00    -0.369 OA
ATOM     89  H45 non d ame     -12.132  17.138  71.460  0.00  0.00     0.212 HD
ENDBRANCH  83  88
ENDBRANCH  72  75
ENDBRANCH  47  72
ENDBRANCH  45  47
ENDBRANCH   1  43
BRANCH   1  90
ATOM     90  C16 non d ame     -11.202   9.831  70.993  0.00  0.00    -0.035 C 
ATOM     91  H21 non d ame     -10.169   9.650  71.292  0.00  0.00     0.037 H 
ATOM     92  H22 non d ame     -11.706  10.747  71.304  0.00  0.00     0.037 H 
BRANCH  90  93
ATOM     93  C17 non d ame     -12.042   8.647  71.567  0.00  0.00    -0.059 C 
ATOM     94  H23 non d ame     -12.323   8.005  70.732  0.00  0.00     0.038 H 
BRANCH  93  95
ATOM     95  C18 non d ame     -11.226   7.781  72.579  0.00  0.00    -0.073 C 
ATOM     96  H24 non d ame     -10.263   8.255  72.768  0.00  0.00     0.028 H 
ATOM     97  H25 non d ame     -11.779   7.698  73.515  0.00  0.00     0.028 H 
ATOM     98  H26 non d ame     -11.067   6.787  72.162  0.00  0.00     0.028 H 
ENDBRANCH  93  95
BRANCH  93  99
ATOM     99  C19 non d ame     -13.337   9.155  72.206  0.00  0.00    -0.073 C 
ATOM    100  H27 non d ame     -13.662  10.064  71.697  0.00  0.00     0.028 H 
ATOM    101  H28 non d ame     -14.111   8.392  72.115  0.00  0.00     0.028 H 
ATOM    102  H29 non d ame     -13.163   9.371  73.260  0.00  0.00     0.028 H 
ENDBRANCH  93  99
ENDBRANCH  90  93
ENDBRANCH   1  90
TORSDOF 26
ENDMDL
MODEL 10
REMARK VINA RESULT:      -7.0      3.294      5.113
REMARK  26 active torsions:
REMARK  status: ('A' for Active; 'I' for Inactive)
REMARK    1  A    between atoms: C2_2  and  C3_3 
REMARK    2  A    between atoms: C4_6  and  C5_7 
REMARK       I    between atoms: C5_7  and  N2_9 
REMARK    3  A    between atoms: N2_9  and  C6_10 
REMARK    4  A    between atoms: C6_10  and  C7_11 
REMARK    5  A    between atoms: C6_10  and  C8_13 
REMARK       I    between atoms: C7_11  and  N3_14 
REMARK    6  A    between atoms: N3_14  and  C9_15 
REMARK    7  A    between atoms: C9_15  and  C10_16 
REMARK    8  A    between atoms: C9_15  and  C11_18 
REMARK       I    between atoms: C10_16  and  N4_21 
REMARK    9  A    between atoms: C11_18  and  C12_19 
REMARK   10  A    between atoms: C11_18  and  C13_20 
REMARK   11  A    between atoms: N4_21  and  C14_22 
REMARK   12  A    between atoms: C14_22  and  C15_23 
REMARK   13  A    between atoms: C14_22  and  C16_25 
REMARK       I    between atoms: C15_23  and  N6_40 
REMARK   14  A    between atoms: C16_25  and  C17_26 
REMARK   15  A    between atoms: C17_26  and  C18_27 
REMARK   16  A    between atoms: C17_26  and  C19_28 
REMARK   17  A    between atoms: C20_29  and  C21_30 
REMARK   18  A    between atoms: C20_29  and  C24_33 
REMARK   19  A    between atoms: C20_29  and  N6_40 
REMARK   20  A    between atoms: C21_30  and  C22_31 
REMARK   21  A    between atoms: C22_31  and  C23_32 
REMARK   22  A    between atoms: C23_32  and  O8_43 
REMARK   23  A    between atoms: C24_33  and  C25_34 
REMARK   24  A    between atoms: C28_38  and  O6_39 
REMARK   25  A    between atoms: C29_42  and  O8_43 
REMARK   26  A    between atoms: C29_42  and  C35_49 
ROOT
ATOM      1  C14 non d ame     -12.297  14.233  69.737  0.00  0.00     0.089 C 
ATOM      2  H20 non d ame     -13.235  13.912  69.285  0.00  0.00     0.087 H 
ENDROOT
BRANCH   1   3
ATOM      3  N4  non d ame     -11.589  13.039  70.173  0.00  0.00    -0.346 N 
ATOM      4  C10 non d ame     -11.679  11.764  69.372  0.00  0.00     0.241 C 
ATOM      5  O4  non d ame     -12.331  11.724  68.381  0.00  0.00    -0.271 OA
ATOM      6  H19 non d ame     -11.041  13.093  71.020  0.00  0.00     0.163 HD
BRANCH   4   7
ATOM      7  C9  non d ame     -10.935  10.539  69.834  0.00  0.00     0.092 C 
ATOM      8  H11 non d ame     -10.496  10.734  70.813  0.00  0.00     0.088 H 
BRANCH   7   9
ATOM      9  N3  non d ame     -11.877   9.427  69.996  0.00  0.00    -0.346 N 
ATOM     10  C7  non d ame     -12.017   8.782  71.278  0.00  0.00     0.240 C 
ATOM     11  O3  non d ame     -11.379   9.144  72.190  0.00  0.00    -0.271 OA
ATOM     12  H10 non d ame     -12.433   9.103  69.218  0.00  0.00     0.163 HD
BRANCH  10  13
ATOM     13  C6  non d ame     -13.018   7.597  71.443  0.00  0.00     0.086 C 
ATOM     14  H6  non d ame     -13.093   6.981  70.547  0.00  0.00     0.086 H 
BRANCH  13  15
ATOM     15  N2  non d ame     -12.548   6.727  72.508  0.00  0.00    -0.343 N 
ATOM     16  C5  non d ame     -11.472   5.771  72.237  0.00  0.00     0.273 C 
ATOM     17  O2  non d ame     -10.994   5.707  71.158  0.00  0.00    -0.266 OA
ATOM     18  H5  non d ame     -12.964   6.787  73.427  0.00  0.00     0.163 HD
BRANCH  16  19
ATOM     19  C4  non d ame     -10.964   4.847  73.355  0.00  0.00     0.154 A 
ATOM     20  C1  non d ame     -10.890   3.418  73.328  0.00  0.00    -0.017 A 
ATOM     21  C2  non d ame     -10.358   3.058  74.586  0.00  0.00     0.077 A 
ATOM     22  H1  non d ame     -11.179   2.745  72.520  0.00  0.00     0.091 H 
ATOM     23  O1  non d ame     -10.153   4.158  75.249  0.00  0.00    -0.218 OA
ATOM     24  N1  non d ame     -10.499   5.215  74.551  0.00  0.00    -0.123 NA
BRANCH  21  25
ATOM     25  C3  non d ame     -10.076   1.643  75.075  0.00  0.00    -0.029 C 
ATOM     26  H2  non d ame      -9.893   1.659  76.149  0.00  0.00     0.036 H 
ATOM     27  H3  non d ame     -10.936   1.008  74.862  0.00  0.00     0.036 H 
ATOM     28  H4  non d ame      -9.198   1.249  74.562  0.00  0.00     0.036 H 
ENDBRANCH  21  25
ENDBRANCH  16  19
ENDBRANCH  13  15
BRANCH  13  29
ATOM     29  C8  non d ame     -14.386   8.134  71.780  0.00  0.00    -0.049 C 
ATOM     30  H7  non d ame     -15.073   7.918  70.962  0.00  0.00     0.030 H 
ATOM     31  H8  non d ame     -14.747   7.661  72.693  0.00  0.00     0.030 H 
ATOM     32  H9  non d ame     -14.326   9.212  71.929  0.00  0.00     0.030 H 
ENDBRANCH  13  29
ENDBRANCH  10  13
ENDBRANCH   7   9
BRANCH   7  33
ATOM     33  C11 non d ame      -9.860  10.155  68.776  0.00  0.00    -0.033 C 
ATOM     34  H12 non d ame     -10.384   9.842  67.873  0.00  0.00     0.042 H 
BRANCH  33  35
ATOM     35  C12 non d ame      -8.969  11.381  68.400  0.00  0.00    -0.071 C 
ATOM     36  H13 non d ame      -8.494  11.774  69.299  0.00  0.00     0.028 H 
ATOM     37  H14 non d ame      -8.203  11.068  67.692  0.00  0.00     0.028 H 
ATOM     38  H15 non d ame      -9.589  12.154  67.948  0.00  0.00     0.028 H 
ENDBRANCH  33  35
BRANCH  33  39
ATOM     39  C13 non d ame      -8.991   8.955  69.272  0.00  0.00    -0.071 C 
ATOM     40  H16 non d ame      -8.001   9.011  68.819  0.00  0.00     0.028 H 
ATOM     41  H17 non d ame      -8.898   8.997  70.357  0.00  0.00     0.028 H 
ATOM     42  H18 non d ame      -9.469   8.018  68.985  0.00  0.00     0.028 H 
ENDBRANCH  33  39
ENDBRANCH   7  33
ENDBRANCH   4   7
ENDBRANCH   1   3
BRANCH   1  43
ATOM     43  C15 non d ame     -11.395  15.005  68.732  0.00  0.00     0.240 C 
ATOM     44  O5  non d ame     -10.909  16.042  69.050  0.00  0.00    -0.271 OA
ATOM     45  N6  non d ame     -11.129  14.446  67.376  0.00  0.00    -0.355 N 
ATOM     46  H46 non d ame     -11.531  13.563  67.097  0.00  0.00     0.162 HD
BRANCH  45  47
ATOM     47  C20 non d ame     -10.267  15.191  66.433  0.00  0.00     0.013 C 
ATOM     48  H30 non d ame      -9.281  15.289  66.885  0.00  0.00     0.072 H 
BRANCH  47  49
ATOM     49  C21 non d ame     -10.862  16.560  66.188  0.00  0.00    -0.038 C 
ATOM     50  H31 non d ame     -11.340  16.503  65.210  0.00  0.00     0.036 H 
ATOM     51  H32 non d ame     -11.456  16.785  67.074  0.00  0.00     0.036 H 
BRANCH  49  52
ATOM     52  C22 non d ame      -9.792  17.669  66.087  0.00  0.00     0.018 C 
ATOM     53  H33 non d ame      -8.904  17.269  66.579  0.00  0.00     0.048 H 
ATOM     54  H34 non d ame      -9.752  17.946  65.033  0.00  0.00     0.048 H 
BRANCH  52  55
ATOM     55  C23 non d ame     -10.160  18.967  66.858  0.00  0.00     0.259 C 
ATOM     56  O7  non d ame     -11.231  19.087  67.359  0.00  0.00    -0.265 OA
BRANCH  55  57
ATOM     57  O8  non d ame      -9.206  20.018  66.948  0.00  0.00    -0.317 OA
BRANCH  57  58
ATOM     58  C29 non d ame      -7.912  19.675  66.444  0.00  0.00     0.052 C 
ATOM     59  H47 non d ame      -8.055  18.766  65.859  0.00  0.00     0.082 H 
ATOM     60  H48 non d ame      -7.532  20.577  65.966  0.00  0.00     0.082 H 
BRANCH  58  61
ATOM     61  C35 non d ame      -7.000  19.340  67.655  0.00  0.00    -0.034 A 
ATOM     62  C30 non d ame      -6.004  18.376  67.531  0.00  0.00    -0.075 A 
ATOM     63  C31 non d ame      -5.185  18.075  68.618  0.00  0.00    -0.082 A 
ATOM     64  H49 non d ame      -5.866  17.856  66.583  0.00  0.00     0.084 H 
ATOM     65  C32 non d ame      -5.366  18.741  69.834  0.00  0.00    -0.083 A 
ATOM     66  H50 non d ame      -4.405  17.321  68.518  0.00  0.00     0.083 H 
ATOM     67  C33 non d ame      -6.362  19.700  69.953  0.00  0.00    -0.082 A 
ATOM     68  H51 non d ame      -4.729  18.513  70.688  0.00  0.00     0.083 H 
ATOM     69  C34 non d ame      -7.182  20.006  68.868  0.00  0.00    -0.075 A 
ATOM     70  H52 non d ame      -6.502  20.216  70.903  0.00  0.00     0.083 H 
ATOM     71  H53 non d ame      -7.962  20.761  68.970  0.00  0.00     0.084 H 
ENDBRANCH  58  61
ENDBRANCH  57  58
ENDBRANCH  55  57
ENDBRANCH  52  55
ENDBRANCH  49  52
ENDBRANCH  47  49
BRANCH  47  72
ATOM     72  C24 non d ame     -10.173  14.433  65.110  0.00  0.00    -0.039 C 
ATOM     73  H35 non d ame     -10.610  15.096  64.364  0.00  0.00     0.036 H 
ATOM     74  H36 non d ame      -9.130  14.129  65.024  0.00  0.00     0.036 H 
BRANCH  72  75
ATOM     75  C25 non d ame     -11.055  13.096  65.129  0.00  0.00    -0.001 C 
ATOM     76  C26 non d ame     -10.109  11.796  64.783  0.00  0.00    -0.035 C 
ATOM     77  C27 non d ame     -10.692  11.085  63.788  0.00  0.00     0.085 C 
ATOM     78  H38 non d ame      -9.168  12.125  64.343  0.00  0.00     0.036 H 
ATOM     79  H39 non d ame     -10.105  11.102  65.623  0.00  0.00     0.036 H 
ATOM     80  N5  non d ame     -11.778  11.955  63.201  0.00  0.00    -0.049 N 
ATOM     81  H40 non d ame      -9.913  10.937  63.039  0.00  0.00     0.075 H 
ATOM     82  H41 non d ame     -11.151  10.225  64.274  0.00  0.00     0.075 H 
ATOM     83  C28 non d ame     -12.008  13.152  64.260  0.00  0.00     0.193 C 
ATOM     84  H42 non d ame     -11.402  12.347  62.350  0.00  0.00     0.280 HD
ATOM     85  H43 non d ame     -12.614  11.389  63.171  0.00  0.00     0.280 HD
ATOM     86  H44 non d ame     -12.877  13.150  64.918  0.00  0.00     0.129 H 
ATOM     87  H37 non d ame     -11.684  13.029  66.017  0.00  0.00     0.046 H 
BRANCH  83  88
ATOM     88  O6  non d ame     -12.046  14.409  63.582  0.00  0.00    -0.369 OA
ATOM     89  H45 non d ame     -12.236  14.266  62.653  0.00  0.00     0.212 HD
ENDBRANCH  83  88
ENDBRANCH  72  75
ENDBRANCH  47  72
ENDBRANCH  45  47
ENDBRANCH   1  43
BRANCH   1  90
ATOM     90  C16 non d ame     -12.581  15.110  70.947  0.00  0.00    -0.035 C 
ATOM     91  H21 non d ame     -11.662  15.670  71.120  0.00  0.00     0.037 H 
ATOM     92  H22 non d ame     -13.505  15.638  70.709  0.00  0.00     0.037 H 
BRANCH  90  93
ATOM     93  C17 non d ame     -12.859  14.302  72.254  0.00  0.00    -0.059 C 
ATOM     94  H23 non d ame     -12.119  13.504  72.314  0.00  0.00     0.038 H 
BRANCH  93  95
ATOM     95  C18 non d ame     -12.711  15.186  73.535  0.00  0.00    -0.073 C 
ATOM     96  H24 non d ame     -11.968  15.963  73.356  0.00  0.00     0.028 H 
ATOM     97  H25 non d ame     -13.670  15.647  73.771  0.00  0.00     0.028 H 
ATOM     98  H26 non d ame     -12.392  14.563  74.371  0.00  0.00     0.028 H 
ENDBRANCH  93  95
BRANCH  93  99
ATOM     99  C19 non d ame     -14.238  13.640  72.206  0.00  0.00    -0.073 C 
ATOM    100  H27 non d ame     -14.758  13.814  73.148  0.00  0.00     0.028 H 
ATOM    101  H28 non d ame     -14.817  14.068  71.387  0.00  0.00     0.028 H 
ATOM    102  H29 non d ame     -14.122  12.569  72.047  0.00  0.00     0.028 H 
ENDBRANCH  93  99
ENDBRANCH  90  93
ENDBRANCH   1  90
TORSDOF 26
ENDMDL
MODEL 11
REMARK VINA RESULT:      -7.0      2.882      6.106
REMARK  26 active torsions:
REMARK  status: ('A' for Active; 'I' for Inactive)
REMARK    1  A    between atoms: C2_2  and  C3_3 
REMARK    2  A    between atoms: C4_6  and  C5_7 
REMARK       I    between atoms: C5_7  and  N2_9 
REMARK    3  A    between atoms: N2_9  and  C6_10 
REMARK    4  A    between atoms: C6_10  and  C7_11 
REMARK    5  A    between atoms: C6_10  and  C8_13 
REMARK       I    between atoms: C7_11  and  N3_14 
REMARK    6  A    between atoms: N3_14  and  C9_15 
REMARK    7  A    between atoms: C9_15  and  C10_16 
REMARK    8  A    between atoms: C9_15  and  C11_18 
REMARK       I    between atoms: C10_16  and  N4_21 
REMARK    9  A    between atoms: C11_18  and  C12_19 
REMARK   10  A    between atoms: C11_18  and  C13_20 
REMARK   11  A    between atoms: N4_21  and  C14_22 
REMARK   12  A    between atoms: C14_22  and  C15_23 
REMARK   13  A    between atoms: C14_22  and  C16_25 
REMARK       I    between atoms: C15_23  and  N6_40 
REMARK   14  A    between atoms: C16_25  and  C17_26 
REMARK   15  A    between atoms: C17_26  and  C18_27 
REMARK   16  A    between atoms: C17_26  and  C19_28 
REMARK   17  A    between atoms: C20_29  and  C21_30 
REMARK   18  A    between atoms: C20_29  and  C24_33 
REMARK   19  A    between atoms: C20_29  and  N6_40 
REMARK   20  A    between atoms: C21_30  and  C22_31 
REMARK   21  A    between atoms: C22_31  and  C23_32 
REMARK   22  A    between atoms: C23_32  and  O8_43 
REMARK   23  A    between atoms: C24_33  and  C25_34 
REMARK   24  A    between atoms: C28_38  and  O6_39 
REMARK   25  A    between atoms: C29_42  and  O8_43 
REMARK   26  A    between atoms: C29_42  and  C35_49 
ROOT
ATOM      1  C14 non d ame      -9.879  10.733  68.889  0.00  0.00     0.089 C 
ATOM      2  H20 non d ame      -9.125  11.042  69.614  0.00  0.00     0.087 H 
ENDROOT
BRANCH   1   3
ATOM      3  N4  non d ame     -10.265   9.368  69.213  0.00  0.00    -0.346 N 
ATOM      4  C10 non d ame     -10.257   8.301  68.147  0.00  0.00     0.241 C 
ATOM      5  O4  non d ame      -9.939   8.566  67.035  0.00  0.00    -0.271 OA
ATOM      6  H19 non d ame     -10.534   9.163  70.165  0.00  0.00     0.163 HD
BRANCH   4   7
ATOM      7  C9  non d ame     -10.654   6.892  68.502  0.00  0.00     0.092 C 
ATOM      8  H11 non d ame     -11.655   6.694  68.118  0.00  0.00     0.088 H 
BRANCH   7   9
ATOM      9  N3  non d ame      -9.744   5.948  67.846  0.00  0.00    -0.346 N 
ATOM     10  C7  non d ame     -10.169   5.241  66.663  0.00  0.00     0.240 C 
ATOM     11  O3  non d ame     -11.241   5.419  66.226  0.00  0.00    -0.271 OA
ATOM     12  H10 non d ame      -8.818   5.782  68.212  0.00  0.00     0.163 HD
BRANCH  10  13
ATOM     13  C6  non d ame      -9.198   4.235  65.971  0.00  0.00     0.086 C 
ATOM     14  H6  non d ame      -9.634   3.765  65.090  0.00  0.00     0.086 H 
BRANCH  13  15
ATOM     15  N2  non d ame      -8.019   4.955  65.517  0.00  0.00    -0.343 N 
ATOM     16  C5  non d ame      -7.937   5.398  64.123  0.00  0.00     0.273 C 
ATOM     17  O2  non d ame      -8.823   5.168  63.375  0.00  0.00    -0.266 OA
ATOM     18  H5  non d ame      -7.266   5.144  66.162  0.00  0.00     0.163 HD
BRANCH  16  19
ATOM     19  C4  non d ame      -6.698   6.161  63.630  0.00  0.00     0.154 A 
ATOM     20  C1  non d ame      -6.510   7.579  63.603  0.00  0.00    -0.017 A 
ATOM     21  C2  non d ame      -5.216   7.764  63.066  0.00  0.00     0.077 A 
ATOM     22  H1  non d ame      -7.205   8.355  63.924  0.00  0.00     0.091 H 
ATOM     23  O1  non d ame      -4.727   6.585  62.819  0.00  0.00    -0.218 OA
ATOM     24  N1  non d ame      -5.573   5.633  63.139  0.00  0.00    -0.123 NA
BRANCH  21  25
ATOM     25  C3  non d ame      -4.523   9.098  62.824  0.00  0.00    -0.029 C 
ATOM     26  H2  non d ame      -5.052   9.886  63.360  0.00  0.00     0.036 H 
ATOM     27  H3  non d ame      -3.495   9.044  63.180  0.00  0.00     0.036 H 
ATOM     28  H4  non d ame      -4.526   9.321  61.756  0.00  0.00     0.036 H 
ENDBRANCH  21  25
ENDBRANCH  16  19
ENDBRANCH  13  15
BRANCH  13  29
ATOM     29  C8  non d ame      -8.801   3.161  66.951  0.00  0.00    -0.049 C 
ATOM     30  H7  non d ame      -7.984   3.522  67.576  0.00  0.00     0.030 H 
ATOM     31  H8  non d ame      -9.655   2.908  67.579  0.00  0.00     0.030 H 
ATOM     32  H9  non d ame      -8.475   2.275  66.406  0.00  0.00     0.030 H 
ENDBRANCH  13  29
ENDBRANCH  10  13
ENDBRANCH   7   9
BRANCH   7  33
ATOM     33  C11 non d ame     -10.571   6.702  70.045  0.00  0.00    -0.033 C 
ATOM     34  H12 non d ame     -10.027   7.554  70.452  0.00  0.00     0.042 H 
BRANCH  33  35
ATOM     35  C12 non d ame     -11.989   6.697  70.694  0.00  0.00    -0.071 C 
ATOM     36  H13 non d ame     -12.689   7.222  70.043  0.00  0.00     0.028 H 
ATOM     37  H14 non d ame     -12.323   5.669  70.831  0.00  0.00     0.028 H 
ATOM     38  H15 non d ame     -11.947   7.198  71.661  0.00  0.00     0.028 H 
ENDBRANCH  33  35
BRANCH  33  39
ATOM     39  C13 non d ame      -9.778   5.405  70.406  0.00  0.00    -0.071 C 
ATOM     40  H16 non d ame      -8.946   5.658  71.063  0.00  0.00     0.028 H 
ATOM     41  H17 non d ame     -10.441   4.703  70.914  0.00  0.00     0.028 H 
ATOM     42  H18 non d ame      -9.394   4.948  69.494  0.00  0.00     0.028 H 
ENDBRANCH  33  39
ENDBRANCH   7  33
ENDBRANCH   4   7
ENDBRANCH   1   3
BRANCH   1  43
ATOM     43  C15 non d ame     -11.147  11.632  68.941  0.00  0.00     0.240 C 
ATOM     44  O5  non d ame     -12.201  11.186  68.622  0.00  0.00    -0.271 OA
ATOM     45  N6  non d ame     -11.049  13.048  69.397  0.00  0.00    -0.355 N 
ATOM     46  H46 non d ame     -10.160  13.436  69.676  0.00  0.00     0.162 HD
BRANCH  45  47
ATOM     47  C20 non d ame     -12.264  13.889  69.442  0.00  0.00     0.013 C 
ATOM     48  H30 non d ame     -12.987  13.472  68.741  0.00  0.00     0.072 H 
BRANCH  47  49
ATOM     49  C21 non d ame     -11.909  15.302  69.040  0.00  0.00    -0.038 C 
ATOM     50  H31 non d ame     -12.476  15.501  68.130  0.00  0.00     0.036 H 
ATOM     51  H32 non d ame     -12.073  15.911  69.929  0.00  0.00     0.036 H 
BRANCH  49  52
ATOM     52  C22 non d ame     -10.419  15.463  68.668  0.00  0.00     0.018 C 
ATOM     53  H33 non d ame      -9.915  15.757  69.589  0.00  0.00     0.048 H 
ATOM     54  H34 non d ame     -10.138  14.537  68.166  0.00  0.00     0.048 H 
BRANCH  52  55
ATOM     55  C23 non d ame     -10.147  16.603  67.648  0.00  0.00     0.259 C 
ATOM     56  O7  non d ame     -10.408  17.730  67.919  0.00  0.00    -0.265 OA
BRANCH  55  57
ATOM     57  O8  non d ame      -9.593  16.283  66.377  0.00  0.00    -0.317 OA
BRANCH  57  58
ATOM     58  C29 non d ame     -10.557  16.214  65.323  0.00  0.00     0.052 C 
ATOM     59  H47 non d ame     -11.409  16.801  65.663  0.00  0.00     0.082 H 
ATOM     60  H48 non d ame     -10.024  16.501  64.417  0.00  0.00     0.082 H 
BRANCH  58  61
ATOM     61  C35 non d ame     -11.005  14.735  65.180  0.00  0.00    -0.034 A 
ATOM     62  C30 non d ame     -12.297  14.361  65.534  0.00  0.00    -0.075 A 
ATOM     63  C31 non d ame     -12.700  13.033  65.406  0.00  0.00    -0.082 A 
ATOM     64  H49 non d ame     -12.995  15.109  65.911  0.00  0.00     0.084 H 
ATOM     65  C32 non d ame     -11.803  12.075  64.923  0.00  0.00    -0.083 A 
ATOM     66  H50 non d ame     -13.714  12.743  65.682  0.00  0.00     0.083 H 
ATOM     67  C33 non d ame     -10.514  12.452  64.574  0.00  0.00    -0.082 A 
ATOM     68  H51 non d ame     -12.110  11.034  64.819  0.00  0.00     0.083 H 
ATOM     69  C34 non d ame     -10.108  13.779  64.699  0.00  0.00    -0.075 A 
ATOM     70  H52 non d ame      -9.816  11.702  64.200  0.00  0.00     0.083 H 
ATOM     71  H53 non d ame      -9.093  14.068  64.421  0.00  0.00     0.084 H 
ENDBRANCH  58  61
ENDBRANCH  57  58
ENDBRANCH  55  57
ENDBRANCH  52  55
ENDBRANCH  49  52
ENDBRANCH  47  49
BRANCH  47  72
ATOM     72  C24 non d ame     -12.839  13.891  70.857  0.00  0.00    -0.039 C 
ATOM     73  H35 non d ame     -13.854  13.504  70.759  0.00  0.00     0.036 H 
ATOM     74  H36 non d ame     -12.110  13.358  71.468  0.00  0.00     0.036 H 
BRANCH  72  75
ATOM     75  C25 non d ame     -12.955  15.376  71.448  0.00  0.00    -0.001 C 
ATOM     76  C26 non d ame     -11.786  15.622  72.578  0.00  0.00    -0.035 C 
ATOM     77  C27 non d ame     -12.363  16.102  73.705  0.00  0.00     0.085 C 
ATOM     78  H38 non d ame     -11.365  14.668  72.894  0.00  0.00     0.036 H 
ATOM     79  H39 non d ame     -11.127  16.431  72.265  0.00  0.00     0.036 H 
ATOM     80  N5  non d ame     -13.852  15.898  73.560  0.00  0.00    -0.049 N 
ATOM     81  H40 non d ame     -11.995  15.469  74.514  0.00  0.00     0.075 H 
ATOM     82  H41 non d ame     -12.150  17.170  73.709  0.00  0.00     0.075 H 
ATOM     83  C28 non d ame     -14.105  15.571  72.000  0.00  0.00     0.193 C 
ATOM     84  H42 non d ame     -14.082  15.077  74.102  0.00  0.00     0.280 HD
ATOM     85  H43 non d ame     -14.285  16.784  73.777  0.00  0.00     0.280 HD
ATOM     86  H44 non d ame     -14.518  16.330  71.335  0.00  0.00     0.129 H 
ATOM     87  H37 non d ame     -13.051  16.126  70.663  0.00  0.00     0.046 H 
BRANCH  83  88
ATOM     88  O6  non d ame     -14.966  14.439  71.867  0.00  0.00    -0.369 OA
ATOM     89  H45 non d ame     -14.768  13.981  71.047  0.00  0.00     0.212 HD
ENDBRANCH  83  88
ENDBRANCH  72  75
ENDBRANCH  47  72
ENDBRANCH  45  47
ENDBRANCH   1  43
BRANCH   1  90
ATOM     90  C16 non d ame      -9.288  10.762  67.489  0.00  0.00    -0.035 C 
ATOM     91  H21 non d ame      -9.199   9.717  67.191  0.00  0.00     0.037 H 
ATOM     92  H22 non d ame      -9.927  11.439  66.920  0.00  0.00     0.037 H 
BRANCH  90  93
ATOM     93  C17 non d ame      -7.847  11.362  67.429  0.00  0.00    -0.059 C 
ATOM     94  H23 non d ame      -7.336  11.087  68.351  0.00  0.00     0.038 H 
BRANCH  93  95
ATOM     95  C18 non d ame      -7.018  10.788  66.235  0.00  0.00    -0.073 C 
ATOM     96  H24 non d ame      -7.677  10.223  65.575  0.00  0.00     0.028 H 
ATOM     97  H25 non d ame      -6.564  11.609  65.680  0.00  0.00     0.028 H 
ATOM     98  H26 non d ame      -6.237  10.131  66.618  0.00  0.00     0.028 H 
ENDBRANCH  93  95
BRANCH  93  99
ATOM     99  C19 non d ame      -7.893  12.891  67.374  0.00  0.00    -0.073 C 
ATOM    100  H27 non d ame      -8.914  13.231  67.552  0.00  0.00     0.028 H 
ATOM    101  H28 non d ame      -7.235  13.302  68.140  0.00  0.00     0.028 H 
ATOM    102  H29 non d ame      -7.563  13.230  66.392  0.00  0.00     0.028 H 
ENDBRANCH  93  99
ENDBRANCH  90  93
ENDBRANCH   1  90
TORSDOF 26
ENDMDL
MODEL 12
REMARK VINA RESULT:      -7.0      2.662      9.338
REMARK  26 active torsions:
REMARK  status: ('A' for Active; 'I' for Inactive)
REMARK    1  A    between atoms: C2_2  and  C3_3 
REMARK    2  A    between atoms: C4_6  and  C5_7 
REMARK       I    between atoms: C5_7  and  N2_9 
REMARK    3  A    between atoms: N2_9  and  C6_10 
REMARK    4  A    between atoms: C6_10  and  C7_11 
REMARK    5  A    between atoms: C6_10  and  C8_13 
REMARK       I    between atoms: C7_11  and  N3_14 
REMARK    6  A    between atoms: N3_14  and  C9_15 
REMARK    7  A    between atoms: C9_15  and  C10_16 
REMARK    8  A    between atoms: C9_15  and  C11_18 
REMARK       I    between atoms: C10_16  and  N4_21 
REMARK    9  A    between atoms: C11_18  and  C12_19 
REMARK   10  A    between atoms: C11_18  and  C13_20 
REMARK   11  A    between atoms: N4_21  and  C14_22 
REMARK   12  A    between atoms: C14_22  and  C15_23 
REMARK   13  A    between atoms: C14_22  and  C16_25 
REMARK       I    between atoms: C15_23  and  N6_40 
REMARK   14  A    between atoms: C16_25  and  C17_26 
REMARK   15  A    between atoms: C17_26  and  C18_27 
REMARK   16  A    between atoms: C17_26  and  C19_28 
REMARK   17  A    between atoms: C20_29  and  C21_30 
REMARK   18  A    between atoms: C20_29  and  C24_33 
REMARK   19  A    between atoms: C20_29  and  N6_40 
REMARK   20  A    between atoms: C21_30  and  C22_31 
REMARK   21  A    between atoms: C22_31  and  C23_32 
REMARK   22  A    between atoms: C23_32  and  O8_43 
REMARK   23  A    between atoms: C24_33  and  C25_34 
REMARK   24  A    between atoms: C28_38  and  O6_39 
REMARK   25  A    between atoms: C29_42  and  O8_43 
REMARK   26  A    between atoms: C29_42  and  C35_49 
ROOT
ATOM      1  C14 non d ame      -7.338  13.490  67.497  0.00  0.00     0.089 C 
ATOM      2  H20 non d ame      -6.990  13.899  66.548  0.00  0.00     0.087 H 
ENDROOT
BRANCH   1   3
ATOM      3  N4  non d ame      -8.192  14.490  68.119  0.00  0.00    -0.346 N 
ATOM      4  C10 non d ame      -8.928  15.497  67.271  0.00  0.00     0.241 C 
ATOM      5  O4  non d ame      -8.815  15.484  66.090  0.00  0.00    -0.271 OA
ATOM      6  H19 non d ame      -8.273  14.486  69.126  0.00  0.00     0.163 HD
BRANCH   4   7
ATOM      7  C9  non d ame      -9.812  16.522  67.931  0.00  0.00     0.092 C 
ATOM      8  H11 non d ame     -10.673  16.717  67.292  0.00  0.00     0.088 H 
BRANCH   7   9
ATOM      9  N3  non d ame     -10.324  15.985  69.196  0.00  0.00    -0.346 N 
ATOM     10  C7  non d ame     -11.575  15.268  69.220  0.00  0.00     0.240 C 
ATOM     11  O3  non d ame     -12.184  15.115  68.232  0.00  0.00    -0.271 OA
ATOM     12  H10 non d ame      -9.811  16.110  70.056  0.00  0.00     0.163 HD
BRANCH  10  13
ATOM     13  C6  non d ame     -12.117  14.701  70.569  0.00  0.00     0.086 C 
ATOM     14  H6  non d ame     -13.175  14.911  70.720  0.00  0.00     0.086 H 
BRANCH  13  15
ATOM     15  N2  non d ame     -11.977  13.254  70.562  0.00  0.00    -0.343 N 
ATOM     16  C5  non d ame     -12.820  12.444  71.445  0.00  0.00     0.273 C 
ATOM     17  O2  non d ame     -13.605  12.966  72.158  0.00  0.00    -0.266 OA
ATOM     18  H5  non d ame     -11.302  12.817  69.952  0.00  0.00     0.163 HD
BRANCH  16  19
ATOM     19  C4  non d ame     -12.684  10.913  71.447  0.00  0.00     0.154 A 
ATOM     20  C1  non d ame     -11.699  10.132  70.764  0.00  0.00    -0.017 A 
ATOM     21  C2  non d ame     -12.010   8.792  71.087  0.00  0.00     0.077 A 
ATOM     22  H1  non d ame     -10.884  10.483  70.130  0.00  0.00     0.091 H 
ATOM     23  O1  non d ame     -13.051   8.813  71.866  0.00  0.00    -0.218 OA
ATOM     24  N1  non d ame     -13.463  10.040  72.090  0.00  0.00    -0.123 NA
BRANCH  21  25
ATOM     25  C3  non d ame     -11.262   7.553  70.612  0.00  0.00    -0.029 C 
ATOM     26  H2  non d ame     -10.285   7.844  70.226  0.00  0.00     0.036 H 
ATOM     27  H3  non d ame     -11.133   6.865  71.447  0.00  0.00     0.036 H 
ATOM     28  H4  non d ame     -11.834   7.064  69.823  0.00  0.00     0.036 H 
ENDBRANCH  21  25
ENDBRANCH  16  19
ENDBRANCH  13  15
BRANCH  13  29
ATOM     29  C8  non d ame     -11.334  15.290  71.715  0.00  0.00    -0.049 C 
ATOM     30  H7  non d ame     -11.119  14.511  72.447  0.00  0.00     0.030 H 
ATOM     31  H8  non d ame     -10.398  15.705  71.340  0.00  0.00     0.030 H 
ATOM     32  H9  non d ame     -11.919  16.079  72.186  0.00  0.00     0.030 H 
ENDBRANCH  13  29
ENDBRANCH  10  13
ENDBRANCH   7   9
BRANCH   7  33
ATOM     33  C11 non d ame      -8.988  17.812  68.215  0.00  0.00    -0.033 C 
ATOM     34  H12 non d ame      -9.385  18.262  69.125  0.00  0.00     0.042 H 
BRANCH  33  35
ATOM     35  C12 non d ame      -7.485  17.482  68.471  0.00  0.00    -0.071 C 
ATOM     36  H13 non d ame      -7.159  16.710  67.774  0.00  0.00     0.028 H 
ATOM     37  H14 non d ame      -6.886  18.380  68.325  0.00  0.00     0.028 H 
ATOM     38  H15 non d ame      -7.361  17.124  69.493  0.00  0.00     0.028 H 
ENDBRANCH  33  35
BRANCH  33  39
ATOM     39  C13 non d ame      -9.151  18.846  67.054  0.00  0.00    -0.071 C 
ATOM     40  H16 non d ame      -8.808  18.401  66.121  0.00  0.00     0.028 H 
ATOM     41  H17 non d ame     -10.201  19.124  66.960  0.00  0.00     0.028 H 
ATOM     42  H18 non d ame      -8.558  19.734  67.274  0.00  0.00     0.028 H 
ENDBRANCH  33  39
ENDBRANCH   7  33
ENDBRANCH   4   7
ENDBRANCH   1   3
BRANCH   1  43
ATOM     43  C15 non d ame      -8.161  12.184  67.307  0.00  0.00     0.240 C 
ATOM     44  O5  non d ame      -8.803  11.753  68.210  0.00  0.00    -0.271 OA
ATOM     45  N6  non d ame      -8.158  11.475  65.996  0.00  0.00    -0.355 N 
ATOM     46  H46 non d ame      -7.620  11.834  65.220  0.00  0.00     0.162 HD
BRANCH  45  47
ATOM     47  C20 non d ame      -8.947  10.236  65.830  0.00  0.00     0.013 C 
ATOM     48  H30 non d ame      -9.095   9.798  66.818  0.00  0.00     0.072 H 
BRANCH  47  49
ATOM     49  C21 non d ame      -8.187   9.273  64.947  0.00  0.00    -0.038 C 
ATOM     50  H31 non d ame      -8.103   8.350  65.521  0.00  0.00     0.036 H 
ATOM     51  H32 non d ame      -8.711   9.274  63.991  0.00  0.00     0.036 H 
BRANCH  49  52
ATOM     52  C22 non d ame      -6.744   9.739  64.656  0.00  0.00     0.018 C 
ATOM     53  H33 non d ame      -6.631   9.691  63.572  0.00  0.00     0.048 H 
ATOM     54  H34 non d ame      -6.631  10.691  65.174  0.00  0.00     0.048 H 
BRANCH  52  55
ATOM     55  C23 non d ame      -5.652   8.800  65.241  0.00  0.00     0.259 C 
ATOM     56  O7  non d ame      -5.374   8.845  66.396  0.00  0.00    -0.265 OA
BRANCH  55  57
ATOM     57  O8  non d ame      -4.977   7.893  64.378  0.00  0.00    -0.317 OA
BRANCH  57  58
ATOM     58  C29 non d ame      -5.068   6.525  64.786  0.00  0.00     0.052 C 
ATOM     59  H47 non d ame      -4.305   5.996  64.215  0.00  0.00     0.082 H 
ATOM     60  H48 non d ame      -5.022   6.538  65.875  0.00  0.00     0.082 H 
BRANCH  58  61
ATOM     61  C35 non d ame      -6.460   5.989  64.359  0.00  0.00    -0.034 A 
ATOM     62  C30 non d ame      -7.348   5.513  65.319  0.00  0.00    -0.075 A 
ATOM     63  C31 non d ame      -8.598   5.031  64.936  0.00  0.00    -0.082 A 
ATOM     64  H49 non d ame      -7.063   5.517  66.371  0.00  0.00     0.084 H 
ATOM     65  C32 non d ame      -8.960   5.024  63.586  0.00  0.00    -0.083 A 
ATOM     66  H50 non d ame      -9.292   4.660  65.690  0.00  0.00     0.083 H 
ATOM     67  C33 non d ame      -8.070   5.497  62.631  0.00  0.00    -0.082 A 
ATOM     68  H51 non d ame      -9.936   4.650  63.278  0.00  0.00     0.083 H 
ATOM     69  C34 non d ame      -6.820   5.982  63.010  0.00  0.00    -0.075 A 
ATOM     70  H52 non d ame      -8.354   5.489  61.579  0.00  0.00     0.083 H 
ATOM     71  H53 non d ame      -6.126   6.353  62.255  0.00  0.00     0.084 H 
ENDBRANCH  58  61
ENDBRANCH  57  58
ENDBRANCH  55  57
ENDBRANCH  52  55
ENDBRANCH  49  52
ENDBRANCH  47  49
BRANCH  47  72
ATOM     72  C24 non d ame     -10.294  10.563  65.188  0.00  0.00    -0.039 C 
ATOM     73  H35 non d ame     -10.381   9.887  64.337  0.00  0.00     0.036 H 
ATOM     74  H36 non d ame     -11.021  10.515  65.998  0.00  0.00     0.036 H 
BRANCH  72  75
ATOM     75  C25 non d ame     -10.327  12.056  64.610  0.00  0.00    -0.001 C 
ATOM     76  C26 non d ame     -11.445  12.947  65.424  0.00  0.00    -0.035 C 
ATOM     77  C27 non d ame     -12.261  13.549  64.526  0.00  0.00     0.085 C 
ATOM     78  H38 non d ame     -12.115  12.289  65.977  0.00  0.00     0.036 H 
ATOM     79  H39 non d ame     -10.961  13.783  65.929  0.00  0.00     0.036 H 
ATOM     80  N5  non d ame     -12.008  12.893  63.190  0.00  0.00    -0.049 N 
ATOM     81  H40 non d ame     -13.276  13.314  64.851  0.00  0.00     0.075 H 
ATOM     82  H41 non d ame     -11.930  14.585  64.481  0.00  0.00     0.075 H 
ATOM     83  C28 non d ame     -10.632  12.066  63.355  0.00  0.00     0.193 C 
ATOM     84  H42 non d ame     -12.762  12.236  63.046  0.00  0.00     0.280 HD
ATOM     85  H43 non d ame     -11.856  13.641  62.528  0.00  0.00     0.280 HD
ATOM     86  H44 non d ame      -9.703  12.446  62.929  0.00  0.00     0.129 H 
ATOM     87  H37 non d ame      -9.329  12.484  64.511  0.00  0.00     0.046 H 
BRANCH  83  88
ATOM     88  O6  non d ame     -10.783  10.747  62.827  0.00  0.00    -0.369 OA
ATOM     89  H45 non d ame     -10.920  10.128  63.548  0.00  0.00     0.212 HD
ENDBRANCH  83  88
ENDBRANCH  72  75
ENDBRANCH  47  72
ENDBRANCH  45  47
ENDBRANCH   1  43
BRANCH   1  90
ATOM     90  C16 non d ame      -6.150  13.217  68.406  0.00  0.00    -0.035 C 
ATOM     91  H21 non d ame      -6.511  12.503  69.146  0.00  0.00     0.037 H 
ATOM     92  H22 non d ame      -5.332  12.944  67.739  0.00  0.00     0.037 H 
BRANCH  90  93
ATOM     93  C17 non d ame      -5.669  14.472  69.202  0.00  0.00    -0.059 C 
ATOM     94  H23 non d ame      -6.211  15.336  68.817  0.00  0.00     0.038 H 
BRANCH  93  95
ATOM     95  C18 non d ame      -5.981  14.356  70.729  0.00  0.00    -0.073 C 
ATOM     96  H24 non d ame      -5.261  13.684  71.196  0.00  0.00     0.028 H 
ATOM     97  H25 non d ame      -5.910  15.342  71.189  0.00  0.00     0.028 H 
ATOM     98  H26 non d ame      -6.988  13.963  70.865  0.00  0.00     0.028 H 
ENDBRANCH  93  95
BRANCH  93  99
ATOM     99  C19 non d ame      -4.178  14.729  68.969  0.00  0.00    -0.073 C 
ATOM    100  H27 non d ame      -3.810  14.055  68.195  0.00  0.00     0.028 H 
ATOM    101  H28 non d ame      -4.034  15.762  68.649  0.00  0.00     0.028 H 
ATOM    102  H29 non d ame      -3.630  14.555  69.894  0.00  0.00     0.028 H 
ENDBRANCH  93  99
ENDBRANCH  90  93
ENDBRANCH   1  90
TORSDOF 26
ENDMDL
MODEL 13
REMARK VINA RESULT:      -7.0      2.474      6.961
REMARK  26 active torsions:
REMARK  status: ('A' for Active; 'I' for Inactive)
REMARK    1  A    between atoms: C2_2  and  C3_3 
REMARK    2  A    between atoms: C4_6  and  C5_7 
REMARK       I    between atoms: C5_7  and  N2_9 
REMARK    3  A    between atoms: N2_9  and  C6_10 
REMARK    4  A    between atoms: C6_10  and  C7_11 
REMARK    5  A    between atoms: C6_10  and  C8_13 
REMARK       I    between atoms: C7_11  and  N3_14 
REMARK    6  A    between atoms: N3_14  and  C9_15 
REMARK    7  A    between atoms: C9_15  and  C10_16 
REMARK    8  A    between atoms: C9_15  and  C11_18 
REMARK       I    between atoms: C10_16  and  N4_21 
REMARK    9  A    between atoms: C11_18  and  C12_19 
REMARK   10  A    between atoms: C11_18  and  C13_20 
REMARK   11  A    between atoms: N4_21  and  C14_22 
REMARK   12  A    between atoms: C14_22  and  C15_23 
REMARK   13  A    between atoms: C14_22  and  C16_25 
REMARK       I    between atoms: C15_23  and  N6_40 
REMARK   14  A    between atoms: C16_25  and  C17_26 
REMARK   15  A    between atoms: C17_26  and  C18_27 
REMARK   16  A    between atoms: C17_26  and  C19_28 
REMARK   17  A    between atoms: C20_29  and  C21_30 
REMARK   18  A    between atoms: C20_29  and  C24_33 
REMARK   19  A    between atoms: C20_29  and  N6_40 
REMARK   20  A    between atoms: C21_30  and  C22_31 
REMARK   21  A    between atoms: C22_31  and  C23_32 
REMARK   22  A    between atoms: C23_32  and  O8_43 
REMARK   23  A    between atoms: C24_33  and  C25_34 
REMARK   24  A    between atoms: C28_38  and  O6_39 
REMARK   25  A    between atoms: C29_42  and  O8_43 
REMARK   26  A    between atoms: C29_42  and  C35_49 
ROOT
ATOM      1  C14 non d ame      -7.194   9.973  65.227  0.00  0.00     0.089 C 
ATOM      2  H20 non d ame      -6.363  10.157  65.909  0.00  0.00     0.087 H 
ENDROOT
BRANCH   1   3
ATOM      3  N4  non d ame      -7.448   8.540  65.222  0.00  0.00    -0.346 N 
ATOM      4  C10 non d ame      -6.445   7.587  65.823  0.00  0.00     0.241 C 
ATOM      5  O4  non d ame      -5.439   7.997  66.301  0.00  0.00    -0.271 OA
ATOM      6  H19 non d ame      -8.309   8.211  64.808  0.00  0.00     0.163 HD
BRANCH   4   7
ATOM      7  C9  non d ame      -6.727   6.107  65.814  0.00  0.00     0.092 C 
ATOM      8  H11 non d ame      -6.193   5.636  66.639  0.00  0.00     0.088 H 
BRANCH   7   9
ATOM      9  N3  non d ame      -8.158   5.881  66.039  0.00  0.00    -0.346 N 
ATOM     10  C7  non d ame      -8.613   5.336  67.294  0.00  0.00     0.240 C 
ATOM     11  O3  non d ame      -7.841   5.074  68.135  0.00  0.00    -0.271 OA
ATOM     12  H10 non d ame      -8.835   6.101  65.323  0.00  0.00     0.163 HD
BRANCH  10  13
ATOM     13  C6  non d ame     -10.137   5.094  67.526  0.00  0.00     0.086 C 
ATOM     14  H6  non d ame     -10.339   4.182  68.087  0.00  0.00     0.086 H 
BRANCH  13  15
ATOM     15  N2  non d ame     -10.674   6.192  68.312  0.00  0.00    -0.343 N 
ATOM     16  C5  non d ame     -10.801   6.046  69.764  0.00  0.00     0.273 C 
ATOM     17  O2  non d ame     -10.470   5.041  70.289  0.00  0.00    -0.266 OA
ATOM     18  H5  non d ame     -10.957   7.048  67.854  0.00  0.00     0.163 HD
BRANCH  16  19
ATOM     19  C4  non d ame     -11.366   7.200  70.608  0.00  0.00     0.154 A 
ATOM     20  C1  non d ame     -12.691   7.317  71.135  0.00  0.00    -0.017 A 
ATOM     21  C2  non d ame     -12.698   8.547  71.829  0.00  0.00     0.077 A 
ATOM     22  H1  non d ame     -13.519   6.616  71.031  0.00  0.00     0.091 H 
ATOM     23  O1  non d ame     -11.512   9.067  71.708  0.00  0.00    -0.218 OA
ATOM     24  N1  non d ame     -10.717   8.300  71.000  0.00  0.00    -0.123 NA
BRANCH  21  25
ATOM     25  C3  non d ame     -13.878   9.152  72.579  0.00  0.00    -0.029 C 
ATOM     26  H2  non d ame     -13.864   8.811  73.614  0.00  0.00     0.036 H 
ATOM     27  H3  non d ame     -13.806  10.239  72.553  0.00  0.00     0.036 H 
ATOM     28  H4  non d ame     -14.809   8.839  72.106  0.00  0.00     0.036 H 
ENDBRANCH  21  25
ENDBRANCH  16  19
ENDBRANCH  13  15
BRANCH  13  29
ATOM     29  C8  non d ame     -10.844   5.016  66.197  0.00  0.00    -0.049 C 
ATOM     30  H7  non d ame     -10.914   6.014  65.763  0.00  0.00     0.030 H 
ATOM     31  H8  non d ame     -10.283   4.366  65.525  0.00  0.00     0.030 H 
ATOM     32  H9  non d ame     -11.846   4.612  66.342  0.00  0.00     0.030 H 
ENDBRANCH  13  29
ENDBRANCH  10  13
ENDBRANCH   7   9
BRANCH   7  33
ATOM     33  C11 non d ame      -6.320   5.509  64.436  0.00  0.00    -0.033 C 
ATOM     34  H12 non d ame      -6.236   4.430  64.557  0.00  0.00     0.042 H 
BRANCH  33  35
ATOM     35  C12 non d ame      -7.414   5.776  63.355  0.00  0.00    -0.071 C 
ATOM     36  H13 non d ame      -7.137   5.276  62.427  0.00  0.00     0.028 H 
ATOM     37  H14 non d ame      -8.371   5.389  63.704  0.00  0.00     0.028 H 
ATOM     38  H15 non d ame      -7.497   6.848  63.180  0.00  0.00     0.028 H 
ENDBRANCH  33  35
BRANCH  33  39
ATOM     39  C13 non d ame      -4.928   6.053  63.979  0.00  0.00    -0.071 C 
ATOM     40  H16 non d ame      -4.187   5.851  64.752  0.00  0.00     0.028 H 
ATOM     41  H17 non d ame      -4.631   5.560  63.053  0.00  0.00     0.028 H 
ATOM     42  H18 non d ame      -4.996   7.128  63.813  0.00  0.00     0.028 H 
ENDBRANCH  33  39
ENDBRANCH   7  33
ENDBRANCH   4   7
ENDBRANCH   1   3
BRANCH   1  43
ATOM     43  C15 non d ame      -8.492  10.705  65.672  0.00  0.00     0.240 C 
ATOM     44  O5  non d ame      -9.535  10.135  65.632  0.00  0.00    -0.271 OA
ATOM     45  N6  non d ame      -8.435  12.113  66.157  0.00  0.00    -0.355 N 
ATOM     46  H46 non d ame      -7.554  12.606  66.200  0.00  0.00     0.162 HD
BRANCH  45  47
ATOM     47  C20 non d ame      -9.678  12.795  66.578  0.00  0.00     0.013 C 
ATOM     48  H30 non d ame     -10.516  12.293  66.094  0.00  0.00     0.072 H 
BRANCH  47  49
ATOM     49  C21 non d ame      -9.625  14.243  66.146  0.00  0.00    -0.038 C 
ATOM     50  H31 non d ame      -9.407  14.812  67.051  0.00  0.00     0.036 H 
ATOM     51  H32 non d ame      -8.935  14.273  65.303  0.00  0.00     0.036 H 
BRANCH  49  52
ATOM     52  C22 non d ame     -10.981  14.762  65.620  0.00  0.00     0.018 C 
ATOM     53  H33 non d ame     -11.278  14.067  64.834  0.00  0.00     0.048 H 
ATOM     54  H34 non d ame     -11.610  14.889  66.501  0.00  0.00     0.048 H 
BRANCH  52  55
ATOM     55  C23 non d ame     -10.897  16.160  64.947  0.00  0.00     0.259 C 
ATOM     56  O7  non d ame     -11.604  16.432  64.031  0.00  0.00    -0.265 OA
BRANCH  55  57
ATOM     57  O8  non d ame      -9.956  17.111  65.430  0.00  0.00    -0.317 OA
BRANCH  57  58
ATOM     58  C29 non d ame     -10.399  17.838  66.579  0.00  0.00     0.052 C 
ATOM     59  H47 non d ame     -10.891  18.731  66.191  0.00  0.00     0.082 H 
ATOM     60  H48 non d ame     -10.962  17.125  67.181  0.00  0.00     0.082 H 
BRANCH  58  61
ATOM     61  C35 non d ame      -9.146  18.276  67.382  0.00  0.00    -0.034 A 
ATOM     62  C30 non d ame      -8.745  19.609  67.374  0.00  0.00    -0.075 A 
ATOM     63  C31 non d ame      -7.618  20.003  68.095  0.00  0.00    -0.082 A 
ATOM     64  H49 non d ame      -9.313  20.344  66.805  0.00  0.00     0.084 H 
ATOM     65  C32 non d ame      -6.890  19.058  68.824  0.00  0.00    -0.083 A 
ATOM     66  H50 non d ame      -7.308  21.048  68.090  0.00  0.00     0.083 H 
ATOM     67  C33 non d ame      -7.293  17.729  68.825  0.00  0.00    -0.082 A 
ATOM     68  H51 non d ame      -6.009  19.357  69.391  0.00  0.00     0.083 H 
ATOM     69  C34 non d ame      -8.419  17.331  68.108  0.00  0.00    -0.075 A 
ATOM     70  H52 non d ame      -6.721  16.994  69.393  0.00  0.00     0.083 H 
ATOM     71  H53 non d ame      -8.729  16.286  68.115  0.00  0.00     0.084 H 
ENDBRANCH  58  61
ENDBRANCH  57  58
ENDBRANCH  55  57
ENDBRANCH  52  55
ENDBRANCH  49  52
ENDBRANCH  47  49
BRANCH  47  72
ATOM     72  C24 non d ame      -9.820  12.719  68.096  0.00  0.00    -0.039 C 
ATOM     73  H35 non d ame      -9.293  11.812  68.392  0.00  0.00     0.036 H 
ATOM     74  H36 non d ame      -9.485  13.688  68.467  0.00  0.00     0.036 H 
BRANCH  72  75
ATOM     75  C25 non d ame     -11.349  12.546  68.541  0.00  0.00    -0.001 C 
ATOM     76  C26 non d ame     -11.842  13.871  69.381  0.00  0.00    -0.035 C 
ATOM     77  C27 non d ame     -12.402  13.466  70.546  0.00  0.00     0.085 C 
ATOM     78  H38 non d ame     -10.978  14.452  69.702  0.00  0.00     0.036 H 
ATOM     79  H39 non d ame     -12.665  14.360  68.859  0.00  0.00     0.036 H 
ATOM     80  N5  non d ame     -12.042  12.011  70.726  0.00  0.00    -0.049 N 
ATOM     81  H40 non d ame     -11.912  14.052  71.324  0.00  0.00     0.075 H 
ATOM     82  H41 non d ame     -13.478  13.550  70.396  0.00  0.00     0.075 H 
ATOM     83  C28 non d ame     -11.502  11.506  69.291  0.00  0.00     0.193 C 
ATOM     84  H42 non d ame     -11.277  11.985  71.385  0.00  0.00     0.280 HD
ATOM     85  H43 non d ame     -12.904  11.527  70.934  0.00  0.00     0.280 HD
ATOM     86  H44 non d ame     -12.131  10.889  68.649  0.00  0.00     0.129 H 
ATOM     87  H37 non d ame     -11.983  12.215  67.719  0.00  0.00     0.046 H 
BRANCH  83  88
ATOM     88  O6  non d ame     -10.286  10.773  69.453  0.00  0.00    -0.369 OA
ATOM     89  H45 non d ame      -9.941  10.532  68.590  0.00  0.00     0.212 HD
ENDBRANCH  83  88
ENDBRANCH  72  75
ENDBRANCH  47  72
ENDBRANCH  45  47
ENDBRANCH   1  43
BRANCH   1  90
ATOM     90  C16 non d ame      -6.814  10.414  63.822  0.00  0.00    -0.035 C 
ATOM     91  H21 non d ame      -7.676  10.969  63.451  0.00  0.00     0.037 H 
ATOM     92  H22 non d ame      -5.850  10.912  63.927  0.00  0.00     0.037 H 
BRANCH  90  93
ATOM     93  C17 non d ame      -6.593   9.227  62.831  0.00  0.00    -0.059 C 
ATOM     94  H23 non d ame      -6.878   8.309  63.345  0.00  0.00     0.038 H 
BRANCH  93  95
ATOM     95  C18 non d ame      -7.482   9.353  61.553  0.00  0.00    -0.073 C 
ATOM     96  H24 non d ame      -7.666   8.362  61.139  0.00  0.00     0.028 H 
ATOM     97  H25 non d ame      -8.432   9.819  61.816  0.00  0.00     0.028 H 
ATOM     98  H26 non d ame      -6.969   9.967  60.813  0.00  0.00     0.028 H 
ENDBRANCH  93  95
BRANCH  93  99
ATOM     99  C19 non d ame      -5.115   9.097  62.456  0.00  0.00    -0.073 C 
ATOM    100  H27 non d ame      -4.931   9.620  61.517  0.00  0.00     0.028 H 
ATOM    101  H28 non d ame      -4.500   9.535  63.243  0.00  0.00     0.028 H 
ATOM    102  H29 non d ame      -4.860   8.044  62.341  0.00  0.00     0.028 H 
ENDBRANCH  93  99
ENDBRANCH  90  93
ENDBRANCH   1  90
TORSDOF 26
ENDMDL
MODEL 14
REMARK VINA RESULT:      -6.9      3.166      7.598
REMARK  26 active torsions:
REMARK  status: ('A' for Active; 'I' for Inactive)
REMARK    1  A    between atoms: C2_2  and  C3_3 
REMARK    2  A    between atoms: C4_6  and  C5_7 
REMARK       I    between atoms: C5_7  and  N2_9 
REMARK    3  A    between atoms: N2_9  and  C6_10 
REMARK    4  A    between atoms: C6_10  and  C7_11 
REMARK    5  A    between atoms: C6_10  and  C8_13 
REMARK       I    between atoms: C7_11  and  N3_14 
REMARK    6  A    between atoms: N3_14  and  C9_15 
REMARK    7  A    between atoms: C9_15  and  C10_16 
REMARK    8  A    between atoms: C9_15  and  C11_18 
REMARK       I    between atoms: C10_16  and  N4_21 
REMARK    9  A    between atoms: C11_18  and  C12_19 
REMARK   10  A    between atoms: C11_18  and  C13_20 
REMARK   11  A    between atoms: N4_21  and  C14_22 
REMARK   12  A    between atoms: C14_22  and  C15_23 
REMARK   13  A    between atoms: C14_22  and  C16_25 
REMARK       I    between atoms: C15_23  and  N6_40 
REMARK   14  A    between atoms: C16_25  and  C17_26 
REMARK   15  A    between atoms: C17_26  and  C18_27 
REMARK   16  A    between atoms: C17_26  and  C19_28 
REMARK   17  A    between atoms: C20_29  and  C21_30 
REMARK   18  A    between atoms: C20_29  and  C24_33 
REMARK   19  A    between atoms: C20_29  and  N6_40 
REMARK   20  A    between atoms: C21_30  and  C22_31 
REMARK   21  A    between atoms: C22_31  and  C23_32 
REMARK   22  A    between atoms: C23_32  and  O8_43 
REMARK   23  A    between atoms: C24_33  and  C25_34 
REMARK   24  A    between atoms: C28_38  and  O6_39 
REMARK   25  A    between atoms: C29_42  and  O8_43 
REMARK   26  A    between atoms: C29_42  and  C35_49 
ROOT
ATOM      1  C14 non d ame      -7.857   9.862  65.040  0.00  0.00     0.089 C 
ATOM      2  H20 non d ame      -6.806  10.142  64.960  0.00  0.00     0.087 H 
ENDROOT
BRANCH   1   3
ATOM      3  N4  non d ame      -7.914   8.547  65.662  0.00  0.00    -0.346 N 
ATOM      4  C10 non d ame      -6.689   7.960  66.315  0.00  0.00     0.241 C 
ATOM      5  O4  non d ame      -5.666   8.563  66.325  0.00  0.00    -0.271 OA
ATOM      6  H19 non d ame      -8.793   8.049  65.641  0.00  0.00     0.163 HD
BRANCH   4   7
ATOM      7  C9  non d ame      -6.767   6.600  66.959  0.00  0.00     0.092 C 
ATOM      8  H11 non d ame      -6.363   6.658  67.969  0.00  0.00     0.088 H 
BRANCH   7   9
ATOM      9  N3  non d ame      -8.171   6.195  67.077  0.00  0.00    -0.346 N 
ATOM     10  C7  non d ame      -8.839   6.273  68.353  0.00  0.00     0.240 C 
ATOM     11  O3  non d ame      -8.261   6.657  69.295  0.00  0.00    -0.271 OA
ATOM     12  H10 non d ame      -8.683   5.860  66.273  0.00  0.00     0.163 HD
BRANCH  10  13
ATOM     13  C6  non d ame     -10.332   5.837  68.473  0.00  0.00     0.086 C 
ATOM     14  H6  non d ame     -10.470   4.981  69.132  0.00  0.00     0.086 H 
BRANCH  13  15
ATOM     15  N2  non d ame     -11.098   6.932  69.046  0.00  0.00    -0.343 N 
ATOM     16  C5  non d ame     -11.473   6.886  70.461  0.00  0.00     0.273 C 
ATOM     17  O2  non d ame     -11.157   5.963  71.129  0.00  0.00    -0.266 OA
ATOM     18  H5  non d ame     -11.366   7.716  68.468  0.00  0.00     0.163 HD
BRANCH  16  19
ATOM     19  C4  non d ame     -12.281   8.037  71.081  0.00  0.00     0.154 A 
ATOM     20  C1  non d ame     -11.990   9.436  71.006  0.00  0.00    -0.017 A 
ATOM     21  C2  non d ame     -13.027  10.062  71.732  0.00  0.00     0.077 A 
ATOM     22  H1  non d ame     -11.155   9.922  70.501  0.00  0.00     0.091 H 
ATOM     23  O1  non d ame     -13.816   9.124  72.168  0.00  0.00    -0.218 OA
ATOM     24  N1  non d ame     -13.401   7.934  71.802  0.00  0.00    -0.123 NA
BRANCH  21  25
ATOM     25  C3  non d ame     -13.191  11.559  71.961  0.00  0.00    -0.029 C 
ATOM     26  H2  non d ame     -12.928  11.801  72.991  0.00  0.00     0.036 H 
ATOM     27  H3  non d ame     -12.537  12.104  71.281  0.00  0.00     0.036 H 
ATOM     28  H4  non d ame     -14.227  11.844  71.775  0.00  0.00     0.036 H 
ENDBRANCH  21  25
ENDBRANCH  16  19
ENDBRANCH  13  15
BRANCH  13  29
ATOM     29  C8  non d ame     -10.869   5.492  67.107  0.00  0.00    -0.049 C 
ATOM     30  H7  non d ame     -10.050   5.477  66.388  0.00  0.00     0.030 H 
ATOM     31  H8  non d ame     -11.342   4.511  67.140  0.00  0.00     0.030 H 
ATOM     32  H9  non d ame     -11.603   6.239  66.806  0.00  0.00     0.030 H 
ENDBRANCH  13  29
ENDBRANCH  10  13
ENDBRANCH   7   9
BRANCH   7  33
ATOM     33  C11 non d ame      -6.004   5.566  66.081  0.00  0.00    -0.033 C 
ATOM     34  H12 non d ame      -4.939   5.773  66.180  0.00  0.00     0.042 H 
BRANCH  33  35
ATOM     35  C12 non d ame      -6.246   4.107  66.581  0.00  0.00    -0.071 C 
ATOM     36  H13 non d ame      -5.472   3.453  66.180  0.00  0.00     0.028 H 
ATOM     37  H14 non d ame      -6.211   4.086  67.670  0.00  0.00     0.028 H 
ATOM     38  H15 non d ame      -7.223   3.765  66.241  0.00  0.00     0.028 H 
ENDBRANCH  33  35
BRANCH  33  39
ATOM     39  C13 non d ame      -6.388   5.719  64.574  0.00  0.00    -0.071 C 
ATOM     40  H16 non d ame      -7.047   4.902  64.282  0.00  0.00     0.028 H 
ATOM     41  H17 non d ame      -6.901   6.670  64.425  0.00  0.00     0.028 H 
ATOM     42  H18 non d ame      -5.485   5.694  63.965  0.00  0.00     0.028 H 
ENDBRANCH  33  39
ENDBRANCH   7  33
ENDBRANCH   4   7
ENDBRANCH   1   3
BRANCH   1  43
ATOM     43  C15 non d ame      -8.666  10.860  65.917  0.00  0.00     0.240 C 
ATOM     44  O5  non d ame      -8.874  10.609  67.060  0.00  0.00    -0.271 OA
ATOM     45  N6  non d ame      -9.175  12.134  65.334  0.00  0.00    -0.355 N 
ATOM     46  H46 non d ame      -9.000  12.361  64.365  0.00  0.00     0.162 HD
BRANCH  45  47
ATOM     47  C20 non d ame      -9.941  13.074  66.181  0.00  0.00     0.013 C 
ATOM     48  H30 non d ame      -9.652  12.902  67.218  0.00  0.00     0.072 H 
BRANCH  47  49
ATOM     49  C21 non d ame     -11.419  12.812  66.007  0.00  0.00    -0.038 C 
ATOM     50  H31 non d ame     -11.662  13.151  65.000  0.00  0.00     0.036 H 
ATOM     51  H32 non d ame     -11.567  11.767  66.281  0.00  0.00     0.036 H 
BRANCH  49  52
ATOM     52  C22 non d ame     -12.293  13.644  66.970  0.00  0.00     0.018 C 
ATOM     53  H33 non d ame     -12.180  14.680  66.652  0.00  0.00     0.048 H 
ATOM     54  H34 non d ame     -13.277  13.174  66.956  0.00  0.00     0.048 H 
BRANCH  52  55
ATOM     55  C23 non d ame     -11.816  13.595  68.448  0.00  0.00     0.259 C 
ATOM     56  O7  non d ame     -11.996  12.623  69.108  0.00  0.00    -0.265 OA
BRANCH  55  57
ATOM     57  O8  non d ame     -11.172  14.732  69.011  0.00  0.00    -0.317 OA
BRANCH  57  58
ATOM     58  C29 non d ame     -12.056  15.818  69.300  0.00  0.00     0.052 C 
ATOM     59  H47 non d ame     -11.465  16.724  69.165  0.00  0.00     0.082 H 
ATOM     60  H48 non d ame     -12.941  15.650  68.687  0.00  0.00     0.082 H 
BRANCH  58  61
ATOM     61  C35 non d ame     -12.467  15.717  70.793  0.00  0.00    -0.034 A 
ATOM     62  C30 non d ame     -13.694  15.162  71.142  0.00  0.00    -0.075 A 
ATOM     63  C31 non d ame     -14.064  15.072  72.483  0.00  0.00    -0.082 A 
ATOM     64  H49 non d ame     -14.366  14.798  70.365  0.00  0.00     0.084 H 
ATOM     65  C32 non d ame     -13.201  15.541  73.477  0.00  0.00    -0.083 A 
ATOM     66  H50 non d ame     -15.025  14.634  72.753  0.00  0.00     0.083 H 
ATOM     67  C33 non d ame     -11.979  16.097  73.124  0.00  0.00    -0.082 A 
ATOM     68  H51 non d ame     -13.482  15.473  74.529  0.00  0.00     0.083 H 
ATOM     69  C34 non d ame     -11.605  16.187  71.785  0.00  0.00    -0.075 A 
ATOM     70  H52 non d ame     -11.309  16.464  73.902  0.00  0.00     0.083 H 
ATOM     71  H53 non d ame     -10.643  16.624  71.516  0.00  0.00     0.084 H 
ENDBRANCH  58  61
ENDBRANCH  57  58
ENDBRANCH  55  57
ENDBRANCH  52  55
ENDBRANCH  49  52
ENDBRANCH  47  49
BRANCH  47  72
ATOM     72  C24 non d ame      -9.626  14.511  65.773  0.00  0.00    -0.039 C 
ATOM     73  H35 non d ame      -9.325  14.457  64.726  0.00  0.00     0.036 H 
ATOM     74  H36 non d ame     -10.503  15.092  66.058  0.00  0.00     0.036 H 
BRANCH  72  75
ATOM     75  C25 non d ame      -8.382  15.101  66.592  0.00  0.00    -0.001 C 
ATOM     76  C26 non d ame      -7.952  14.056  67.787  0.00  0.00    -0.035 C 
ATOM     77  C27 non d ame      -7.883  14.736  68.957  0.00  0.00     0.085 C 
ATOM     78  H38 non d ame      -8.751  13.336  67.958  0.00  0.00     0.036 H 
ATOM     79  H39 non d ame      -6.930  13.711  67.632  0.00  0.00     0.036 H 
ATOM     80  N5  non d ame      -8.542  16.075  68.729  0.00  0.00    -0.049 N 
ATOM     81  H40 non d ame      -8.482  14.161  69.664  0.00  0.00     0.075 H 
ATOM     82  H41 non d ame      -6.820  14.890  69.141  0.00  0.00     0.075 H 
ATOM     83  C28 non d ame      -8.672  16.239  67.128  0.00  0.00     0.193 C 
ATOM     84  H42 non d ame      -9.470  16.008  69.122  0.00  0.00     0.280 HD
ATOM     85  H43 non d ame      -7.897  16.773  69.072  0.00  0.00     0.280 HD
ATOM     86  H44 non d ame      -7.994  16.895  66.582  0.00  0.00     0.129 H 
ATOM     87  H37 non d ame      -7.588  15.458  65.936  0.00  0.00     0.046 H 
BRANCH  83  88
ATOM     88  O6  non d ame      -9.988  16.677  66.784  0.00  0.00    -0.369 OA
ATOM     89  H45 non d ame     -10.594  16.459  67.495  0.00  0.00     0.212 HD
ENDBRANCH  83  88
ENDBRANCH  72  75
ENDBRANCH  47  72
ENDBRANCH  45  47
ENDBRANCH   1  43
BRANCH   1  90
ATOM     90  C16 non d ame      -8.475   9.782  63.654  0.00  0.00    -0.035 C 
ATOM     91  H21 non d ame      -8.938   8.796  63.600  0.00  0.00     0.037 H 
ATOM     92  H22 non d ame      -9.090  10.678  63.560  0.00  0.00     0.037 H 
BRANCH  90  93
ATOM     93  C17 non d ame      -7.428   9.842  62.496  0.00  0.00    -0.059 C 
ATOM     94  H23 non d ame      -7.368   8.848  62.054  0.00  0.00     0.038 H 
BRANCH  93  95
ATOM     95  C18 non d ame      -7.851  10.840  61.371  0.00  0.00    -0.073 C 
ATOM     96  H24 non d ame      -7.160  11.683  61.356  0.00  0.00     0.028 H 
ATOM     97  H25 non d ame      -7.825  10.332  60.406  0.00  0.00     0.028 H 
ATOM     98  H26 non d ame      -8.861  11.200  61.565  0.00  0.00     0.028 H 
ENDBRANCH  93  95
BRANCH  93  99
ATOM     99  C19 non d ame      -6.037  10.185  63.035  0.00  0.00    -0.073 C 
ATOM    100  H27 non d ame      -6.136  10.758  63.958  0.00  0.00     0.028 H 
ATOM    101  H28 non d ame      -5.488   9.265  63.235  0.00  0.00     0.028 H 
ATOM    102  H29 non d ame      -5.497  10.777  62.296  0.00  0.00     0.028 H 
ENDBRANCH  93  99
ENDBRANCH  90  93
ENDBRANCH   1  90
TORSDOF 26
ENDMDL
MODEL 15
REMARK VINA RESULT:      -6.9      2.793      9.359
REMARK  26 active torsions:
REMARK  status: ('A' for Active; 'I' for Inactive)
REMARK    1  A    between atoms: C2_2  and  C3_3 
REMARK    2  A    between atoms: C4_6  and  C5_7 
REMARK       I    between atoms: C5_7  and  N2_9 
REMARK    3  A    between atoms: N2_9  and  C6_10 
REMARK    4  A    between atoms: C6_10  and  C7_11 
REMARK    5  A    between atoms: C6_10  and  C8_13 
REMARK       I    between atoms: C7_11  and  N3_14 
REMARK    6  A    between atoms: N3_14  and  C9_15 
REMARK    7  A    between atoms: C9_15  and  C10_16 
REMARK    8  A    between atoms: C9_15  and  C11_18 
REMARK       I    between atoms: C10_16  and  N4_21 
REMARK    9  A    between atoms: C11_18  and  C12_19 
REMARK   10  A    between atoms: C11_18  and  C13_20 
REMARK   11  A    between atoms: N4_21  and  C14_22 
REMARK   12  A    between atoms: C14_22  and  C15_23 
REMARK   13  A    between atoms: C14_22  and  C16_25 
REMARK       I    between atoms: C15_23  and  N6_40 
REMARK   14  A    between atoms: C16_25  and  C17_26 
REMARK   15  A    between atoms: C17_26  and  C18_27 
REMARK   16  A    between atoms: C17_26  and  C19_28 
REMARK   17  A    between atoms: C20_29  and  C21_30 
REMARK   18  A    between atoms: C20_29  and  C24_33 
REMARK   19  A    between atoms: C20_29  and  N6_40 
REMARK   20  A    between atoms: C21_30  and  C22_31 
REMARK   21  A    between atoms: C22_31  and  C23_32 
REMARK   22  A    between atoms: C23_32  and  O8_43 
REMARK   23  A    between atoms: C24_33  and  C25_34 
REMARK   24  A    between atoms: C28_38  and  O6_39 
REMARK   25  A    between atoms: C29_42  and  O8_43 
REMARK   26  A    between atoms: C29_42  and  C35_49 
ROOT
ATOM      1  C14 non d ame      -5.808  12.887  68.318  0.00  0.00     0.089 C 
ATOM      2  H20 non d ame      -4.724  12.981  68.387  0.00  0.00     0.087 H 
ENDROOT
BRANCH   1   3
ATOM      3  N4  non d ame      -6.354  14.225  68.146  0.00  0.00    -0.346 N 
ATOM      4  C10 non d ame      -5.484  15.341  67.622  0.00  0.00     0.241 C 
ATOM      5  O4  non d ame      -4.347  15.138  67.349  0.00  0.00    -0.271 OA
ATOM      6  H19 non d ame      -7.323  14.378  68.386  0.00  0.00     0.163 HD
BRANCH   4   7
ATOM      7  C9  non d ame      -6.067  16.718  67.445  0.00  0.00     0.092 C 
ATOM      8  H11 non d ame      -5.813  17.090  66.453  0.00  0.00     0.088 H 
BRANCH   7   9
ATOM      9  N3  non d ame      -7.529  16.644  67.519  0.00  0.00    -0.346 N 
ATOM     10  C7  non d ame      -8.334  17.240  66.481  0.00  0.00     0.240 C 
ATOM     11  O3  non d ame      -7.821  17.784  65.580  0.00  0.00    -0.271 OA
ATOM     12  H10 non d ame      -7.986  16.179  68.291  0.00  0.00     0.163 HD
BRANCH  10  13
ATOM     13  C6  non d ame      -9.890  17.160  66.566  0.00  0.00     0.086 C 
ATOM     14  H6  non d ame     -10.304  16.350  65.966  0.00  0.00     0.086 H 
BRANCH  13  15
ATOM     15  N2  non d ame     -10.274  16.896  67.943  0.00  0.00    -0.343 N 
ATOM     16  C5  non d ame     -11.225  15.821  68.233  0.00  0.00     0.273 C 
ATOM     17  O2  non d ame     -11.678  15.177  67.351  0.00  0.00    -0.266 OA
ATOM     18  H5  non d ame      -9.883  17.453  68.690  0.00  0.00     0.163 HD
BRANCH  16  19
ATOM     19  C4  non d ame     -11.639  15.529  69.684  0.00  0.00     0.154 A 
ATOM     20  C1  non d ame     -12.389  14.408  70.160  0.00  0.00    -0.017 A 
ATOM     21  C2  non d ame     -12.497  14.609  71.554  0.00  0.00     0.077 A 
ATOM     22  H1  non d ame     -12.793  13.576  69.583  0.00  0.00     0.091 H 
ATOM     23  O1  non d ame     -11.877  15.717  71.835  0.00  0.00    -0.218 OA
ATOM     24  N1  non d ame     -11.368  16.273  70.760  0.00  0.00    -0.123 NA
BRANCH  21  25
ATOM     25  C3  non d ame     -13.207  13.695  72.545  0.00  0.00    -0.029 C 
ATOM     26  H2  non d ame     -13.652  14.295  73.339  0.00  0.00     0.036 H 
ATOM     27  H3  non d ame     -13.989  13.138  72.028  0.00  0.00     0.036 H 
ATOM     28  H4  non d ame     -12.489  12.997  72.976  0.00  0.00     0.036 H 
ENDBRANCH  21  25
ENDBRANCH  16  19
ENDBRANCH  13  15
BRANCH  13  29
ATOM     29  C8  non d ame     -10.489  18.464  66.104  0.00  0.00    -0.049 C 
ATOM     30  H7  non d ame     -11.228  18.270  65.327  0.00  0.00     0.030 H 
ATOM     31  H8  non d ame     -10.969  18.962  66.947  0.00  0.00     0.030 H 
ATOM     32  H9  non d ame      -9.702  19.103  65.704  0.00  0.00     0.030 H 
ENDBRANCH  13  29
ENDBRANCH  10  13
ENDBRANCH   7   9
BRANCH   7  33
ATOM     33  C11 non d ame      -5.541  17.653  68.574  0.00  0.00    -0.033 C 
ATOM     34  H12 non d ame      -4.461  17.738  68.453  0.00  0.00     0.042 H 
BRANCH  33  35
ATOM     35  C12 non d ame      -6.142  19.088  68.450  0.00  0.00    -0.071 C 
ATOM     36  H13 non d ame      -6.968  19.075  67.738  0.00  0.00     0.028 H 
ATOM     37  H14 non d ame      -6.507  19.413  69.424  0.00  0.00     0.028 H 
ATOM     38  H15 non d ame      -5.372  19.775  68.102  0.00  0.00     0.028 H 
ENDBRANCH  33  35
BRANCH  33  39
ATOM     39  C13 non d ame      -5.822  17.041  69.984  0.00  0.00    -0.071 C 
ATOM     40  H16 non d ame      -6.883  16.815  70.077  0.00  0.00     0.028 H 
ATOM     41  H17 non d ame      -5.243  16.124  70.104  0.00  0.00     0.028 H 
ATOM     42  H18 non d ame      -5.533  17.756  70.754  0.00  0.00     0.028 H 
ENDBRANCH  33  39
ENDBRANCH   7  33
ENDBRANCH   4   7
ENDBRANCH   1   3
BRANCH   1  43
ATOM     43  C15 non d ame      -6.245  12.014  67.106  0.00  0.00     0.240 C 
ATOM     44  O5  non d ame      -5.469  11.778  66.238  0.00  0.00    -0.271 OA
ATOM     45  N6  non d ame      -7.630  11.467  67.033  0.00  0.00    -0.355 N 
ATOM     46  H46 non d ame      -8.296  11.657  67.767  0.00  0.00     0.162 HD
BRANCH  45  47
ATOM     47  C20 non d ame      -8.030  10.637  65.875  0.00  0.00     0.013 C 
ATOM     48  H30 non d ame      -7.386  10.900  65.036  0.00  0.00     0.072 H 
BRANCH  47  49
ATOM     49  C21 non d ame      -9.473  10.926  65.529  0.00  0.00    -0.038 C 
ATOM     50  H31 non d ame      -9.470  11.229  64.482  0.00  0.00     0.036 H 
ATOM     51  H32 non d ame     -10.032  10.043  65.840  0.00  0.00     0.036 H 
BRANCH  49  52
ATOM     52  C22 non d ame     -10.054  12.114  66.325  0.00  0.00     0.018 C 
ATOM     53  H33 non d ame      -9.536  12.109  67.284  0.00  0.00     0.048 H 
ATOM     54  H34 non d ame      -9.973  12.979  65.667  0.00  0.00     0.048 H 
BRANCH  52  55
ATOM     55  C23 non d ame     -11.566  11.967  66.655  0.00  0.00     0.259 C 
ATOM     56  O7  non d ame     -12.388  12.192  65.827  0.00  0.00    -0.265 OA
BRANCH  55  57
ATOM     57  O8  non d ame     -11.959  11.572  67.964  0.00  0.00    -0.317 OA
BRANCH  57  58
ATOM     58  C29 non d ame     -10.864  11.298  68.842  0.00  0.00     0.052 C 
ATOM     59  H47 non d ame     -10.171  10.683  68.268  0.00  0.00     0.082 H 
ATOM     60  H48 non d ame     -10.543  12.267  69.225  0.00  0.00     0.082 H 
BRANCH  58  61
ATOM     61  C35 non d ame     -11.401  10.455  70.029  0.00  0.00    -0.034 A 
ATOM     62  C30 non d ame     -12.700  10.648  70.489  0.00  0.00    -0.075 A 
ATOM     63  C31 non d ame     -13.183   9.891  71.555  0.00  0.00    -0.082 A 
ATOM     64  H49 non d ame     -13.339  11.393  70.014  0.00  0.00     0.084 H 
ATOM     65  C32 non d ame     -12.361   8.938  72.164  0.00  0.00    -0.083 A 
ATOM     66  H50 non d ame     -14.202  10.043  71.912  0.00  0.00     0.083 H 
ATOM     67  C33 non d ame     -11.064   8.751  71.703  0.00  0.00    -0.082 A 
ATOM     68  H51 non d ame     -12.730   8.341  72.997  0.00  0.00     0.083 H 
ATOM     69  C34 non d ame     -10.578   9.505  70.636  0.00  0.00    -0.075 A 
ATOM     70  H52 non d ame     -10.425   8.009  72.181  0.00  0.00     0.083 H 
ATOM     71  H53 non d ame      -9.559   9.351  70.280  0.00  0.00     0.084 H 
ENDBRANCH  58  61
ENDBRANCH  57  58
ENDBRANCH  55  57
ENDBRANCH  52  55
ENDBRANCH  49  52
ENDBRANCH  47  49
BRANCH  47  72
ATOM     72  C24 non d ame      -7.874   9.158  66.221  0.00  0.00    -0.039 C 
ATOM     73  H35 non d ame      -7.112   9.121  67.000  0.00  0.00     0.036 H 
ATOM     74  H36 non d ame      -8.883   8.801  66.428  0.00  0.00     0.036 H 
BRANCH  72  75
ATOM     75  C25 non d ame      -7.319   8.314  64.978  0.00  0.00    -0.001 C 
ATOM     76  C26 non d ame      -7.058   9.311  63.696  0.00  0.00    -0.035 C 
ATOM     77  C27 non d ame      -7.678   8.794  62.608  0.00  0.00     0.085 C 
ATOM     78  H38 non d ame      -7.567  10.262  63.852  0.00  0.00     0.036 H 
ATOM     79  H39 non d ame      -6.003   9.296  63.420  0.00  0.00     0.036 H 
ATOM     80  N5  non d ame      -8.608   7.713  63.102  0.00  0.00    -0.049 N 
ATOM     81  H40 non d ame      -8.270   9.612  62.195  0.00  0.00     0.075 H 
ATOM     82  H41 non d ame      -6.888   8.339  62.012  0.00  0.00     0.075 H 
ATOM     83  C28 non d ame      -8.159   7.401  64.621  0.00  0.00     0.193 C 
ATOM     84  H42 non d ame      -9.534   8.116  63.116  0.00  0.00     0.280 HD
ATOM     85  H43 non d ame      -8.421   6.896  62.537  0.00  0.00     0.280 HD
ATOM     86  H44 non d ame      -7.587   6.503  64.856  0.00  0.00     0.129 H 
ATOM     87  H37 non d ame      -6.505   7.647  65.261  0.00  0.00     0.046 H 
BRANCH  83  88
ATOM     88  O6  non d ame      -9.304   7.358  65.474  0.00  0.00    -0.369 OA
ATOM     89  H45 non d ame      -9.434   8.219  65.877  0.00  0.00     0.212 HD
ENDBRANCH  83  88
ENDBRANCH  72  75
ENDBRANCH  47  72
ENDBRANCH  45  47
ENDBRANCH   1  43
BRANCH   1  90
ATOM     90  C16 non d ame      -6.357  12.289  69.603  0.00  0.00    -0.035 C 
ATOM     91  H21 non d ame      -6.040  12.967  70.396  0.00  0.00     0.037 H 
ATOM     92  H22 non d ame      -7.419  12.128  69.416  0.00  0.00     0.037 H 
BRANCH  90  93
ATOM     93  C17 non d ame      -5.754  10.891  69.951  0.00  0.00    -0.059 C 
ATOM     94  H23 non d ame      -5.200  10.543  69.079  0.00  0.00     0.038 H 
BRANCH  93  95
ATOM     95  C18 non d ame      -4.756  10.962  71.151  0.00  0.00    -0.073 C 
ATOM     96  H24 non d ame      -4.496   9.952  71.468  0.00  0.00     0.028 H 
ATOM     97  H25 non d ame      -3.854  11.490  70.843  0.00  0.00     0.028 H 
ATOM     98  H26 non d ame      -5.223  11.494  71.980  0.00  0.00     0.028 H 
ENDBRANCH  93  95
BRANCH  93  99
ATOM     99  C19 non d ame      -6.861   9.870  70.223  0.00  0.00    -0.073 C 
ATOM    100  H27 non d ame      -7.572  10.286  70.937  0.00  0.00     0.028 H 
ATOM    101  H28 non d ame      -7.376   9.636  69.291  0.00  0.00     0.028 H 
ATOM    102  H29 non d ame      -6.424   8.960  70.635  0.00  0.00     0.028 H 
ENDBRANCH  93  99
ENDBRANCH  90  93
ENDBRANCH   1  90
TORSDOF 26
ENDMDL
