MODEL 1
REMARK VINA RESULT:      -7.1      0.000      0.000
REMARK  26 active torsions:
REMARK  status: ('A' for Active; 'I' for Inactive)
REMARK    1  A    between atoms: C2_2  and  C3_3 
REMARK    2  A    between atoms: C4_6  and  C5_7 
REMARK       I    between atoms: C5_7  and  N2_9 
REMARK    3  A    between atoms: N2_9  and  C6_10 
REMARK    4  A    between atoms: C6_10  and  C7_11 
REMARK    5  A    between atoms: C6_10  and  C8_13 
REMARK       I    between atoms: C7_11  and  N3_14 
REMARK    6  A    between atoms: N3_14  and  C9_15 
REMARK    7  A    between atoms: C9_15  and  C10_16 
REMARK    8  A    between atoms: C9_15  and  C11_18 
REMARK       I    between atoms: C10_16  and  N4_21 
REMARK    9  A    between atoms: C11_18  and  C12_19 
REMARK   10  A    between atoms: C11_18  and  C13_20 
REMARK   11  A    between atoms: N4_21  and  C14_22 
REMARK   12  A    between atoms: C14_22  and  C15_23 
REMARK   13  A    between atoms: C14_22  and  C16_25 
REMARK       I    between atoms: C15_23  and  N6_40 
REMARK   14  A    between atoms: C16_25  and  C17_26 
REMARK   15  A    between atoms: C17_26  and  C18_27 
REMARK   16  A    between atoms: C17_26  and  C19_28 
REMARK   17  A    between atoms: C20_29  and  C21_30 
REMARK   18  A    between atoms: C20_29  and  C24_33 
REMARK   19  A    between atoms: C20_29  and  N6_40 
REMARK   20  A    between atoms: C21_30  and  C22_31 
REMARK   21  A    between atoms: C22_31  and  C23_32 
REMARK   22  A    between atoms: C23_32  and  O8_43 
REMARK   23  A    between atoms: C24_33  and  C25_34 
REMARK   24  A    between atoms: C28_38  and  O6_39 
REMARK   25  A    between atoms: C29_42  and  O8_43 
REMARK   26  A    between atoms: C29_42  and  C35_49 
ROOT
ATOM      1  C14 non d ame     -11.854  14.216  69.780  0.00  0.00     0.089 C 
ATOM      2  H20 non d ame     -12.852  13.787  69.692  0.00  0.00     0.087 H 
ENDROOT
BRANCH   1   3
ATOM      3  N4  non d ame     -10.896  13.133  69.614  0.00  0.00    -0.346 N 
ATOM      4  C10 non d ame     -11.175  12.010  68.647  0.00  0.00     0.241 C 
ATOM      5  O4  non d ame     -12.179  11.999  68.014  0.00  0.00    -0.271 OA
ATOM      6  H19 non d ame     -10.049  13.160  70.164  0.00  0.00     0.163 HD
BRANCH   4   7
ATOM      7  C9  non d ame     -10.170  10.900  68.484  0.00  0.00     0.092 C 
ATOM      8  H11 non d ame      -9.929  10.787  67.427  0.00  0.00     0.088 H 
BRANCH   7   9
ATOM      9  N3  non d ame      -8.928  11.260  69.175  0.00  0.00    -0.346 N 
ATOM     10  C7  non d ame      -7.758  11.621  68.413  0.00  0.00     0.240 C 
ATOM     11  O3  non d ame      -7.798  11.625  67.243  0.00  0.00    -0.271 OA
ATOM     12  H10 non d ame      -8.878  11.259  70.184  0.00  0.00     0.163 HD
BRANCH  10  13
ATOM     13  C6  non d ame      -6.438  11.999  69.154  0.00  0.00     0.086 C 
ATOM     14  H6  non d ame      -5.558  11.919  68.516  0.00  0.00     0.086 H 
BRANCH  13  15
ATOM     15  N2  non d ame      -6.518  13.387  69.580  0.00  0.00    -0.343 N 
ATOM     16  C5  non d ame      -5.314  14.220  69.553  0.00  0.00     0.273 C 
ATOM     17  O2  non d ame      -4.285  13.764  69.191  0.00  0.00    -0.266 OA
ATOM     18  H5  non d ame      -7.400  13.768  69.890  0.00  0.00     0.163 HD
BRANCH  16  19
ATOM     19  C4  non d ame      -5.384  15.689  69.999  0.00  0.00     0.154 A 
ATOM     20  C1  non d ame      -5.916  16.792  69.259  0.00  0.00    -0.017 A 
ATOM     21  C2  non d ame      -5.745  17.912  70.103  0.00  0.00     0.077 A 
ATOM     22  H1  non d ame      -6.358  16.782  68.263  0.00  0.00     0.091 H 
ATOM     23  O1  non d ame      -5.181  17.490  71.197  0.00  0.00    -0.218 OA
ATOM     24  N1  non d ame      -4.960  16.196  71.160  0.00  0.00    -0.123 NA
BRANCH  21  25
ATOM     25  C3  non d ame      -6.147  19.347  69.790  0.00  0.00    -0.029 C 
ATOM     26  H2  non d ame      -5.802  20.004  70.589  0.00  0.00     0.036 H 
ATOM     27  H3  non d ame      -5.695  19.653  68.847  0.00  0.00     0.036 H 
ATOM     28  H4  non d ame      -7.233  19.411  69.711  0.00  0.00     0.036 H 
ENDBRANCH  21  25
ENDBRANCH  16  19
ENDBRANCH  13  15
BRANCH  13  29
ATOM     29  C8  non d ame      -6.255  11.102  70.351  0.00  0.00    -0.049 C 
ATOM     30  H7  non d ame      -5.836  11.677  71.177  0.00  0.00     0.030 H 
ATOM     31  H8  non d ame      -7.220  10.691  70.648  0.00  0.00     0.030 H 
ATOM     32  H9  non d ame      -5.577  10.288  70.095  0.00  0.00     0.030 H 
ENDBRANCH  13  29
ENDBRANCH  10  13
ENDBRANCH   7   9
BRANCH   7  33
ATOM     33  C11 non d ame     -10.741   9.589  69.099  0.00  0.00    -0.033 C 
ATOM     34  H12 non d ame     -11.631   9.320  68.530  0.00  0.00     0.042 H 
BRANCH  33  35
ATOM     35  C12 non d ame      -9.727   8.411  68.968  0.00  0.00    -0.071 C 
ATOM     36  H13 non d ame     -10.110   7.678  68.258  0.00  0.00     0.028 H 
ATOM     37  H14 non d ame      -8.770   8.793  68.613  0.00  0.00     0.028 H 
ATOM     38  H15 non d ame      -9.591   7.939  69.941  0.00  0.00     0.028 H 
ENDBRANCH  33  35
BRANCH  33  39
ATOM     39  C13 non d ame     -11.167   9.808  70.586  0.00  0.00    -0.071 C 
ATOM     40  H16 non d ame     -10.282   9.992  71.194  0.00  0.00     0.028 H 
ATOM     41  H17 non d ame     -11.836  10.666  70.650  0.00  0.00     0.028 H 
ATOM     42  H18 non d ame     -11.681   8.919  70.951  0.00  0.00     0.028 H 
ENDBRANCH  33  39
ENDBRANCH   7  33
ENDBRANCH   4   7
ENDBRANCH   1   3
BRANCH   1  43
ATOM     43  C15 non d ame     -11.578  15.291  68.690  0.00  0.00     0.240 C 
ATOM     44  O5  non d ame     -11.989  16.397  68.834  0.00  0.00    -0.271 OA
ATOM     45  N6  non d ame     -10.795  14.944  67.469  0.00  0.00    -0.355 N 
ATOM     46  H46 non d ame     -10.438  14.009  67.338  0.00  0.00     0.162 HD
BRANCH  45  47
ATOM     47  C20 non d ame     -10.541  15.978  66.443  0.00  0.00     0.013 C 
ATOM     48  H30 non d ame     -11.220  16.810  66.630  0.00  0.00     0.072 H 
BRANCH  47  49
ATOM     49  C21 non d ame     -10.802  15.396  65.072  0.00  0.00    -0.038 C 
ATOM     50  H31 non d ame     -11.047  16.245  64.433  0.00  0.00     0.036 H 
ATOM     51  H32 non d ame      -9.935  14.775  64.846  0.00  0.00     0.036 H 
BRANCH  49  52
ATOM     52  C22 non d ame     -12.030  14.459  65.043  0.00  0.00     0.018 C 
ATOM     53  H33 non d ame     -12.317  14.316  66.085  0.00  0.00     0.048 H 
ATOM     54  H34 non d ame     -12.731  14.913  64.342  0.00  0.00     0.048 H 
BRANCH  52  55
ATOM     55  C23 non d ame     -11.722  13.042  64.484  0.00  0.00     0.259 C 
ATOM     56  O7  non d ame     -12.607  12.301  64.199  0.00  0.00    -0.265 OA
BRANCH  55  57
ATOM     57  O8  non d ame     -10.369  12.632  64.329  0.00  0.00    -0.317 OA
BRANCH  57  58
ATOM     58  C29 non d ame     -10.147  11.767  63.212  0.00  0.00     0.052 C 
ATOM     59  H47 non d ame     -11.138  11.481  62.859  0.00  0.00     0.082 H 
ATOM     60  H48 non d ame      -9.468  12.306  62.552  0.00  0.00     0.082 H 
BRANCH  58  61
ATOM     61  C35 non d ame      -9.424  10.495  63.728  0.00  0.00    -0.034 A 
ATOM     62  C30 non d ame      -9.783   9.937  64.951  0.00  0.00    -0.075 A 
ATOM     63  C31 non d ame      -9.134   8.794  65.415  0.00  0.00    -0.082 A 
ATOM     64  H49 non d ame     -10.574  10.394  65.545  0.00  0.00     0.084 H 
ATOM     65  C32 non d ame      -8.119   8.210  64.652  0.00  0.00    -0.083 A 
ATOM     66  H50 non d ame      -9.419   8.358  66.372  0.00  0.00     0.083 H 
ATOM     67  C33 non d ame      -7.761   8.772  63.434  0.00  0.00    -0.082 A 
ATOM     68  H51 non d ame      -7.606   7.316  65.007  0.00  0.00     0.083 H 
ATOM     69  C34 non d ame      -8.409   9.913  62.966  0.00  0.00    -0.075 A 
ATOM     70  H52 non d ame      -6.968   8.315  62.842  0.00  0.00     0.083 H 
ATOM     71  H53 non d ame      -8.124  10.348  62.007  0.00  0.00     0.084 H 
ENDBRANCH  58  61
ENDBRANCH  57  58
ENDBRANCH  55  57
ENDBRANCH  52  55
ENDBRANCH  49  52
ENDBRANCH  47  49
BRANCH  47  72
ATOM     72  C24 non d ame      -9.090  16.446  66.530  0.00  0.00    -0.039 C 
ATOM     73  H35 non d ame      -8.598  15.743  67.203  0.00  0.00     0.036 H 
ATOM     74  H36 non d ame      -8.753  16.539  65.498  0.00  0.00     0.036 H 
BRANCH  72  75
ATOM     75  C25 non d ame      -8.975  17.898  67.198  0.00  0.00    -0.001 C 
ATOM     76  C26 non d ame     -10.408  18.692  67.061  0.00  0.00    -0.035 C 
ATOM     77  C27 non d ame     -10.180  19.915  66.527  0.00  0.00     0.085 C 
ATOM     78  H38 non d ame     -11.037  18.203  66.319  0.00  0.00     0.036 H 
ATOM     79  H39 non d ame     -10.807  18.917  68.051  0.00  0.00     0.036 H 
ATOM     80  N5  non d ame      -8.771  19.904  65.984  0.00  0.00    -0.049 N 
ATOM     81  H40 non d ame     -10.880  20.006  65.696  0.00  0.00     0.075 H 
ATOM     82  H41 non d ame     -10.233  20.613  67.362  0.00  0.00     0.075 H 
ATOM     83  C28 non d ame      -8.059  18.605  66.624  0.00  0.00     0.193 C 
ATOM     84  H42 non d ame      -8.850  19.769  64.986  0.00  0.00     0.280 HD
ATOM     85  H43 non d ame      -8.318  20.731  66.347  0.00  0.00     0.280 HD
ATOM     86  H44 non d ame      -7.348  18.710  67.444  0.00  0.00     0.129 H 
ATOM     87  H37 non d ame      -8.520  17.862  68.188  0.00  0.00     0.046 H 
BRANCH  83  88
ATOM     88  O6  non d ame      -7.368  17.872  65.611  0.00  0.00    -0.369 OA
ATOM     89  H45 non d ame      -7.001  18.483  64.968  0.00  0.00     0.212 HD
ENDBRANCH  83  88
ENDBRANCH  72  75
ENDBRANCH  47  72
ENDBRANCH  45  47
ENDBRANCH   1  43
BRANCH   1  90
ATOM     90  C16 non d ame     -11.675  14.829  71.159  0.00  0.00    -0.035 C 
ATOM     91  H21 non d ame     -10.937  14.203  71.660  0.00  0.00     0.037 H 
ATOM     92  H22 non d ame     -11.465  15.884  70.981  0.00  0.00     0.037 H 
BRANCH  90  93
ATOM     93  C17 non d ame     -12.965  14.779  72.038  0.00  0.00    -0.059 C 
ATOM     94  H23 non d ame     -13.721  15.397  71.553  0.00  0.00     0.038 H 
BRANCH  93  95
ATOM     95  C18 non d ame     -13.540  13.331  72.159  0.00  0.00    -0.073 C 
ATOM     96  H24 non d ame     -13.821  13.138  73.195  0.00  0.00     0.028 H 
ATOM     97  H25 non d ame     -14.419  13.235  71.521  0.00  0.00     0.028 H 
ATOM     98  H26 non d ame     -12.783  12.613  71.847  0.00  0.00     0.028 H 
ENDBRANCH  93  95
BRANCH  93  99
ATOM     99  C19 non d ame     -12.707  15.380  73.423  0.00  0.00    -0.073 C 
ATOM    100  H27 non d ame     -12.848  14.612  74.184  0.00  0.00     0.028 H 
ATOM    101  H28 non d ame     -11.685  15.756  73.470  0.00  0.00     0.028 H 
ATOM    102  H29 non d ame     -13.404  16.199  73.599  0.00  0.00     0.028 H 
ENDBRANCH  93  99
ENDBRANCH  90  93
ENDBRANCH   1  90
TORSDOF 26
ENDMDL
MODEL 2
REMARK VINA RESULT:      -6.8      3.480      8.724
REMARK  26 active torsions:
REMARK  status: ('A' for Active; 'I' for Inactive)
REMARK    1  A    between atoms: C2_2  and  C3_3 
REMARK    2  A    between atoms: C4_6  and  C5_7 
REMARK       I    between atoms: C5_7  and  N2_9 
REMARK    3  A    between atoms: N2_9  and  C6_10 
REMARK    4  A    between atoms: C6_10  and  C7_11 
REMARK    5  A    between atoms: C6_10  and  C8_13 
REMARK       I    between atoms: C7_11  and  N3_14 
REMARK    6  A    between atoms: N3_14  and  C9_15 
REMARK    7  A    between atoms: C9_15  and  C10_16 
REMARK    8  A    between atoms: C9_15  and  C11_18 
REMARK       I    between atoms: C10_16  and  N4_21 
REMARK    9  A    between atoms: C11_18  and  C12_19 
REMARK   10  A    between atoms: C11_18  and  C13_20 
REMARK   11  A    between atoms: N4_21  and  C14_22 
REMARK   12  A    between atoms: C14_22  and  C15_23 
REMARK   13  A    between atoms: C14_22  and  C16_25 
REMARK       I    between atoms: C15_23  and  N6_40 
REMARK   14  A    between atoms: C16_25  and  C17_26 
REMARK   15  A    between atoms: C17_26  and  C18_27 
REMARK   16  A    between atoms: C17_26  and  C19_28 
REMARK   17  A    between atoms: C20_29  and  C21_30 
REMARK   18  A    between atoms: C20_29  and  C24_33 
REMARK   19  A    between atoms: C20_29  and  N6_40 
REMARK   20  A    between atoms: C21_30  and  C22_31 
REMARK   21  A    between atoms: C22_31  and  C23_32 
REMARK   22  A    between atoms: C23_32  and  O8_43 
REMARK   23  A    between atoms: C24_33  and  C25_34 
REMARK   24  A    between atoms: C28_38  and  O6_39 
REMARK   25  A    between atoms: C29_42  and  O8_43 
REMARK   26  A    between atoms: C29_42  and  C35_49 
ROOT
ATOM      1  C14 non d ame     -10.216  10.208  68.453  0.00  0.00     0.089 C 
ATOM      2  H20 non d ame     -10.668   9.233  68.270  0.00  0.00     0.087 H 
ENDROOT
BRANCH   1   3
ATOM      3  N4  non d ame      -9.353  10.509  67.320  0.00  0.00    -0.346 N 
ATOM      4  C10 non d ame      -9.559   9.813  65.999  0.00  0.00     0.241 C 
ATOM      5  O4  non d ame     -10.425   9.011  65.872  0.00  0.00    -0.271 OA
ATOM      6  H19 non d ame      -8.620  11.193  67.450  0.00  0.00     0.163 HD
BRANCH   4   7
ATOM      7  C9  non d ame      -8.660  10.141  64.836  0.00  0.00     0.092 C 
ATOM      8  H11 non d ame      -7.922  10.879  65.150  0.00  0.00     0.088 H 
BRANCH   7   9
ATOM      9  N3  non d ame      -7.925   8.939  64.432  0.00  0.00    -0.346 N 
ATOM     10  C7  non d ame      -6.484   8.964  64.364  0.00  0.00     0.240 C 
ATOM     11  O3  non d ame      -5.901   9.943  64.630  0.00  0.00    -0.271 OA
ATOM     12  H10 non d ame      -8.415   8.087  64.198  0.00  0.00     0.163 HD
BRANCH  10  13
ATOM     13  C6  non d ame      -5.708   7.682  63.929  0.00  0.00     0.086 C 
ATOM     14  H6  non d ame      -5.415   7.060  64.775  0.00  0.00     0.086 H 
BRANCH  13  15
ATOM     15  N2  non d ame      -6.574   6.867  63.093  0.00  0.00    -0.343 N 
ATOM     16  C5  non d ame      -7.454   5.876  63.716  0.00  0.00     0.273 C 
ATOM     17  O2  non d ame      -7.456   5.740  64.891  0.00  0.00    -0.266 OA
ATOM     18  H5  non d ame      -6.563   6.988  62.090  0.00  0.00     0.163 HD
BRANCH  16  19
ATOM     19  C4  non d ame      -8.376   5.009  62.845  0.00  0.00     0.154 A 
ATOM     20  C1  non d ame      -9.523   4.268  63.271  0.00  0.00    -0.017 A 
ATOM     21  C2  non d ame     -10.012   3.649  62.099  0.00  0.00     0.077 A 
ATOM     22  H1  non d ame      -9.937   4.190  64.277  0.00  0.00     0.091 H 
ATOM     23  O1  non d ame      -9.231   4.001  61.120  0.00  0.00    -0.218 OA
ATOM     24  N1  non d ame      -8.269   4.794  61.531  0.00  0.00    -0.123 NA
BRANCH  21  25
ATOM     25  C3  non d ame     -11.230   2.739  62.001  0.00  0.00    -0.029 C 
ATOM     26  H2  non d ame     -11.003   1.777  62.462  0.00  0.00     0.036 H 
ATOM     27  H3  non d ame     -12.071   3.201  62.518  0.00  0.00     0.036 H 
ATOM     28  H4  non d ame     -11.487   2.587  60.952  0.00  0.00     0.036 H 
ENDBRANCH  21  25
ENDBRANCH  16  19
ENDBRANCH  13  15
BRANCH  13  29
ATOM     29  C8  non d ame      -4.471   8.075  63.163  0.00  0.00    -0.049 C 
ATOM     30  H7  non d ame      -3.857   8.734  63.777  0.00  0.00     0.030 H 
ATOM     31  H8  non d ame      -3.902   7.182  62.907  0.00  0.00     0.030 H 
ATOM     32  H9  non d ame      -4.760   8.596  62.250  0.00  0.00     0.030 H 
ENDBRANCH  13  29
ENDBRANCH  10  13
ENDBRANCH   7   9
BRANCH   7  33
ATOM     33  C11 non d ame      -9.521  10.646  63.641  0.00  0.00    -0.033 C 
ATOM     34  H12 non d ame     -10.231   9.858  63.392  0.00  0.00     0.042 H 
BRANCH  33  35
ATOM     35  C12 non d ame     -10.343  11.914  64.029  0.00  0.00    -0.071 C 
ATOM     36  H13 non d ame     -10.944  12.232  63.177  0.00  0.00     0.028 H 
ATOM     37  H14 non d ame     -10.998  11.679  64.868  0.00  0.00     0.028 H 
ATOM     38  H15 non d ame      -9.662  12.716  64.313  0.00  0.00     0.028 H 
ENDBRANCH  33  35
BRANCH  33  39
ATOM     39  C13 non d ame      -8.632  10.910  62.384  0.00  0.00    -0.071 C 
ATOM     40  H16 non d ame      -7.811  11.575  62.652  0.00  0.00     0.028 H 
ATOM     41  H17 non d ame      -8.229   9.965  62.018  0.00  0.00     0.028 H 
ATOM     42  H18 non d ame      -9.235  11.374  61.604  0.00  0.00     0.028 H 
ENDBRANCH  33  39
ENDBRANCH   7  33
ENDBRANCH   4   7
ENDBRANCH   1   3
BRANCH   1  43
ATOM     43  C15 non d ame     -11.280  11.336  68.578  0.00  0.00     0.240 C 
ATOM     44  O5  non d ame     -12.259  11.302  67.905  0.00  0.00    -0.271 OA
ATOM     45  N6  non d ame     -11.083  12.454  69.543  0.00  0.00    -0.355 N 
ATOM     46  H46 non d ame     -10.258  12.492  70.124  0.00  0.00     0.162 HD
BRANCH  45  47
ATOM     47  C20 non d ame     -12.105  13.518  69.651  0.00  0.00     0.013 C 
ATOM     48  H30 non d ame     -12.956  13.229  69.035  0.00  0.00     0.072 H 
BRANCH  47  49
ATOM     49  C21 non d ame     -11.524  14.821  69.152  0.00  0.00    -0.038 C 
ATOM     50  H31 non d ame     -12.006  15.010  68.192  0.00  0.00     0.036 H 
ATOM     51  H32 non d ame     -11.645  15.530  69.971  0.00  0.00     0.036 H 
BRANCH  49  52
ATOM     52  C22 non d ame     -10.009  14.733  68.870  0.00  0.00     0.018 C 
ATOM     53  H33 non d ame      -9.612  15.729  69.072  0.00  0.00     0.048 H 
ATOM     54  H34 non d ame      -9.651  13.878  69.443  0.00  0.00     0.048 H 
BRANCH  52  55
ATOM     55  C23 non d ame      -9.665  14.428  67.385  0.00  0.00     0.259 C 
ATOM     56  O7  non d ame      -9.116  13.416  67.089  0.00  0.00    -0.265 OA
BRANCH  55  57
ATOM     57  O8  non d ame     -10.001  15.379  66.382  0.00  0.00    -0.317 OA
BRANCH  57  58
ATOM     58  C29 non d ame      -8.960  16.319  66.098  0.00  0.00     0.052 C 
ATOM     59  H47 non d ame      -8.073  15.938  66.604  0.00  0.00     0.082 H 
ATOM     60  H48 non d ame      -8.960  16.440  65.015  0.00  0.00     0.082 H 
BRANCH  58  61
ATOM     61  C35 non d ame      -9.350  17.675  66.744  0.00  0.00    -0.034 A 
ATOM     62  C30 non d ame      -8.781  18.060  67.953  0.00  0.00    -0.075 A 
ATOM     63  C31 non d ame      -9.131  19.278  68.534  0.00  0.00    -0.082 A 
ATOM     64  H49 non d ame      -8.059  17.408  68.446  0.00  0.00     0.084 H 
ATOM     65  C32 non d ame     -10.057  20.112  67.901  0.00  0.00    -0.083 A 
ATOM     66  H50 non d ame      -8.681  19.578  69.480  0.00  0.00     0.083 H 
ATOM     67  C33 non d ame     -10.626  19.722  66.696  0.00  0.00    -0.082 A 
ATOM     68  H51 non d ame     -10.336  21.066  68.348  0.00  0.00     0.083 H 
ATOM     69  C34 non d ame     -10.277  18.506  66.112  0.00  0.00    -0.075 A 
ATOM     70  H52 non d ame     -11.350  20.373  66.206  0.00  0.00     0.083 H 
ATOM     71  H53 non d ame     -10.727  18.207  65.164  0.00  0.00     0.084 H 
ENDBRANCH  58  61
ENDBRANCH  57  58
ENDBRANCH  55  57
ENDBRANCH  52  55
ENDBRANCH  49  52
ENDBRANCH  47  49
BRANCH  47  72
ATOM     72  C24 non d ame     -12.534  13.676  71.109  0.00  0.00    -0.039 C 
ATOM     73  H35 non d ame     -13.504  13.184  71.181  0.00  0.00     0.036 H 
ATOM     74  H36 non d ame     -11.693  13.312  71.700  0.00  0.00     0.036 H 
BRANCH  72  75
ATOM     75  C25 non d ame     -12.754  15.214  71.498  0.00  0.00    -0.001 C 
ATOM     76  C26 non d ame     -11.728  15.638  72.711  0.00  0.00    -0.035 C 
ATOM     77  C27 non d ame     -12.441  16.224  73.702  0.00  0.00     0.085 C 
ATOM     78  H38 non d ame     -11.320  14.745  73.184  0.00  0.00     0.036 H 
ATOM     79  H39 non d ame     -11.059  16.430  72.375  0.00  0.00     0.036 H 
ATOM     80  N5  non d ame     -13.898  15.946  73.421  0.00  0.00    -0.049 N 
ATOM     81  H40 non d ame     -12.150  15.707  74.616  0.00  0.00     0.075 H 
ATOM     82  H41 non d ame     -12.258  17.293  73.598  0.00  0.00     0.075 H 
ATOM     83  C28 non d ame     -13.965  15.428  71.893  0.00  0.00     0.193 C 
ATOM     84  H42 non d ame     -14.167  15.186  74.030  0.00  0.00     0.280 HD
ATOM     85  H43 non d ame     -14.376  16.834  73.480  0.00  0.00     0.280 HD
ATOM     86  H44 non d ame     -14.319  16.086  71.100  0.00  0.00     0.129 H 
ATOM     87  H37 non d ame     -12.781  15.862  70.622  0.00  0.00     0.046 H 
BRANCH  83  88
ATOM     88  O6  non d ame     -14.775  14.254  71.806  0.00  0.00    -0.369 OA
ATOM     89  H45 non d ame     -14.212  13.485  71.694  0.00  0.00     0.212 HD
ENDBRANCH  83  88
ENDBRANCH  72  75
ENDBRANCH  47  72
ENDBRANCH  45  47
ENDBRANCH   1  43
BRANCH   1  90
ATOM     90  C16 non d ame      -9.375  10.157  69.718  0.00  0.00    -0.035 C 
ATOM     91  H21 non d ame      -8.344  10.055  69.376  0.00  0.00     0.037 H 
ATOM     92  H22 non d ame      -9.672  11.031  70.298  0.00  0.00     0.037 H 
BRANCH  90  93
ATOM     93  C17 non d ame      -9.667   8.912  70.615  0.00  0.00    -0.059 C 
ATOM     94  H23 non d ame      -8.776   8.717  71.211  0.00  0.00     0.038 H 
BRANCH  93  95
ATOM     95  C18 non d ame     -10.854   9.161  71.600  0.00  0.00    -0.073 C 
ATOM     96  H24 non d ame     -11.449  10.003  71.246  0.00  0.00     0.028 H 
ATOM     97  H25 non d ame     -11.478   8.269  71.649  0.00  0.00     0.028 H 
ATOM     98  H26 non d ame     -10.461   9.386  72.592  0.00  0.00     0.028 H 
ENDBRANCH  93  95
BRANCH  93  99
ATOM     99  C19 non d ame      -9.922   7.669  69.758  0.00  0.00    -0.073 C 
ATOM    100  H27 non d ame     -10.528   7.942  68.893  0.00  0.00     0.028 H 
ATOM    101  H28 non d ame      -8.970   7.259  69.421  0.00  0.00     0.028 H 
ATOM    102  H29 non d ame     -10.450   6.922  70.351  0.00  0.00     0.028 H 
ENDBRANCH  93  99
ENDBRANCH  90  93
ENDBRANCH   1  90
TORSDOF 26
ENDMDL
MODEL 3
REMARK VINA RESULT:      -6.8      3.455      8.155
REMARK  26 active torsions:
REMARK  status: ('A' for Active; 'I' for Inactive)
REMARK    1  A    between atoms: C2_2  and  C3_3 
REMARK    2  A    between atoms: C4_6  and  C5_7 
REMARK       I    between atoms: C5_7  and  N2_9 
REMARK    3  A    between atoms: N2_9  and  C6_10 
REMARK    4  A    between atoms: C6_10  and  C7_11 
REMARK    5  A    between atoms: C6_10  and  C8_13 
REMARK       I    between atoms: C7_11  and  N3_14 
REMARK    6  A    between atoms: N3_14  and  C9_15 
REMARK    7  A    between atoms: C9_15  and  C10_16 
REMARK    8  A    between atoms: C9_15  and  C11_18 
REMARK       I    between atoms: C10_16  and  N4_21 
REMARK    9  A    between atoms: C11_18  and  C12_19 
REMARK   10  A    between atoms: C11_18  and  C13_20 
REMARK   11  A    between atoms: N4_21  and  C14_22 
REMARK   12  A    between atoms: C14_22  and  C15_23 
REMARK   13  A    between atoms: C14_22  and  C16_25 
REMARK       I    between atoms: C15_23  and  N6_40 
REMARK   14  A    between atoms: C16_25  and  C17_26 
REMARK   15  A    between atoms: C17_26  and  C18_27 
REMARK   16  A    between atoms: C17_26  and  C19_28 
REMARK   17  A    between atoms: C20_29  and  C21_30 
REMARK   18  A    between atoms: C20_29  and  C24_33 
REMARK   19  A    between atoms: C20_29  and  N6_40 
REMARK   20  A    between atoms: C21_30  and  C22_31 
REMARK   21  A    between atoms: C22_31  and  C23_32 
REMARK   22  A    between atoms: C23_32  and  O8_43 
REMARK   23  A    between atoms: C24_33  and  C25_34 
REMARK   24  A    between atoms: C28_38  and  O6_39 
REMARK   25  A    between atoms: C29_42  and  O8_43 
REMARK   26  A    between atoms: C29_42  and  C35_49 
ROOT
ATOM      1  C14 non d ame     -10.070  10.312  68.554  0.00  0.00     0.089 C 
ATOM      2  H20 non d ame      -9.360  10.403  69.376  0.00  0.00     0.087 H 
ENDROOT
BRANCH   1   3
ATOM      3  N4  non d ame     -10.649   8.979  68.620  0.00  0.00    -0.346 N 
ATOM      4  C10 non d ame      -9.942   7.877  69.369  0.00  0.00     0.241 C 
ATOM      5  O4  non d ame      -8.905   8.088  69.908  0.00  0.00    -0.271 OA
ATOM      6  H19 non d ame     -11.531   8.819  68.153  0.00  0.00     0.163 HD
BRANCH   4   7
ATOM      7  C9  non d ame     -10.558   6.505  69.433  0.00  0.00     0.092 C 
ATOM      8  H11 non d ame     -11.617   6.575  69.182  0.00  0.00     0.088 H 
BRANCH   7   9
ATOM      9  N3  non d ame      -9.931   5.640  68.429  0.00  0.00    -0.346 N 
ATOM     10  C7  non d ame     -10.326   5.739  67.045  0.00  0.00     0.240 C 
ATOM     11  O3  non d ame     -11.147   6.509  66.722  0.00  0.00    -0.271 OA
ATOM     12  H10 non d ame      -9.223   4.970  68.693  0.00  0.00     0.163 HD
BRANCH  10  13
ATOM     13  C6  non d ame      -9.657   4.814  65.982  0.00  0.00     0.086 C 
ATOM     14  H6  non d ame     -10.280   4.666  65.100  0.00  0.00     0.086 H 
BRANCH  13  15
ATOM     15  N2  non d ame      -8.427   5.437  65.521  0.00  0.00    -0.343 N 
ATOM     16  C5  non d ame      -8.145   5.502  64.086  0.00  0.00     0.273 C 
ATOM     17  O2  non d ame      -8.912   5.047  63.310  0.00  0.00    -0.266 OA
ATOM     18  H5  non d ame      -7.776   5.821  66.192  0.00  0.00     0.163 HD
BRANCH  16  19
ATOM     19  C4  non d ame      -6.849   6.159  63.585  0.00  0.00     0.154 A 
ATOM     20  C1  non d ame      -6.542   7.556  63.559  0.00  0.00    -0.017 A 
ATOM     21  C2  non d ame      -5.242   7.633  63.013  0.00  0.00     0.077 A 
ATOM     22  H1  non d ame      -7.167   8.387  63.887  0.00  0.00     0.091 H 
ATOM     23  O1  non d ame      -4.856   6.417  62.760  0.00  0.00    -0.218 OA
ATOM     24  N1  non d ame      -5.777   5.539  63.084  0.00  0.00    -0.123 NA
BRANCH  21  25
ATOM     25  C3  non d ame      -4.440   8.905  62.768  0.00  0.00    -0.029 C 
ATOM     26  H2  non d ame      -5.092   9.772  62.875  0.00  0.00     0.036 H 
ATOM     27  H3  non d ame      -3.629   8.968  63.493  0.00  0.00     0.036 H 
ATOM     28  H4  non d ame      -4.025   8.884  61.760  0.00  0.00     0.036 H 
ENDBRANCH  21  25
ENDBRANCH  16  19
ENDBRANCH  13  15
BRANCH  13  29
ATOM     29  C8  non d ame      -9.357   3.471  66.597  0.00  0.00    -0.049 C 
ATOM     30  H7  non d ame      -9.475   2.691  65.845  0.00  0.00     0.030 H 
ATOM     31  H8  non d ame      -8.333   3.464  66.971  0.00  0.00     0.030 H 
ATOM     32  H9  non d ame     -10.046   3.287  67.421  0.00  0.00     0.030 H 
ENDBRANCH  13  29
ENDBRANCH  10  13
ENDBRANCH   7   9
BRANCH   7  33
ATOM     33  C11 non d ame     -10.332   5.899  70.849  0.00  0.00    -0.033 C 
ATOM     34  H12 non d ame      -9.494   6.430  71.303  0.00  0.00     0.042 H 
BRANCH  33  35
ATOM     35  C12 non d ame     -11.576   6.116  71.766  0.00  0.00    -0.071 C 
ATOM     36  H13 non d ame     -12.115   7.007  71.442  0.00  0.00     0.028 H 
ATOM     37  H14 non d ame     -12.233   5.249  71.696  0.00  0.00     0.028 H 
ATOM     38  H15 non d ame     -11.249   6.243  72.797  0.00  0.00     0.028 H 
ENDBRANCH  33  35
BRANCH  33  39
ATOM     39  C13 non d ame      -9.953   4.386  70.757  0.00  0.00    -0.071 C 
ATOM     40  H16 non d ame     -10.386   3.958  69.853  0.00  0.00     0.028 H 
ATOM     41  H17 non d ame      -8.868   4.285  70.723  0.00  0.00     0.028 H 
ATOM     42  H18 non d ame     -10.340   3.861  71.630  0.00  0.00     0.028 H 
ENDBRANCH  33  39
ENDBRANCH   7  33
ENDBRANCH   4   7
ENDBRANCH   1   3
BRANCH   1  43
ATOM     43  C15 non d ame     -11.219  11.356  68.651  0.00  0.00     0.240 C 
ATOM     44  O5  non d ame     -12.192  11.229  67.981  0.00  0.00    -0.271 OA
ATOM     45  N6  non d ame     -11.109  12.512  69.587  0.00  0.00    -0.355 N 
ATOM     46  H46 non d ame     -10.289  12.628  70.164  0.00  0.00     0.162 HD
BRANCH  45  47
ATOM     47  C20 non d ame     -12.210  13.495  69.669  0.00  0.00     0.013 C 
ATOM     48  H30 non d ame     -13.039  13.122  69.067  0.00  0.00     0.072 H 
BRANCH  47  49
ATOM     49  C21 non d ame     -11.735  14.824  69.125  0.00  0.00    -0.038 C 
ATOM     50  H31 non d ame     -12.550  15.525  69.307  0.00  0.00     0.036 H 
ATOM     51  H32 non d ame     -10.758  14.994  69.576  0.00  0.00     0.036 H 
BRANCH  49  52
ATOM     52  C22 non d ame     -11.513  14.801  67.597  0.00  0.00     0.018 C 
ATOM     53  H33 non d ame     -11.910  13.845  67.255  0.00  0.00     0.048 H 
ATOM     54  H34 non d ame     -11.938  15.733  67.223  0.00  0.00     0.048 H 
BRANCH  52  55
ATOM     55  C23 non d ame     -10.015  14.816  67.182  0.00  0.00     0.259 C 
ATOM     56  O7  non d ame      -9.202  14.248  67.836  0.00  0.00    -0.265 OA
BRANCH  55  57
ATOM     57  O8  non d ame      -9.623  15.529  66.015  0.00  0.00    -0.317 OA
BRANCH  57  58
ATOM     58  C29 non d ame     -10.453  16.654  65.713  0.00  0.00     0.052 C 
ATOM     59  H47 non d ame     -10.444  16.745  64.627  0.00  0.00     0.082 H 
ATOM     60  H48 non d ame     -11.392  16.477  66.237  0.00  0.00     0.082 H 
BRANCH  58  61
ATOM     61  C35 non d ame      -9.786  17.918  66.318  0.00  0.00    -0.034 A 
ATOM     62  C30 non d ame     -10.545  19.058  66.561  0.00  0.00    -0.075 A 
ATOM     63  C31 non d ame      -9.945  20.194  67.104  0.00  0.00    -0.082 A 
ATOM     64  H49 non d ame     -11.610  19.061  66.328  0.00  0.00     0.084 H 
ATOM     65  C32 non d ame      -8.580  20.188  67.400  0.00  0.00    -0.083 A 
ATOM     66  H50 non d ame     -10.544  21.084  67.296  0.00  0.00     0.083 H 
ATOM     67  C33 non d ame      -7.825  19.049  67.152  0.00  0.00    -0.082 A 
ATOM     68  H51 non d ame      -8.103  21.071  67.825  0.00  0.00     0.083 H 
ATOM     69  C34 non d ame      -8.421  17.911  66.612  0.00  0.00    -0.075 A 
ATOM     70  H52 non d ame      -6.760  19.048  67.382  0.00  0.00     0.083 H 
ATOM     71  H53 non d ame      -7.822  17.020  66.421  0.00  0.00     0.084 H 
ENDBRANCH  58  61
ENDBRANCH  57  58
ENDBRANCH  55  57
ENDBRANCH  52  55
ENDBRANCH  49  52
ENDBRANCH  47  49
BRANCH  47  72
ATOM     72  C24 non d ame     -12.644  13.665  71.123  0.00  0.00    -0.039 C 
ATOM     73  H35 non d ame     -13.622  13.189  71.192  0.00  0.00     0.036 H 
ATOM     74  H36 non d ame     -11.812  13.290  71.719  0.00  0.00     0.036 H 
BRANCH  72  75
ATOM     75  C25 non d ame     -12.842  15.208  71.506  0.00  0.00    -0.001 C 
ATOM     76  C26 non d ame     -11.792  15.628  72.700  0.00  0.00    -0.035 C 
ATOM     77  C27 non d ame     -12.483  16.228  73.698  0.00  0.00     0.085 C 
ATOM     78  H38 non d ame     -11.387  14.734  73.173  0.00  0.00     0.036 H 
ATOM     79  H39 non d ame     -11.120  16.411  72.349  0.00  0.00     0.036 H 
ATOM     80  N5  non d ame     -13.947  15.964  73.442  0.00  0.00    -0.049 N 
ATOM     81  H40 non d ame     -12.183  15.713  74.611  0.00  0.00     0.075 H 
ATOM     82  H41 non d ame     -12.291  17.295  73.585  0.00  0.00     0.075 H 
ATOM     83  C28 non d ame     -14.044  15.437  71.919  0.00  0.00     0.193 C 
ATOM     84  H42 non d ame     -14.215  15.211  74.060  0.00  0.00     0.280 HD
ATOM     85  H43 non d ame     -14.415  16.857  73.503  0.00  0.00     0.280 HD
ATOM     86  H44 non d ame     -14.404  16.094  71.128  0.00  0.00     0.129 H 
ATOM     87  H37 non d ame     -12.875  15.851  70.626  0.00  0.00     0.046 H 
BRANCH  83  88
ATOM     88  O6  non d ame     -14.868  14.272  71.852  0.00  0.00    -0.369 OA
ATOM     89  H45 non d ame     -14.825  13.900  70.968  0.00  0.00     0.212 HD
ENDBRANCH  83  88
ENDBRANCH  72  75
ENDBRANCH  47  72
ENDBRANCH  45  47
ENDBRANCH   1  43
BRANCH   1  90
ATOM     90  C16 non d ame      -9.344  10.472  67.227  0.00  0.00    -0.035 C 
ATOM     91  H21 non d ame      -9.183   9.457  66.862  0.00  0.00     0.037 H 
ATOM     92  H22 non d ame      -9.951  11.169  66.649  0.00  0.00     0.037 H 
BRANCH  90  93
ATOM     93  C17 non d ame      -7.931  11.123  67.361  0.00  0.00    -0.059 C 
ATOM     94  H23 non d ame      -8.011  12.158  67.028  0.00  0.00     0.038 H 
BRANCH  93  95
ATOM     95  C18 non d ame      -7.425  11.136  68.839  0.00  0.00    -0.073 C 
ATOM     96  H24 non d ame      -7.694  12.083  69.306  0.00  0.00     0.028 H 
ATOM     97  H25 non d ame      -7.888  10.316  69.388  0.00  0.00     0.028 H 
ATOM     98  H26 non d ame      -6.342  11.017  68.853  0.00  0.00     0.028 H 
ENDBRANCH  93  95
BRANCH  93  99
ATOM     99  C19 non d ame      -6.920  10.428  66.445  0.00  0.00    -0.073 C 
ATOM    100  H27 non d ame      -6.065  10.096  67.034  0.00  0.00     0.028 H 
ATOM    101  H28 non d ame      -7.392   9.567  65.971  0.00  0.00     0.028 H 
ATOM    102  H29 non d ame      -6.585  11.126  65.678  0.00  0.00     0.028 H 
ENDBRANCH  93  99
ENDBRANCH  90  93
ENDBRANCH   1  90
TORSDOF 26
ENDMDL
MODEL 4
REMARK VINA RESULT:      -6.7      3.409      6.524
REMARK  26 active torsions:
REMARK  status: ('A' for Active; 'I' for Inactive)
REMARK    1  A    between atoms: C2_2  and  C3_3 
REMARK    2  A    between atoms: C4_6  and  C5_7 
REMARK       I    between atoms: C5_7  and  N2_9 
REMARK    3  A    between atoms: N2_9  and  C6_10 
REMARK    4  A    between atoms: C6_10  and  C7_11 
REMARK    5  A    between atoms: C6_10  and  C8_13 
REMARK       I    between atoms: C7_11  and  N3_14 
REMARK    6  A    between atoms: N3_14  and  C9_15 
REMARK    7  A    between atoms: C9_15  and  C10_16 
REMARK    8  A    between atoms: C9_15  and  C11_18 
REMARK       I    between atoms: C10_16  and  N4_21 
REMARK    9  A    between atoms: C11_18  and  C12_19 
REMARK   10  A    between atoms: C11_18  and  C13_20 
REMARK   11  A    between atoms: N4_21  and  C14_22 
REMARK   12  A    between atoms: C14_22  and  C15_23 
REMARK   13  A    between atoms: C14_22  and  C16_25 
REMARK       I    between atoms: C15_23  and  N6_40 
REMARK   14  A    between atoms: C16_25  and  C17_26 
REMARK   15  A    between atoms: C17_26  and  C18_27 
REMARK   16  A    between atoms: C17_26  and  C19_28 
REMARK   17  A    between atoms: C20_29  and  C21_30 
REMARK   18  A    between atoms: C20_29  and  C24_33 
REMARK   19  A    between atoms: C20_29  and  N6_40 
REMARK   20  A    between atoms: C21_30  and  C22_31 
REMARK   21  A    between atoms: C22_31  and  C23_32 
REMARK   22  A    between atoms: C23_32  and  O8_43 
REMARK   23  A    between atoms: C24_33  and  C25_34 
REMARK   24  A    between atoms: C28_38  and  O6_39 
REMARK   25  A    between atoms: C29_42  and  O8_43 
REMARK   26  A    between atoms: C29_42  and  C35_49 
ROOT
ATOM      1  C14 non d ame     -11.696  15.098  70.223  0.00  0.00     0.089 C 
ATOM      2  H20 non d ame     -12.703  15.054  69.807  0.00  0.00     0.087 H 
ENDROOT
BRANCH   1   3
ATOM      3  N4  non d ame     -11.172  13.740  70.246  0.00  0.00    -0.346 N 
ATOM      4  C10 non d ame     -11.517  12.772  69.143  0.00  0.00     0.241 C 
ATOM      5  O4  non d ame     -12.220  13.108  68.248  0.00  0.00    -0.271 OA
ATOM      6  H19 non d ame     -10.577  13.474  71.018  0.00  0.00     0.163 HD
BRANCH   4   7
ATOM      7  C9  non d ame     -10.961  11.373  69.180  0.00  0.00     0.092 C 
ATOM      8  H11 non d ame     -10.109  11.343  69.859  0.00  0.00     0.088 H 
BRANCH   7   9
ATOM      9  N3  non d ame     -11.974  10.458  69.715  0.00  0.00    -0.346 N 
ATOM     10  C7  non d ame     -11.661   9.619  70.845  0.00  0.00     0.240 C 
ATOM     11  O3  non d ame     -10.600   9.665  71.335  0.00  0.00    -0.271 OA
ATOM     12  H10 non d ame     -12.894  10.405  69.301  0.00  0.00     0.163 HD
BRANCH  10  13
ATOM     13  C6  non d ame     -12.743   8.645  71.408  0.00  0.00     0.086 C 
ATOM     14  H6  non d ame     -13.117   7.950  70.657  0.00  0.00     0.086 H 
BRANCH  13  15
ATOM     15  N2  non d ame     -12.148   7.838  72.461  0.00  0.00    -0.343 N 
ATOM     16  C5  non d ame     -11.601   6.519  72.138  0.00  0.00     0.273 C 
ATOM     17  O2  non d ame     -11.647   6.114  71.028  0.00  0.00    -0.266 OA
ATOM     18  H5  non d ame     -12.116   8.191  73.408  0.00  0.00     0.163 HD
BRANCH  16  19
ATOM     19  C4  non d ame     -10.969   5.656  73.240  0.00  0.00     0.154 A 
ATOM     20  C1  non d ame     -11.058   4.235  73.385  0.00  0.00    -0.017 A 
ATOM     21  C2  non d ame     -10.310   3.940  74.547  0.00  0.00     0.077 A 
ATOM     22  H1  non d ame     -11.585   3.527  72.745  0.00  0.00     0.091 H 
ATOM     23  O1  non d ame      -9.848   5.066  75.006  0.00  0.00    -0.218 OA
ATOM     24  N1  non d ame     -10.219   6.082  74.261  0.00  0.00    -0.123 NA
BRANCH  21  25
ATOM     25  C3  non d ame     -10.085   2.559  75.147  0.00  0.00    -0.029 C 
ATOM     26  H2  non d ame      -9.645   2.661  76.140  0.00  0.00     0.036 H 
ATOM     27  H3  non d ame     -11.039   2.037  75.225  0.00  0.00     0.036 H 
ATOM     28  H4  non d ame      -9.411   1.989  74.508  0.00  0.00     0.036 H 
ENDBRANCH  21  25
ENDBRANCH  16  19
ENDBRANCH  13  15
BRANCH  13  29
ATOM     29  C8  non d ame     -13.901   9.439  71.957  0.00  0.00    -0.049 C 
ATOM     30  H7  non d ame     -14.746   9.369  71.273  0.00  0.00     0.030 H 
ATOM     31  H8  non d ame     -14.187   9.039  72.930  0.00  0.00     0.030 H 
ATOM     32  H9  non d ame     -13.607  10.482  72.065  0.00  0.00     0.030 H 
ENDBRANCH  13  29
ENDBRANCH  10  13
ENDBRANCH   7   9
BRANCH   7  33
ATOM     33  C11 non d ame     -10.576  10.929  67.738  0.00  0.00    -0.033 C 
ATOM     34  H12 non d ame     -11.204  11.488  67.043  0.00  0.00     0.042 H 
BRANCH  33  35
ATOM     35  C12 non d ame      -9.090  11.280  67.413  0.00  0.00    -0.071 C 
ATOM     36  H13 non d ame      -8.532  11.393  68.342  0.00  0.00     0.028 H 
ATOM     37  H14 non d ame      -8.650  10.479  66.820  0.00  0.00     0.028 H 
ATOM     38  H15 non d ame      -9.052  12.212  66.850  0.00  0.00     0.028 H 
ENDBRANCH  33  35
BRANCH  33  39
ATOM     39  C13 non d ame     -10.858   9.407  67.526  0.00  0.00    -0.071 C 
ATOM     40  H16 non d ame     -11.452   9.029  68.358  0.00  0.00     0.028 H 
ATOM     41  H17 non d ame     -11.406   9.265  66.594  0.00  0.00     0.028 H 
ATOM     42  H18 non d ame      -9.913   8.866  67.478  0.00  0.00     0.028 H 
ENDBRANCH  33  39
ENDBRANCH   7  33
ENDBRANCH   4   7
ENDBRANCH   1   3
BRANCH   1  43
ATOM     43  C15 non d ame     -10.745  15.982  69.367  0.00  0.00     0.240 C 
ATOM     44  O5  non d ame     -11.180  16.914  68.772  0.00  0.00    -0.271 OA
ATOM     45  N6  non d ame      -9.289  15.671  69.296  0.00  0.00    -0.355 N 
ATOM     46  H46 non d ame      -8.906  14.885  69.801  0.00  0.00     0.162 HD
BRANCH  45  47
ATOM     47  C20 non d ame      -8.397  16.522  68.479  0.00  0.00     0.013 C 
ATOM     48  H30 non d ame      -8.909  17.467  68.297  0.00  0.00     0.072 H 
BRANCH  47  49
ATOM     49  C21 non d ame      -8.110  15.829  67.166  0.00  0.00    -0.038 C 
ATOM     50  H31 non d ame      -7.062  15.535  67.210  0.00  0.00     0.036 H 
ATOM     51  H32 non d ame      -8.886  15.070  67.059  0.00  0.00     0.036 H 
BRANCH  49  52
ATOM     52  C22 non d ame      -8.249  16.769  65.949  0.00  0.00     0.018 C 
ATOM     53  H33 non d ame      -7.766  17.702  66.240  0.00  0.00     0.048 H 
ATOM     54  H34 non d ame      -7.874  16.205  65.095  0.00  0.00     0.048 H 
BRANCH  52  55
ATOM     55  C23 non d ame      -9.720  17.137  65.606  0.00  0.00     0.259 C 
ATOM     56  O7  non d ame     -10.173  18.184  65.937  0.00  0.00    -0.265 OA
BRANCH  55  57
ATOM     57  O8  non d ame     -10.525  16.200  64.900  0.00  0.00    -0.317 OA
BRANCH  57  58
ATOM     58  C29 non d ame     -11.169  15.237  65.740  0.00  0.00     0.052 C 
ATOM     59  H47 non d ame     -10.516  15.116  66.604  0.00  0.00     0.082 H 
ATOM     60  H48 non d ame     -12.189  15.596  65.873  0.00  0.00     0.082 H 
BRANCH  58  61
ATOM     61  C35 non d ame     -11.220  13.890  64.971  0.00  0.00    -0.034 A 
ATOM     62  C30 non d ame     -12.443  13.277  64.720  0.00  0.00    -0.075 A 
ATOM     63  C31 non d ame     -12.489  12.067  64.029  0.00  0.00    -0.082 A 
ATOM     64  H49 non d ame     -13.366  13.745  65.064  0.00  0.00     0.084 H 
ATOM     65  C32 non d ame     -11.305  11.468  63.591  0.00  0.00    -0.083 A 
ATOM     66  H50 non d ame     -13.449  11.590  63.832  0.00  0.00     0.083 H 
ATOM     67  C33 non d ame     -10.086  12.082  63.846  0.00  0.00    -0.082 A 
ATOM     68  H51 non d ame     -11.332  10.522  63.050  0.00  0.00     0.083 H 
ATOM     69  C34 non d ame     -10.036  13.292  64.534  0.00  0.00    -0.075 A 
ATOM     70  H52 non d ame      -9.164  11.611  63.505  0.00  0.00     0.083 H 
ATOM     71  H53 non d ame      -9.075  13.769  64.730  0.00  0.00     0.084 H 
ENDBRANCH  58  61
ENDBRANCH  57  58
ENDBRANCH  55  57
ENDBRANCH  52  55
ENDBRANCH  49  52
ENDBRANCH  47  49
BRANCH  47  72
ATOM     72  C24 non d ame      -7.086  16.763  69.225  0.00  0.00    -0.039 C 
ATOM     73  H35 non d ame      -7.281  16.469  70.256  0.00  0.00     0.036 H 
ATOM     74  H36 non d ame      -6.323  16.243  68.645  0.00  0.00     0.036 H 
BRANCH  72  75
ATOM     75  C25 non d ame      -6.691  18.315  69.243  0.00  0.00    -0.001 C 
ATOM     76  C26 non d ame      -7.922  19.213  68.625  0.00  0.00    -0.035 C 
ATOM     77  C27 non d ame      -7.427  20.030  67.664  0.00  0.00     0.085 C 
ATOM     78  H38 non d ame      -8.617  18.573  68.082  0.00  0.00     0.036 H 
ATOM     79  H39 non d ame      -8.296  19.906  69.380  0.00  0.00     0.036 H 
ATOM     80  N5  non d ame      -6.036  19.540  67.342  0.00  0.00    -0.049 N 
ATOM     81  H40 non d ame      -8.068  19.878  66.794  0.00  0.00     0.075 H 
ATOM     82  H41 non d ame      -7.359  21.014  68.125  0.00  0.00     0.075 H 
ATOM     83  C28 non d ame      -5.631  18.536  68.539  0.00  0.00     0.193 C 
ATOM     84  H42 non d ame      -6.111  19.007  66.487  0.00  0.00     0.280 HD
ATOM     85  H43 non d ame      -5.432  20.348  67.382  0.00  0.00     0.280 HD
ATOM     86  H44 non d ame      -4.939  18.855  69.319  0.00  0.00     0.129 H 
ATOM     87  H37 non d ame      -6.284  18.627  70.205  0.00  0.00     0.046 H 
BRANCH  83  88
ATOM     88  O6  non d ame      -5.077  17.332  68.007  0.00  0.00    -0.369 OA
ATOM     89  H45 non d ame      -4.148  17.468  67.807  0.00  0.00     0.212 HD
ENDBRANCH  83  88
ENDBRANCH  72  75
ENDBRANCH  47  72
ENDBRANCH  45  47
ENDBRANCH   1  43
BRANCH   1  90
ATOM     90  C16 non d ame     -11.750  15.633  71.645  0.00  0.00    -0.035 C 
ATOM     91  H21 non d ame     -10.752  15.470  72.053  0.00  0.00     0.037 H 
ATOM     92  H22 non d ame     -12.143  16.646  71.558  0.00  0.00     0.037 H 
BRANCH  90  93
ATOM     93  C17 non d ame     -12.737  14.854  72.571  0.00  0.00    -0.059 C 
ATOM     94  H23 non d ame     -12.536  13.790  72.449  0.00  0.00     0.038 H 
BRANCH  93  95
ATOM     95  C18 non d ame     -12.533  15.207  74.080  0.00  0.00    -0.073 C 
ATOM     96  H24 non d ame     -12.780  14.340  74.692  0.00  0.00     0.028 H 
ATOM     97  H25 non d ame     -11.493  15.487  74.249  0.00  0.00     0.028 H 
ATOM     98  H26 non d ame     -13.183  16.040  74.349  0.00  0.00     0.028 H 
ENDBRANCH  93  95
BRANCH  93  99
ATOM     99  C19 non d ame     -14.189  15.095  72.147  0.00  0.00    -0.073 C 
ATOM    100  H27 non d ame     -14.635  14.152  71.829  0.00  0.00     0.028 H 
ATOM    101  H28 non d ame     -14.751  15.497  72.991  0.00  0.00     0.028 H 
ATOM    102  H29 non d ame     -14.213  15.806  71.322  0.00  0.00     0.028 H 
ENDBRANCH  93  99
ENDBRANCH  90  93
ENDBRANCH   1  90
TORSDOF 26
ENDMDL
MODEL 5
REMARK VINA RESULT:      -6.7      3.359      7.651
REMARK  26 active torsions:
REMARK  status: ('A' for Active; 'I' for Inactive)
REMARK    1  A    between atoms: C2_2  and  C3_3 
REMARK    2  A    between atoms: C4_6  and  C5_7 
REMARK       I    between atoms: C5_7  and  N2_9 
REMARK    3  A    between atoms: N2_9  and  C6_10 
REMARK    4  A    between atoms: C6_10  and  C7_11 
REMARK    5  A    between atoms: C6_10  and  C8_13 
REMARK       I    between atoms: C7_11  and  N3_14 
REMARK    6  A    between atoms: N3_14  and  C9_15 
REMARK    7  A    between atoms: C9_15  and  C10_16 
REMARK    8  A    between atoms: C9_15  and  C11_18 
REMARK       I    between atoms: C10_16  and  N4_21 
REMARK    9  A    between atoms: C11_18  and  C12_19 
REMARK   10  A    between atoms: C11_18  and  C13_20 
REMARK   11  A    between atoms: N4_21  and  C14_22 
REMARK   12  A    between atoms: C14_22  and  C15_23 
REMARK   13  A    between atoms: C14_22  and  C16_25 
REMARK       I    between atoms: C15_23  and  N6_40 
REMARK   14  A    between atoms: C16_25  and  C17_26 
REMARK   15  A    between atoms: C17_26  and  C18_27 
REMARK   16  A    between atoms: C17_26  and  C19_28 
REMARK   17  A    between atoms: C20_29  and  C21_30 
REMARK   18  A    between atoms: C20_29  and  C24_33 
REMARK   19  A    between atoms: C20_29  and  N6_40 
REMARK   20  A    between atoms: C21_30  and  C22_31 
REMARK   21  A    between atoms: C22_31  and  C23_32 
REMARK   22  A    between atoms: C23_32  and  O8_43 
REMARK   23  A    between atoms: C24_33  and  C25_34 
REMARK   24  A    between atoms: C28_38  and  O6_39 
REMARK   25  A    between atoms: C29_42  and  O8_43 
REMARK   26  A    between atoms: C29_42  and  C35_49 
ROOT
ATOM      1  C14 non d ame     -10.292  10.322  67.817  0.00  0.00     0.089 C 
ATOM      2  H20 non d ame      -9.292  10.439  68.237  0.00  0.00     0.087 H 
ENDROOT
BRANCH   1   3
ATOM      3  N4  non d ame     -10.943   9.234  68.532  0.00  0.00    -0.346 N 
ATOM      4  C10 non d ame     -10.667   9.013  69.997  0.00  0.00     0.241 C 
ATOM      5  O4  non d ame      -9.915   9.722  70.581  0.00  0.00    -0.271 OA
ATOM      6  H19 non d ame     -11.578   8.641  68.017  0.00  0.00     0.163 HD
BRANCH   4   7
ATOM      7  C9  non d ame     -11.354   7.885  70.722  0.00  0.00     0.092 C 
ATOM      8  H11 non d ame     -12.304   7.670  70.232  0.00  0.00     0.088 H 
BRANCH   7   9
ATOM      9  N3  non d ame     -10.535   6.673  70.630  0.00  0.00    -0.346 N 
ATOM     10  C7  non d ame     -10.649   5.812  69.479  0.00  0.00     0.240 C 
ATOM     11  O3  non d ame     -11.396   6.078  68.618  0.00  0.00    -0.271 OA
ATOM     12  H10 non d ame      -9.887   6.430  71.366  0.00  0.00     0.163 HD
BRANCH  10  13
ATOM     13  C6  non d ame      -9.776   4.522  69.388  0.00  0.00     0.086 C 
ATOM     14  H6  non d ame     -10.300   3.690  68.920  0.00  0.00     0.086 H 
BRANCH  13  15
ATOM     15  N2  non d ame      -8.612   4.797  68.563  0.00  0.00    -0.343 N 
ATOM     16  C5  non d ame      -8.638   4.450  67.140  0.00  0.00     0.273 C 
ATOM     17  O2  non d ame      -9.599   3.946  66.671  0.00  0.00    -0.266 OA
ATOM     18  H5  non d ame      -7.794   5.225  68.973  0.00  0.00     0.163 HD
BRANCH  16  19
ATOM     19  C4  non d ame      -7.415   4.737  66.255  0.00  0.00     0.154 A 
ATOM     20  C1  non d ame      -7.373   5.544  65.074  0.00  0.00    -0.017 A 
ATOM     21  C2  non d ame      -6.029   5.486  64.642  0.00  0.00     0.077 A 
ATOM     22  H1  non d ame      -8.191   6.089  64.604  0.00  0.00     0.091 H 
ATOM     23  O1  non d ame      -5.384   4.732  65.483  0.00  0.00    -0.218 OA
ATOM     24  N1  non d ame      -6.171   4.282  66.433  0.00  0.00    -0.123 NA
BRANCH  21  25
ATOM     25  C3  non d ame      -5.445   6.178  63.418  0.00  0.00    -0.029 C 
ATOM     26  H2  non d ame      -6.156   6.914  63.042  0.00  0.00     0.036 H 
ATOM     27  H3  non d ame      -4.516   6.678  63.692  0.00  0.00     0.036 H 
ATOM     28  H4  non d ame      -5.244   5.438  62.642  0.00  0.00     0.036 H 
ENDBRANCH  21  25
ENDBRANCH  16  19
ENDBRANCH  13  15
BRANCH  13  29
ATOM     29  C8  non d ame      -9.341   4.107  70.771  0.00  0.00    -0.049 C 
ATOM     30  H7  non d ame      -8.415   4.620  71.030  0.00  0.00     0.030 H 
ATOM     31  H8  non d ame     -10.117   4.372  71.490  0.00  0.00     0.030 H 
ATOM     32  H9  non d ame      -9.177   3.030  70.793  0.00  0.00     0.030 H 
ENDBRANCH  13  29
ENDBRANCH  10  13
ENDBRANCH   7   9
BRANCH   7  33
ATOM     33  C11 non d ame     -11.542   8.269  72.219  0.00  0.00    -0.033 C 
ATOM     34  H12 non d ame     -10.961   9.173  72.402  0.00  0.00     0.042 H 
BRANCH  33  35
ATOM     35  C12 non d ame     -13.034   8.597  72.539  0.00  0.00    -0.071 C 
ATOM     36  H13 non d ame     -13.146   9.671  72.685  0.00  0.00     0.028 H 
ATOM     37  H14 non d ame     -13.662   8.276  71.709  0.00  0.00     0.028 H 
ATOM     38  H15 non d ame     -13.334   8.073  73.446  0.00  0.00     0.028 H 
ENDBRANCH  33  35
BRANCH  33  39
ATOM     39  C13 non d ame     -10.995   7.145  73.157  0.00  0.00    -0.071 C 
ATOM     40  H16 non d ame     -10.748   6.265  72.565  0.00  0.00     0.028 H 
ATOM     41  H17 non d ame     -10.100   7.502  73.668  0.00  0.00     0.028 H 
ATOM     42  H18 non d ame     -11.755   6.886  73.894  0.00  0.00     0.028 H 
ENDBRANCH  33  39
ENDBRANCH   7  33
ENDBRANCH   4   7
ENDBRANCH   1   3
BRANCH   1  43
ATOM     43  C15 non d ame     -11.152  11.608  67.983  0.00  0.00     0.240 C 
ATOM     44  O5  non d ame     -11.982  11.871  67.174  0.00  0.00    -0.271 OA
ATOM     45  N6  non d ame     -10.946  12.507  69.154  0.00  0.00    -0.355 N 
ATOM     46  H46 non d ame     -10.247  12.291  69.850  0.00  0.00     0.162 HD
BRANCH  45  47
ATOM     47  C20 non d ame     -11.773  13.724  69.298  0.00  0.00     0.013 C 
ATOM     48  H30 non d ame     -12.517  13.721  68.501  0.00  0.00     0.072 H 
BRANCH  47  49
ATOM     49  C21 non d ame     -10.890  14.945  69.174  0.00  0.00    -0.038 C 
ATOM     50  H31 non d ame     -11.395  15.605  68.468  0.00  0.00     0.036 H 
ATOM     51  H32 non d ame     -10.704  15.279  70.195  0.00  0.00     0.036 H 
BRANCH  49  52
ATOM     52  C22 non d ame      -9.508  14.626  68.562  0.00  0.00     0.018 C 
ATOM     53  H33 non d ame      -8.810  14.611  69.399  0.00  0.00     0.048 H 
ATOM     54  H34 non d ame      -9.653  13.731  67.956  0.00  0.00     0.048 H 
BRANCH  52  55
ATOM     55  C23 non d ame      -8.987  15.721  67.590  0.00  0.00     0.259 C 
ATOM     56  O7  non d ame      -8.509  16.724  68.011  0.00  0.00    -0.265 OA
BRANCH  55  57
ATOM     57  O8  non d ame      -9.098  15.517  66.186  0.00  0.00    -0.317 OA
BRANCH  57  58
ATOM     58  C29 non d ame     -10.410  15.748  65.666  0.00  0.00     0.052 C 
ATOM     59  H47 non d ame     -11.051  15.889  66.536  0.00  0.00     0.082 H 
ATOM     60  H48 non d ame     -10.301  16.549  64.935  0.00  0.00     0.082 H 
BRANCH  58  61
ATOM     61  C35 non d ame     -10.865  14.464  64.923  0.00  0.00    -0.034 A 
ATOM     62  C30 non d ame     -12.200  14.299  64.570  0.00  0.00    -0.075 A 
ATOM     63  C31 non d ame     -12.609  13.145  63.903  0.00  0.00    -0.082 A 
ATOM     64  H49 non d ame     -12.926  15.074  64.816  0.00  0.00     0.084 H 
ATOM     65  C32 non d ame     -11.676  12.152  63.591  0.00  0.00    -0.083 A 
ATOM     66  H50 non d ame     -13.655  13.020  63.626  0.00  0.00     0.083 H 
ATOM     67  C33 non d ame     -10.345  12.320  63.948  0.00  0.00    -0.082 A 
ATOM     68  H51 non d ame     -11.987  11.247  63.069  0.00  0.00     0.083 H 
ATOM     69  C34 non d ame      -9.932  13.472  64.613  0.00  0.00    -0.075 A 
ATOM     70  H52 non d ame      -9.620  11.542  63.705  0.00  0.00     0.083 H 
ATOM     71  H53 non d ame      -8.884  13.597  64.889  0.00  0.00     0.084 H 
ENDBRANCH  58  61
ENDBRANCH  57  58
ENDBRANCH  55  57
ENDBRANCH  52  55
ENDBRANCH  49  52
ENDBRANCH  47  49
BRANCH  47  72
ATOM     72  C24 non d ame     -12.457  13.726  70.663  0.00  0.00    -0.039 C 
ATOM     73  H35 non d ame     -13.485  13.417  70.472  0.00  0.00     0.036 H 
ATOM     74  H36 non d ame     -11.818  13.124  71.309  0.00  0.00     0.036 H 
BRANCH  72  75
ATOM     75  C25 non d ame     -12.515  15.197  71.295  0.00  0.00    -0.001 C 
ATOM     76  C26 non d ame     -11.707  15.224  72.727  0.00  0.00    -0.035 C 
ATOM     77  C27 non d ame     -12.510  15.769  73.671  0.00  0.00     0.085 C 
ATOM     78  H38 non d ame     -11.546  14.207  73.084  0.00  0.00     0.036 H 
ATOM     79  H39 non d ame     -10.870  15.920  72.671  0.00  0.00     0.036 H 
ATOM     80  N5  non d ame     -13.904  15.815  73.093  0.00  0.00    -0.049 N 
ATOM     81  H40 non d ame     -12.495  15.067  74.507  0.00  0.00     0.075 H 
ATOM     82  H41 non d ame     -12.149  16.787  73.808  0.00  0.00     0.075 H 
ATOM     83  C28 non d ame     -13.734  15.567  71.506  0.00  0.00     0.193 C 
ATOM     84  H42 non d ame     -14.404  15.032  73.489  0.00  0.00     0.280 HD
ATOM     85  H43 non d ame     -14.242  16.756  73.236  0.00  0.00     0.280 HD
ATOM     86  H44 non d ame     -13.814  16.398  70.805  0.00  0.00     0.129 H 
ATOM     87  H37 non d ame     -12.262  15.969  70.568  0.00  0.00     0.046 H 
BRANCH  83  88
ATOM     88  O6  non d ame     -14.679  14.594  71.056  0.00  0.00    -0.369 OA
ATOM     89  H45 non d ame     -14.218  13.892  70.592  0.00  0.00     0.212 HD
ENDBRANCH  83  88
ENDBRANCH  72  75
ENDBRANCH  47  72
ENDBRANCH  45  47
ENDBRANCH   1  43
BRANCH   1  90
ATOM     90  C16 non d ame     -10.193   9.959  66.344  0.00  0.00    -0.035 C 
ATOM     91  H21 non d ame     -10.830   9.084  66.219  0.00  0.00     0.037 H 
ATOM     92  H22 non d ame     -10.419  10.879  65.805  0.00  0.00     0.037 H 
BRANCH  90  93
ATOM     93  C17 non d ame      -8.758   9.529  65.900  0.00  0.00    -0.059 C 
ATOM     94  H23 non d ame      -8.443   8.712  66.549  0.00  0.00     0.038 H 
BRANCH  93  95
ATOM     95  C18 non d ame      -8.729   9.007  64.428  0.00  0.00    -0.073 C 
ATOM     96  H24 non d ame      -7.714   8.708  64.169  0.00  0.00     0.028 H 
ATOM     97  H25 non d ame      -9.396   8.149  64.334  0.00  0.00     0.028 H 
ATOM     98  H26 non d ame      -9.059   9.799  63.755  0.00  0.00     0.028 H 
ENDBRANCH  93  95
BRANCH  93  99
ATOM     99  C19 non d ame      -7.760  10.674  66.092  0.00  0.00    -0.073 C 
ATOM    100  H27 non d ame      -7.083  10.432  66.912  0.00  0.00     0.028 H 
ATOM    101  H28 non d ame      -7.186  10.812  65.175  0.00  0.00     0.028 H 
ATOM    102  H29 non d ame      -8.300  11.591  66.325  0.00  0.00     0.028 H 
ENDBRANCH  93  99
ENDBRANCH  90  93
ENDBRANCH   1  90
TORSDOF 26
ENDMDL
MODEL 6
REMARK VINA RESULT:      -6.7      3.107      7.970
REMARK  26 active torsions:
REMARK  status: ('A' for Active; 'I' for Inactive)
REMARK    1  A    between atoms: C2_2  and  C3_3 
REMARK    2  A    between atoms: C4_6  and  C5_7 
REMARK       I    between atoms: C5_7  and  N2_9 
REMARK    3  A    between atoms: N2_9  and  C6_10 
REMARK    4  A    between atoms: C6_10  and  C7_11 
REMARK    5  A    between atoms: C6_10  and  C8_13 
REMARK       I    between atoms: C7_11  and  N3_14 
REMARK    6  A    between atoms: N3_14  and  C9_15 
REMARK    7  A    between atoms: C9_15  and  C10_16 
REMARK    8  A    between atoms: C9_15  and  C11_18 
REMARK       I    between atoms: C10_16  and  N4_21 
REMARK    9  A    between atoms: C11_18  and  C12_19 
REMARK   10  A    between atoms: C11_18  and  C13_20 
REMARK   11  A    between atoms: N4_21  and  C14_22 
REMARK   12  A    between atoms: C14_22  and  C15_23 
REMARK   13  A    between atoms: C14_22  and  C16_25 
REMARK       I    between atoms: C15_23  and  N6_40 
REMARK   14  A    between atoms: C16_25  and  C17_26 
REMARK   15  A    between atoms: C17_26  and  C18_27 
REMARK   16  A    between atoms: C17_26  and  C19_28 
REMARK   17  A    between atoms: C20_29  and  C21_30 
REMARK   18  A    between atoms: C20_29  and  C24_33 
REMARK   19  A    between atoms: C20_29  and  N6_40 
REMARK   20  A    between atoms: C21_30  and  C22_31 
REMARK   21  A    between atoms: C22_31  and  C23_32 
REMARK   22  A    between atoms: C23_32  and  O8_43 
REMARK   23  A    between atoms: C24_33  and  C25_34 
REMARK   24  A    between atoms: C28_38  and  O6_39 
REMARK   25  A    between atoms: C29_42  and  O8_43 
REMARK   26  A    between atoms: C29_42  and  C35_49 
ROOT
ATOM      1  C14 non d ame      -5.949  11.020  66.791  0.00  0.00     0.089 C 
ATOM      2  H20 non d ame      -5.202  11.358  67.510  0.00  0.00     0.087 H 
ENDROOT
BRANCH   1   3
ATOM      3  N4  non d ame      -6.948  12.072  66.670  0.00  0.00    -0.346 N 
ATOM      4  C10 non d ame      -6.861  13.308  67.529  0.00  0.00     0.241 C 
ATOM      5  O4  non d ame      -5.979  13.433  68.313  0.00  0.00    -0.271 OA
ATOM      6  H19 non d ame      -7.692  11.945  65.998  0.00  0.00     0.163 HD
BRANCH   4   7
ATOM      7  C9  non d ame      -7.901  14.388  67.386  0.00  0.00     0.092 C 
ATOM      8  H11 non d ame      -7.921  14.732  66.352  0.00  0.00     0.088 H 
BRANCH   7   9
ATOM      9  N3  non d ame      -9.225  13.835  67.684  0.00  0.00    -0.346 N 
ATOM     10  C7  non d ame     -10.328  14.083  66.789  0.00  0.00     0.240 C 
ATOM     11  O3  non d ame     -10.168  14.727  65.824  0.00  0.00    -0.271 OA
ATOM     12  H10 non d ame      -9.379  13.280  68.514  0.00  0.00     0.163 HD
BRANCH  10  13
ATOM     13  C6  non d ame     -11.736  13.495  67.113  0.00  0.00     0.086 C 
ATOM     14  H6  non d ame     -11.727  12.410  67.213  0.00  0.00     0.086 H 
BRANCH  13  15
ATOM     15  N2  non d ame     -12.186  14.025  68.389  0.00  0.00    -0.343 N 
ATOM     16  C5  non d ame     -11.941  13.262  69.615  0.00  0.00     0.273 C 
ATOM     17  O2  non d ame     -11.385  12.220  69.563  0.00  0.00    -0.266 OA
ATOM     18  H5  non d ame     -12.664  14.915  68.424  0.00  0.00     0.163 HD
BRANCH  16  19
ATOM     19  C4  non d ame     -12.410  13.811  70.971  0.00  0.00     0.154 A 
ATOM     20  C1  non d ame     -11.917  14.969  71.652  0.00  0.00    -0.017 A 
ATOM     21  C2  non d ame     -12.672  15.039  72.844  0.00  0.00     0.077 A 
ATOM     22  H1  non d ame     -11.132  15.654  71.331  0.00  0.00     0.091 H 
ATOM     23  O1  non d ame     -13.499  14.035  72.838  0.00  0.00    -0.218 OA
ATOM     24  N1  non d ame     -13.365  13.304  71.755  0.00  0.00    -0.123 NA
BRANCH  21  25
ATOM     25  C3  non d ame     -12.540  16.095  73.934  0.00  0.00    -0.029 C 
ATOM     26  H2  non d ame     -12.872  17.059  73.548  0.00  0.00     0.036 H 
ATOM     27  H3  non d ame     -13.156  15.813  74.788  0.00  0.00     0.036 H 
ATOM     28  H4  non d ame     -11.498  16.167  74.247  0.00  0.00     0.036 H 
ENDBRANCH  21  25
ENDBRANCH  16  19
ENDBRANCH  13  15
BRANCH  13  29
ATOM     29  C8  non d ame     -12.706  13.876  66.024  0.00  0.00    -0.049 C 
ATOM     30  H7  non d ame     -12.395  14.818  65.573  0.00  0.00     0.030 H 
ATOM     31  H8  non d ame     -12.723  13.096  65.263  0.00  0.00     0.030 H 
ATOM     32  H9  non d ame     -13.703  13.990  66.450  0.00  0.00     0.030 H 
ENDBRANCH  13  29
ENDBRANCH  10  13
ENDBRANCH   7   9
BRANCH   7  33
ATOM     33  C11 non d ame      -7.588  15.544  68.381  0.00  0.00    -0.033 C 
ATOM     34  H12 non d ame      -6.746  15.228  68.998  0.00  0.00     0.042 H 
BRANCH  33  35
ATOM     35  C12 non d ame      -7.156  16.841  67.629  0.00  0.00    -0.071 C 
ATOM     36  H13 non d ame      -7.874  17.058  66.838  0.00  0.00     0.028 H 
ATOM     37  H14 non d ame      -7.127  17.675  68.330  0.00  0.00     0.028 H 
ATOM     38  H15 non d ame      -6.168  16.697  67.194  0.00  0.00     0.028 H 
ENDBRANCH  33  35
BRANCH  33  39
ATOM     39  C13 non d ame      -8.804  15.814  69.325  0.00  0.00    -0.071 C 
ATOM     40  H16 non d ame      -9.519  14.997  69.238  0.00  0.00     0.028 H 
ATOM     41  H17 non d ame      -8.455  15.884  70.356  0.00  0.00     0.028 H 
ATOM     42  H18 non d ame      -9.284  16.750  69.039  0.00  0.00     0.028 H 
ENDBRANCH  33  39
ENDBRANCH   7  33
ENDBRANCH   4   7
ENDBRANCH   1   3
BRANCH   1  43
ATOM     43  C15 non d ame      -5.334  10.757  65.386  0.00  0.00     0.240 C 
ATOM     44  O5  non d ame      -4.431  11.427  65.002  0.00  0.00    -0.271 OA
ATOM     45  N6  non d ame      -5.866   9.664  64.524  0.00  0.00    -0.355 N 
ATOM     46  H46 non d ame      -6.630   9.085  64.842  0.00  0.00     0.162 HD
BRANCH  45  47
ATOM     47  C20 non d ame      -5.270   9.425  63.192  0.00  0.00     0.013 C 
ATOM     48  H30 non d ame      -4.595  10.252  62.974  0.00  0.00     0.072 H 
BRANCH  47  49
ATOM     49  C21 non d ame      -6.369   9.368  62.155  0.00  0.00    -0.038 C 
ATOM     50  H31 non d ame      -6.451  10.379  61.757  0.00  0.00     0.036 H 
ATOM     51  H32 non d ame      -6.108   8.541  61.495  0.00  0.00     0.036 H 
BRANCH  49  52
ATOM     52  C22 non d ame      -7.747   9.024  62.761  0.00  0.00     0.018 C 
ATOM     53  H33 non d ame      -8.285   8.481  61.984  0.00  0.00     0.048 H 
ATOM     54  H34 non d ame      -7.538   8.543  63.717  0.00  0.00     0.048 H 
BRANCH  52  55
ATOM     55  C23 non d ame      -8.615  10.271  63.090  0.00  0.00     0.259 C 
ATOM     56  O7  non d ame      -9.134  10.891  62.220  0.00  0.00    -0.265 OA
BRANCH  55  57
ATOM     57  O8  non d ame      -8.773  10.671  64.446  0.00  0.00    -0.317 OA
BRANCH  57  58
ATOM     58  C29 non d ame     -10.101  10.508  64.951  0.00  0.00     0.052 C 
ATOM     59  H47 non d ame     -10.388  11.482  65.347  0.00  0.00     0.082 H 
ATOM     60  H48 non d ame     -10.673  10.060  64.138  0.00  0.00     0.082 H 
BRANCH  58  61
ATOM     61  C35 non d ame     -10.046   9.496  66.126  0.00  0.00    -0.034 A 
ATOM     62  C30 non d ame     -10.501   9.868  67.387  0.00  0.00    -0.075 A 
ATOM     63  C31 non d ame     -10.451   8.960  68.444  0.00  0.00    -0.082 A 
ATOM     64  H49 non d ame     -10.897  10.871  67.548  0.00  0.00     0.084 H 
ATOM     65  C32 non d ame      -9.941   7.675  68.236  0.00  0.00    -0.083 A 
ATOM     66  H50 non d ame     -10.810   9.254  69.430  0.00  0.00     0.083 H 
ATOM     67  C33 non d ame      -9.486   7.310  66.976  0.00  0.00    -0.082 A 
ATOM     68  H51 non d ame      -9.899   6.959  69.056  0.00  0.00     0.083 H 
ATOM     69  C34 non d ame      -9.536   8.214  65.917  0.00  0.00    -0.075 A 
ATOM     70  H52 non d ame      -9.087   6.307  66.818  0.00  0.00     0.083 H 
ATOM     71  H53 non d ame      -9.177   7.919  64.931  0.00  0.00     0.084 H 
ENDBRANCH  58  61
ENDBRANCH  57  58
ENDBRANCH  55  57
ENDBRANCH  52  55
ENDBRANCH  49  52
ENDBRANCH  47  49
BRANCH  47  72
ATOM     72  C24 non d ame      -4.505   8.103  63.198  0.00  0.00    -0.039 C 
ATOM     73  H35 non d ame      -4.813   7.586  62.289  0.00  0.00     0.036 H 
ATOM     74  H36 non d ame      -3.459   8.374  63.343  0.00  0.00     0.036 H 
BRANCH  72  75
ATOM     75  C25 non d ame      -4.930   7.178  64.435  0.00  0.00    -0.001 C 
ATOM     76  C26 non d ame      -3.708   7.116  65.534  0.00  0.00    -0.035 C 
ATOM     77  C27 non d ame      -3.445   5.819  65.822  0.00  0.00     0.085 C 
ATOM     78  H38 non d ame      -2.781   7.470  65.082  0.00  0.00     0.036 H 
ATOM     79  H39 non d ame      -4.041   7.527  66.487  0.00  0.00     0.036 H 
ATOM     80  N5  non d ame      -4.150   4.984  64.780  0.00  0.00    -0.049 N 
ATOM     81  H40 non d ame      -2.368   5.706  65.699  0.00  0.00     0.075 H 
ATOM     82  H41 non d ame      -3.906   5.638  66.793  0.00  0.00     0.075 H 
ATOM     83  C28 non d ame      -5.194   5.974  64.049  0.00  0.00     0.193 C 
ATOM     84  H42 non d ame      -3.446   4.708  64.111  0.00  0.00     0.280 HD
ATOM     85  H43 non d ame      -4.672   4.281  65.283  0.00  0.00     0.280 HD
ATOM     86  H44 non d ame      -6.259   5.922  64.277  0.00  0.00     0.129 H 
ATOM     87  H37 non d ame      -5.923   7.422  64.811  0.00  0.00     0.046 H 
BRANCH  83  88
ATOM     88  O6  non d ame      -5.100   5.830  62.631  0.00  0.00    -0.369 OA
ATOM     89  H45 non d ame      -5.529   6.575  62.204  0.00  0.00     0.212 HD
ENDBRANCH  83  88
ENDBRANCH  72  75
ENDBRANCH  47  72
ENDBRANCH  45  47
ENDBRANCH   1  43
BRANCH   1  90
ATOM     90  C16 non d ame      -6.620   9.755  67.301  0.00  0.00    -0.035 C 
ATOM     91  H21 non d ame      -7.689   9.964  67.274  0.00  0.00     0.037 H 
ATOM     92  H22 non d ame      -6.208   8.946  66.696  0.00  0.00     0.037 H 
BRANCH  90  93
ATOM     93  C17 non d ame      -6.273   9.417  68.786  0.00  0.00    -0.059 C 
ATOM     94  H23 non d ame      -5.251   9.747  68.970  0.00  0.00     0.038 H 
BRANCH  93  95
ATOM     95  C18 non d ame      -7.204  10.164  69.793  0.00  0.00    -0.073 C 
ATOM     96  H24 non d ame      -7.384  11.178  69.438  0.00  0.00     0.028 H 
ATOM     97  H25 non d ame      -8.153   9.632  69.873  0.00  0.00     0.028 H 
ATOM     98  H26 non d ame      -6.725  10.200  70.772  0.00  0.00     0.028 H 
ENDBRANCH  93  95
BRANCH  93  99
ATOM     99  C19 non d ame      -6.312   7.905  69.025  0.00  0.00    -0.073 C 
ATOM    100  H27 non d ame      -6.389   7.387  68.069  0.00  0.00     0.028 H 
ATOM    101  H28 non d ame      -5.399   7.595  69.535  0.00  0.00     0.028 H 
ATOM    102  H29 non d ame      -7.175   7.658  69.644  0.00  0.00     0.028 H 
ENDBRANCH  93  99
ENDBRANCH  90  93
ENDBRANCH   1  90
TORSDOF 26
ENDMDL
MODEL 7
REMARK VINA RESULT:      -6.6      2.335      7.627
REMARK  26 active torsions:
REMARK  status: ('A' for Active; 'I' for Inactive)
REMARK    1  A    between atoms: C2_2  and  C3_3 
REMARK    2  A    between atoms: C4_6  and  C5_7 
REMARK       I    between atoms: C5_7  and  N2_9 
REMARK    3  A    between atoms: N2_9  and  C6_10 
REMARK    4  A    between atoms: C6_10  and  C7_11 
REMARK    5  A    between atoms: C6_10  and  C8_13 
REMARK       I    between atoms: C7_11  and  N3_14 
REMARK    6  A    between atoms: N3_14  and  C9_15 
REMARK    7  A    between atoms: C9_15  and  C10_16 
REMARK    8  A    between atoms: C9_15  and  C11_18 
REMARK       I    between atoms: C10_16  and  N4_21 
REMARK    9  A    between atoms: C11_18  and  C12_19 
REMARK   10  A    between atoms: C11_18  and  C13_20 
REMARK   11  A    between atoms: N4_21  and  C14_22 
REMARK   12  A    between atoms: C14_22  and  C15_23 
REMARK   13  A    between atoms: C14_22  and  C16_25 
REMARK       I    between atoms: C15_23  and  N6_40 
REMARK   14  A    between atoms: C16_25  and  C17_26 
REMARK   15  A    between atoms: C17_26  and  C18_27 
REMARK   16  A    between atoms: C17_26  and  C19_28 
REMARK   17  A    between atoms: C20_29  and  C21_30 
REMARK   18  A    between atoms: C20_29  and  C24_33 
REMARK   19  A    between atoms: C20_29  and  N6_40 
REMARK   20  A    between atoms: C21_30  and  C22_31 
REMARK   21  A    between atoms: C22_31  and  C23_32 
REMARK   22  A    between atoms: C23_32  and  O8_43 
REMARK   23  A    between atoms: C24_33  and  C25_34 
REMARK   24  A    between atoms: C28_38  and  O6_39 
REMARK   25  A    between atoms: C29_42  and  O8_43 
REMARK   26  A    between atoms: C29_42  and  C35_49 
ROOT
ATOM      1  C14 non d ame      -6.930  13.238  68.126  0.00  0.00     0.089 C 
ATOM      2  H20 non d ame      -6.201  13.077  67.332  0.00  0.00     0.087 H 
ENDROOT
BRANCH   1   3
ATOM      3  N4  non d ame      -7.206  14.666  68.184  0.00  0.00    -0.346 N 
ATOM      4  C10 non d ame      -6.187  15.660  67.687  0.00  0.00     0.241 C 
ATOM      5  O4  non d ame      -5.150  15.286  67.247  0.00  0.00    -0.271 OA
ATOM      6  H19 non d ame      -8.094  14.963  68.565  0.00  0.00     0.163 HD
BRANCH   4   7
ATOM      7  C9  non d ame      -6.492  17.133  67.750  0.00  0.00     0.092 C 
ATOM      8  H11 non d ame      -6.259  17.589  66.787  0.00  0.00     0.088 H 
BRANCH   7   9
ATOM      9  N3  non d ame      -7.926  17.326  67.984  0.00  0.00    -0.346 N 
ATOM     10  C7  non d ame      -8.810  17.578  66.873  0.00  0.00     0.240 C 
ATOM     11  O3  non d ame      -8.385  17.630  65.784  0.00  0.00    -0.271 OA
ATOM     12  H10 non d ame      -8.308  17.286  68.918  0.00  0.00     0.163 HD
BRANCH  10  13
ATOM     13  C6  non d ame     -10.335  17.786  67.129  0.00  0.00     0.086 C 
ATOM     14  H6  non d ame     -10.960  17.262  66.406  0.00  0.00     0.086 H 
BRANCH  13  15
ATOM     15  N2  non d ame     -10.672  17.246  68.436  0.00  0.00    -0.343 N 
ATOM     16  C5  non d ame     -11.335  15.944  68.530  0.00  0.00     0.273 C 
ATOM     17  O2  non d ame     -11.596  15.340  67.549  0.00  0.00    -0.266 OA
ATOM     18  H5  non d ame     -10.447  17.771  69.270  0.00  0.00     0.163 HD
BRANCH  16  19
ATOM     19  C4  non d ame     -11.695  15.361  69.906  0.00  0.00     0.154 A 
ATOM     20  C1  non d ame     -11.729  16.055  71.157  0.00  0.00    -0.017 A 
ATOM     21  C2  non d ame     -12.115  15.079  72.103  0.00  0.00     0.077 A 
ATOM     22  H1  non d ame     -11.508  17.105  71.349  0.00  0.00     0.091 H 
ATOM     23  O1  non d ame     -12.281  13.960  71.460  0.00  0.00    -0.218 OA
ATOM     24  N1  non d ame     -12.041  14.099  70.177  0.00  0.00    -0.123 NA
BRANCH  21  25
ATOM     25  C3  non d ame     -12.302  15.298  73.598  0.00  0.00    -0.029 C 
ATOM     26  H2  non d ame     -12.312  16.367  73.811  0.00  0.00     0.036 H 
ATOM     27  H3  non d ame     -13.246  14.855  73.915  0.00  0.00     0.036 H 
ATOM     28  H4  non d ame     -11.481  14.827  74.141  0.00  0.00     0.036 H 
ENDBRANCH  21  25
ENDBRANCH  16  19
ENDBRANCH  13  15
BRANCH  13  29
ATOM     29  C8  non d ame     -10.661  19.257  67.078  0.00  0.00    -0.049 C 
ATOM     30  H7  non d ame      -9.978  19.803  67.730  0.00  0.00     0.030 H 
ATOM     31  H8  non d ame     -10.553  19.618  66.055  0.00  0.00     0.030 H 
ATOM     32  H9  non d ame     -11.685  19.414  67.414  0.00  0.00     0.030 H 
ENDBRANCH  13  29
ENDBRANCH  10  13
ENDBRANCH   7   9
BRANCH   7  33
ATOM     33  C11 non d ame      -5.687  17.781  68.915  0.00  0.00    -0.033 C 
ATOM     34  H12 non d ame      -4.666  17.931  68.565  0.00  0.00     0.042 H 
BRANCH  33  35
ATOM     35  C12 non d ame      -6.264  19.180  69.295  0.00  0.00    -0.071 C 
ATOM     36  H13 non d ame      -5.751  19.952  68.721  0.00  0.00     0.028 H 
ATOM     37  H14 non d ame      -7.329  19.207  69.069  0.00  0.00     0.028 H 
ATOM     38  H15 non d ame      -6.113  19.358  70.359  0.00  0.00     0.028 H 
ENDBRANCH  33  35
BRANCH  33  39
ATOM     39  C13 non d ame      -5.638  16.832  70.155  0.00  0.00    -0.071 C 
ATOM     40  H16 non d ame      -6.637  16.737  70.580  0.00  0.00     0.028 H 
ATOM     41  H17 non d ame      -5.279  15.849  69.847  0.00  0.00     0.028 H 
ATOM     42  H18 non d ame      -4.963  17.248  70.903  0.00  0.00     0.028 H 
ENDBRANCH  33  39
ENDBRANCH   7  33
ENDBRANCH   4   7
ENDBRANCH   1   3
BRANCH   1  43
ATOM     43  C15 non d ame      -8.265  12.485  67.860  0.00  0.00     0.240 C 
ATOM     44  O5  non d ame      -9.300  13.009  68.118  0.00  0.00    -0.271 OA
ATOM     45  N6  non d ame      -8.253  11.114  67.275  0.00  0.00    -0.355 N 
ATOM     46  H46 non d ame      -7.380  10.661  67.047  0.00  0.00     0.162 HD
BRANCH  45  47
ATOM     47  C20 non d ame      -9.531  10.413  67.026  0.00  0.00     0.013 C 
ATOM     48  H30 non d ame     -10.340  11.062  67.359  0.00  0.00     0.072 H 
BRANCH  47  49
ATOM     49  C21 non d ame      -9.551   9.119  67.808  0.00  0.00    -0.038 C 
ATOM     50  H31 non d ame      -8.556   8.689  67.693  0.00  0.00     0.036 H 
ATOM     51  H32 non d ame      -9.921   9.381  68.800  0.00  0.00     0.036 H 
BRANCH  49  52
ATOM     52  C22 non d ame     -10.543   8.085  67.231  0.00  0.00     0.018 C 
ATOM     53  H33 non d ame     -11.536   8.445  67.503  0.00  0.00     0.048 H 
ATOM     54  H34 non d ame     -10.273   7.971  66.181  0.00  0.00     0.048 H 
BRANCH  52  55
ATOM     55  C23 non d ame     -10.412   6.672  67.863  0.00  0.00     0.259 C 
ATOM     56  O7  non d ame      -9.511   5.958  67.563  0.00  0.00    -0.265 OA
BRANCH  55  57
ATOM     57  O8  non d ame     -11.390   6.233  68.798  0.00  0.00    -0.317 OA
BRANCH  57  58
ATOM     58  C29 non d ame     -10.988   6.361  70.165  0.00  0.00     0.052 C 
ATOM     59  H47 non d ame     -11.221   5.403  70.631  0.00  0.00     0.082 H 
ATOM     60  H48 non d ame      -9.959   6.717  70.138  0.00  0.00     0.082 H 
BRANCH  58  61
ATOM     61  C35 non d ame     -11.869   7.455  70.824  0.00  0.00    -0.034 A 
ATOM     62  C30 non d ame     -13.130   7.133  71.315  0.00  0.00    -0.075 A 
ATOM     63  C31 non d ame     -13.922   8.116  71.906  0.00  0.00    -0.082 A 
ATOM     64  H49 non d ame     -13.498   6.110  71.236  0.00  0.00     0.084 H 
ATOM     65  C32 non d ame     -13.449   9.427  72.004  0.00  0.00    -0.083 A 
ATOM     66  H50 non d ame     -14.909   7.859  72.292  0.00  0.00     0.083 H 
ATOM     67  C33 non d ame     -12.191   9.745  71.510  0.00  0.00    -0.082 A 
ATOM     68  H51 non d ame     -14.061  10.202  72.466  0.00  0.00     0.083 H 
ATOM     69  C34 non d ame     -11.395   8.765  70.920  0.00  0.00    -0.075 A 
ATOM     70  H52 non d ame     -11.826  10.770  71.586  0.00  0.00     0.083 H 
ATOM     71  H53 non d ame     -10.408   9.022  70.535  0.00  0.00     0.084 H 
ENDBRANCH  58  61
ENDBRANCH  57  58
ENDBRANCH  55  57
ENDBRANCH  52  55
ENDBRANCH  49  52
ENDBRANCH  47  49
BRANCH  47  72
ATOM     72  C24 non d ame      -9.672  10.110  65.536  0.00  0.00    -0.039 C 
ATOM     73  H35 non d ame      -8.681   9.795  65.208  0.00  0.00     0.036 H 
ATOM     74  H36 non d ame     -10.516   9.423  65.458  0.00  0.00     0.036 H 
BRANCH  72  75
ATOM     75  C25 non d ame     -10.052  11.422  64.698  0.00  0.00    -0.001 C 
ATOM     76  C26 non d ame     -11.441  12.078  65.284  0.00  0.00    -0.035 C 
ATOM     77  C27 non d ame     -12.299  12.274  64.255  0.00  0.00     0.085 C 
ATOM     78  H38 non d ame     -11.959  11.356  65.914  0.00  0.00     0.036 H 
ATOM     79  H39 non d ame     -11.251  13.086  65.653  0.00  0.00     0.036 H 
ATOM     80  N5  non d ame     -11.752  11.512  63.072  0.00  0.00    -0.049 N 
ATOM     81  H40 non d ame     -13.239  11.818  64.568  0.00  0.00     0.075 H 
ATOM     82  H41 non d ame     -12.256  13.342  64.040  0.00  0.00     0.075 H 
ATOM     83  C28 non d ame     -10.226  11.144  63.449  0.00  0.00     0.193 C 
ATOM     84  H42 non d ame     -12.284  10.656  63.013  0.00  0.00     0.280 HD
ATOM     85  H43 non d ame     -11.744  12.157  62.295  0.00  0.00     0.280 HD
ATOM     86  H44 non d ame      -9.397  11.697  63.006  0.00  0.00     0.129 H 
ATOM     87  H37 non d ame      -9.201  12.091  64.572  0.00  0.00     0.046 H 
BRANCH  83  88
ATOM     88  O6  non d ame      -9.965   9.770  63.160  0.00  0.00    -0.369 OA
ATOM     89  H45 non d ame      -9.019   9.637  63.064  0.00  0.00     0.212 HD
ENDBRANCH  83  88
ENDBRANCH  72  75
ENDBRANCH  47  72
ENDBRANCH  45  47
ENDBRANCH   1  43
BRANCH   1  90
ATOM     90  C16 non d ame      -6.348  12.791  69.458  0.00  0.00    -0.035 C 
ATOM     91  H21 non d ame      -6.531  13.617  70.145  0.00  0.00     0.037 H 
ATOM     92  H22 non d ame      -6.789  11.813  69.652  0.00  0.00     0.037 H 
BRANCH  90  93
ATOM     93  C17 non d ame      -4.801  12.578  69.426  0.00  0.00    -0.059 C 
ATOM     94  H23 non d ame      -4.333  13.561  69.367  0.00  0.00     0.038 H 
BRANCH  93  95
ATOM     95  C18 non d ame      -4.275  11.877  70.719  0.00  0.00    -0.073 C 
ATOM     96  H24 non d ame      -3.608  12.553  71.253  0.00  0.00     0.028 H 
ATOM     97  H25 non d ame      -5.119  11.618  71.360  0.00  0.00     0.028 H 
ATOM     98  H26 non d ame      -3.734  10.971  70.447  0.00  0.00     0.028 H 
ENDBRANCH  93  95
BRANCH  93  99
ATOM     99  C19 non d ame      -4.382  11.799  68.176  0.00  0.00    -0.073 C 
ATOM    100  H27 non d ame      -3.973  10.832  68.470  0.00  0.00     0.028 H 
ATOM    101  H28 non d ame      -5.251  11.647  67.535  0.00  0.00     0.028 H 
ATOM    102  H29 non d ame      -3.625  12.364  67.632  0.00  0.00     0.028 H 
ENDBRANCH  93  99
ENDBRANCH  90  93
ENDBRANCH   1  90
TORSDOF 26
ENDMDL
MODEL 8
REMARK VINA RESULT:      -6.5      2.869      7.692
REMARK  26 active torsions:
REMARK  status: ('A' for Active; 'I' for Inactive)
REMARK    1  A    between atoms: C2_2  and  C3_3 
REMARK    2  A    between atoms: C4_6  and  C5_7 
REMARK       I    between atoms: C5_7  and  N2_9 
REMARK    3  A    between atoms: N2_9  and  C6_10 
REMARK    4  A    between atoms: C6_10  and  C7_11 
REMARK    5  A    between atoms: C6_10  and  C8_13 
REMARK       I    between atoms: C7_11  and  N3_14 
REMARK    6  A    between atoms: N3_14  and  C9_15 
REMARK    7  A    between atoms: C9_15  and  C10_16 
REMARK    8  A    between atoms: C9_15  and  C11_18 
REMARK       I    between atoms: C10_16  and  N4_21 
REMARK    9  A    between atoms: C11_18  and  C12_19 
REMARK   10  A    between atoms: C11_18  and  C13_20 
REMARK   11  A    between atoms: N4_21  and  C14_22 
REMARK   12  A    between atoms: C14_22  and  C15_23 
REMARK   13  A    between atoms: C14_22  and  C16_25 
REMARK       I    between atoms: C15_23  and  N6_40 
REMARK   14  A    between atoms: C16_25  and  C17_26 
REMARK   15  A    between atoms: C17_26  and  C18_27 
REMARK   16  A    between atoms: C17_26  and  C19_28 
REMARK   17  A    between atoms: C20_29  and  C21_30 
REMARK   18  A    between atoms: C20_29  and  C24_33 
REMARK   19  A    between atoms: C20_29  and  N6_40 
REMARK   20  A    between atoms: C21_30  and  C22_31 
REMARK   21  A    between atoms: C22_31  and  C23_32 
REMARK   22  A    between atoms: C23_32  and  O8_43 
REMARK   23  A    between atoms: C24_33  and  C25_34 
REMARK   24  A    between atoms: C28_38  and  O6_39 
REMARK   25  A    between atoms: C29_42  and  O8_43 
REMARK   26  A    between atoms: C29_42  and  C35_49 
ROOT
ATOM      1  C14 non d ame     -10.065   9.299  66.837  0.00  0.00     0.089 C 
ATOM      2  H20 non d ame     -11.082   8.908  66.870  0.00  0.00     0.087 H 
ENDROOT
BRANCH   1   3
ATOM      3  N4  non d ame     -10.149  10.712  66.500  0.00  0.00    -0.346 N 
ATOM      4  C10 non d ame     -11.281  11.555  67.031  0.00  0.00     0.241 C 
ATOM      5  O4  non d ame     -12.114  11.073  67.725  0.00  0.00    -0.271 OA
ATOM      6  H19 non d ame      -9.431  11.103  65.906  0.00  0.00     0.163 HD
BRANCH   4   7
ATOM      7  C9  non d ame     -11.350  13.018  66.677  0.00  0.00     0.092 C 
ATOM      8  H11 non d ame     -12.382  13.358  66.758  0.00  0.00     0.088 H 
BRANCH   7   9
ATOM      9  N3  non d ame     -10.561  13.791  67.641  0.00  0.00    -0.346 N 
ATOM     10  C7  non d ame     -11.218  14.459  68.738  0.00  0.00     0.240 C 
ATOM     11  O3  non d ame     -12.380  14.385  68.859  0.00  0.00    -0.271 OA
ATOM     12  H10 non d ame      -9.558  13.865  67.548  0.00  0.00     0.163 HD
BRANCH  10  13
ATOM     13  C6  non d ame     -10.373  15.284  69.759  0.00  0.00     0.086 C 
ATOM     14  H6  non d ame      -9.757  14.655  70.401  0.00  0.00     0.086 H 
BRANCH  13  15
ATOM     15  N2  non d ame      -9.464  16.150  69.027  0.00  0.00    -0.343 N 
ATOM     16  C5  non d ame     -10.004  17.244  68.218  0.00  0.00     0.273 C 
ATOM     17  O2  non d ame     -11.172  17.418  68.160  0.00  0.00    -0.266 OA
ATOM     18  H5  non d ame      -8.467  15.993  69.080  0.00  0.00     0.163 HD
BRANCH  16  19
ATOM     19  C4  non d ame      -9.054  18.169  67.441  0.00  0.00     0.154 A 
ATOM     20  C1  non d ame      -8.247  19.223  67.973  0.00  0.00    -0.017 A 
ATOM     21  C2  non d ame      -7.566  19.759  66.856  0.00  0.00     0.077 A 
ATOM     22  H1  non d ame      -8.166  19.550  69.010  0.00  0.00     0.091 H 
ATOM     23  O1  non d ame      -7.945  19.083  65.811  0.00  0.00    -0.218 OA
ATOM     24  N1  non d ame      -8.813  18.150  66.127  0.00  0.00    -0.123 NA
BRANCH  21  25
ATOM     25  C3  non d ame      -6.573  20.913  66.874  0.00  0.00    -0.029 C 
ATOM     26  H2  non d ame      -6.238  21.089  67.897  0.00  0.00     0.036 H 
ATOM     27  H3  non d ame      -5.715  20.664  66.249  0.00  0.00     0.036 H 
ATOM     28  H4  non d ame      -7.053  21.813  66.489  0.00  0.00     0.036 H 
ENDBRANCH  21  25
ENDBRANCH  16  19
ENDBRANCH  13  15
BRANCH  13  29
ATOM     29  C8  non d ame     -11.292  16.110  70.622  0.00  0.00    -0.049 C 
ATOM     30  H7  non d ame     -12.161  16.417  70.040  0.00  0.00     0.030 H 
ATOM     31  H8  non d ame     -11.617  15.518  71.478  0.00  0.00     0.030 H 
ATOM     32  H9  non d ame     -10.761  16.995  70.974  0.00  0.00     0.030 H 
ENDBRANCH  13  29
ENDBRANCH  10  13
ENDBRANCH   7   9
BRANCH   7  33
ATOM     33  C11 non d ame     -10.773  13.233  65.247  0.00  0.00    -0.033 C 
ATOM     34  H12 non d ame      -9.913  12.572  65.137  0.00  0.00     0.042 H 
BRANCH  33  35
ATOM     35  C12 non d ame     -11.811  12.839  64.150  0.00  0.00    -0.071 C 
ATOM     36  H13 non d ame     -12.400  11.990  64.496  0.00  0.00     0.028 H 
ATOM     37  H14 non d ame     -12.471  13.684  63.956  0.00  0.00     0.028 H 
ATOM     38  H15 non d ame     -11.286  12.570  63.234  0.00  0.00     0.028 H 
ENDBRANCH  33  35
BRANCH  33  39
ATOM     39  C13 non d ame     -10.279  14.703  65.059  0.00  0.00    -0.071 C 
ATOM     40  H16 non d ame     -10.697  15.331  65.846  0.00  0.00     0.028 H 
ATOM     41  H17 non d ame      -9.190  14.731  65.112  0.00  0.00     0.028 H 
ATOM     42  H18 non d ame     -10.605  15.074  64.087  0.00  0.00     0.028 H 
ENDBRANCH  33  39
ENDBRANCH   7  33
ENDBRANCH   4   7
ENDBRANCH   1   3
BRANCH   1  43
ATOM     43  C15 non d ame      -9.336   9.158  68.204  0.00  0.00     0.240 C 
ATOM     44  O5  non d ame      -8.358   9.797  68.421  0.00  0.00    -0.271 OA
ATOM     45  N6  non d ame      -9.862   8.231  69.246  0.00  0.00    -0.355 N 
ATOM     46  H46 non d ame     -10.695   7.686  69.075  0.00  0.00     0.162 HD
BRANCH  45  47
ATOM     47  C20 non d ame      -9.159   8.109  70.541  0.00  0.00     0.013 C 
ATOM     48  H30 non d ame      -8.243   8.696  70.482  0.00  0.00     0.072 H 
BRANCH  47  49
ATOM     49  C21 non d ame      -8.826   6.656  70.794  0.00  0.00    -0.038 C 
ATOM     50  H31 non d ame      -8.206   6.647  71.691  0.00  0.00     0.036 H 
ATOM     51  H32 non d ame      -9.781   6.130  70.786  0.00  0.00     0.036 H 
BRANCH  49  52
ATOM     52  C22 non d ame      -7.974   6.031  69.668  0.00  0.00     0.018 C 
ATOM     53  H33 non d ame      -7.833   6.822  68.931  0.00  0.00     0.048 H 
ATOM     54  H34 non d ame      -7.110   5.587  70.163  0.00  0.00     0.048 H 
BRANCH  52  55
ATOM     55  C23 non d ame      -8.682   4.869  68.918  0.00  0.00     0.259 C 
ATOM     56  O7  non d ame      -9.512   4.217  69.463  0.00  0.00    -0.265 OA
BRANCH  55  57
ATOM     57  O8  non d ame      -8.318   4.583  67.573  0.00  0.00    -0.317 OA
BRANCH  57  58
ATOM     58  C29 non d ame      -7.258   5.401  67.070  0.00  0.00     0.052 C 
ATOM     59  H47 non d ame      -7.431   6.395  67.484  0.00  0.00     0.082 H 
ATOM     60  H48 non d ame      -6.337   4.867  67.303  0.00  0.00     0.082 H 
BRANCH  58  61
ATOM     61  C35 non d ame      -7.403   5.479  65.527  0.00  0.00    -0.034 A 
ATOM     62  C30 non d ame      -8.598   5.106  64.920  0.00  0.00    -0.075 A 
ATOM     63  C31 non d ame      -8.729   5.176  63.534  0.00  0.00    -0.082 A 
ATOM     64  H49 non d ame      -9.432   4.760  65.531  0.00  0.00     0.084 H 
ATOM     65  C32 non d ame      -7.657   5.618  62.754  0.00  0.00    -0.083 A 
ATOM     66  H50 non d ame      -9.667   4.885  63.062  0.00  0.00     0.083 H 
ATOM     67  C33 non d ame      -6.465   5.985  63.363  0.00  0.00    -0.082 A 
ATOM     68  H51 non d ame      -7.751   5.676  61.669  0.00  0.00     0.083 H 
ATOM     69  C34 non d ame      -6.331   5.920  64.749  0.00  0.00    -0.075 A 
ATOM     70  H52 non d ame      -5.630   6.328  62.751  0.00  0.00     0.083 H 
ATOM     71  H53 non d ame      -5.392   6.211  65.220  0.00  0.00     0.084 H 
ENDBRANCH  58  61
ENDBRANCH  57  58
ENDBRANCH  55  57
ENDBRANCH  52  55
ENDBRANCH  49  52
ENDBRANCH  47  49
BRANCH  47  72
ATOM     72  C24 non d ame     -10.052   8.631  71.665  0.00  0.00    -0.039 C 
ATOM     73  H35 non d ame      -9.922   7.928  72.488  0.00  0.00     0.036 H 
ATOM     74  H36 non d ame      -9.775   9.677  71.793  0.00  0.00     0.036 H 
BRANCH  72  75
ATOM     75  C25 non d ame     -11.600   8.599  71.255  0.00  0.00    -0.001 C 
ATOM     76  C26 non d ame     -12.181  10.133  71.141  0.00  0.00    -0.035 C 
ATOM     77  C27 non d ame     -13.312  10.227  71.881  0.00  0.00     0.085 C 
ATOM     78  H38 non d ame     -11.499  10.828  71.630  0.00  0.00     0.036 H 
ATOM     79  H39 non d ame     -12.524  10.328  70.125  0.00  0.00     0.036 H 
ATOM     80  N5  non d ame     -13.376   8.993  72.748  0.00  0.00    -0.049 N 
ATOM     81  H40 non d ame     -13.173  11.102  72.517  0.00  0.00     0.075 H 
ATOM     82  H41 non d ame     -14.132  10.199  71.163  0.00  0.00     0.075 H 
ATOM     83  C28 non d ame     -12.302   7.959  72.130  0.00  0.00     0.193 C 
ATOM     84  H42 non d ame     -13.062   9.273  73.667  0.00  0.00     0.280 HD
ATOM     85  H43 non d ame     -14.301   8.606  72.627  0.00  0.00     0.280 HD
ATOM     86  H44 non d ame     -12.632   7.107  71.535  0.00  0.00     0.129 H 
ATOM     87  H37 non d ame     -11.791   7.932  70.414  0.00  0.00     0.046 H 
BRANCH  83  88
ATOM     88  O6  non d ame     -11.493   7.407  73.171  0.00  0.00    -0.369 OA
ATOM     89  H45 non d ame     -12.059   7.036  73.852  0.00  0.00     0.212 HD
ENDBRANCH  83  88
ENDBRANCH  72  75
ENDBRANCH  47  72
ENDBRANCH  45  47
ENDBRANCH   1  43
BRANCH   1  90
ATOM     90  C16 non d ame      -9.272   8.578  65.758  0.00  0.00    -0.035 C 
ATOM     91  H21 non d ame      -8.534   7.979  66.293  0.00  0.00     0.037 H 
ATOM     92  H22 non d ame     -10.017   8.091  65.129  0.00  0.00     0.037 H 
BRANCH  90  93
ATOM     93  C17 non d ame      -8.467   9.539  64.825  0.00  0.00    -0.059 C 
ATOM     94  H23 non d ame      -8.857  10.546  64.972  0.00  0.00     0.038 H 
BRANCH  93  95
ATOM     95  C18 non d ame      -6.945   9.560  65.174  0.00  0.00    -0.073 C 
ATOM     96  H24 non d ame      -6.813   9.887  66.205  0.00  0.00     0.028 H 
ATOM     97  H25 non d ame      -6.530   8.559  65.054  0.00  0.00     0.028 H 
ATOM     98  H26 non d ame      -6.429  10.250  64.505  0.00  0.00     0.028 H 
ENDBRANCH  93  95
BRANCH  93  99
ATOM     99  C19 non d ame      -8.684   9.179  63.353  0.00  0.00    -0.073 C 
ATOM    100  H27 non d ame      -7.852   9.560  62.759  0.00  0.00     0.028 H 
ATOM    101  H28 non d ame      -8.738   8.095  63.248  0.00  0.00     0.028 H 
ATOM    102  H29 non d ame      -9.615   9.624  63.003  0.00  0.00     0.028 H 
ENDBRANCH  93  99
ENDBRANCH  90  93
ENDBRANCH   1  90
TORSDOF 26
ENDMDL
MODEL 9
REMARK VINA RESULT:      -6.5      3.155      7.429
REMARK  26 active torsions:
REMARK  status: ('A' for Active; 'I' for Inactive)
REMARK    1  A    between atoms: C2_2  and  C3_3 
REMARK    2  A    between atoms: C4_6  and  C5_7 
REMARK       I    between atoms: C5_7  and  N2_9 
REMARK    3  A    between atoms: N2_9  and  C6_10 
REMARK    4  A    between atoms: C6_10  and  C7_11 
REMARK    5  A    between atoms: C6_10  and  C8_13 
REMARK       I    between atoms: C7_11  and  N3_14 
REMARK    6  A    between atoms: N3_14  and  C9_15 
REMARK    7  A    between atoms: C9_15  and  C10_16 
REMARK    8  A    between atoms: C9_15  and  C11_18 
REMARK       I    between atoms: C10_16  and  N4_21 
REMARK    9  A    between atoms: C11_18  and  C12_19 
REMARK   10  A    between atoms: C11_18  and  C13_20 
REMARK   11  A    between atoms: N4_21  and  C14_22 
REMARK   12  A    between atoms: C14_22  and  C15_23 
REMARK   13  A    between atoms: C14_22  and  C16_25 
REMARK       I    between atoms: C15_23  and  N6_40 
REMARK   14  A    between atoms: C16_25  and  C17_26 
REMARK   15  A    between atoms: C17_26  and  C18_27 
REMARK   16  A    between atoms: C17_26  and  C19_28 
REMARK   17  A    between atoms: C20_29  and  C21_30 
REMARK   18  A    between atoms: C20_29  and  C24_33 
REMARK   19  A    between atoms: C20_29  and  N6_40 
REMARK   20  A    between atoms: C21_30  and  C22_31 
REMARK   21  A    between atoms: C22_31  and  C23_32 
REMARK   22  A    between atoms: C23_32  and  O8_43 
REMARK   23  A    between atoms: C24_33  and  C25_34 
REMARK   24  A    between atoms: C28_38  and  O6_39 
REMARK   25  A    between atoms: C29_42  and  O8_43 
REMARK   26  A    between atoms: C29_42  and  C35_49 
ROOT
ATOM      1  C14 non d ame     -10.774   8.858  69.689  0.00  0.00     0.089 C 
ATOM      2  H20 non d ame     -11.733   8.421  69.967  0.00  0.00     0.087 H 
ENDROOT
BRANCH   1   3
ATOM      3  N4  non d ame     -10.031   7.849  68.948  0.00  0.00    -0.346 N 
ATOM      4  C10 non d ame     -10.575   6.450  68.813  0.00  0.00     0.241 C 
ATOM      5  O4  non d ame     -11.612   6.158  69.311  0.00  0.00    -0.271 OA
ATOM      6  H19 non d ame      -9.150   8.117  68.534  0.00  0.00     0.163 HD
BRANCH   4   7
ATOM      7  C9  non d ame      -9.796   5.420  68.038  0.00  0.00     0.092 C 
ATOM      8  H11 non d ame     -10.473   4.882  67.375  0.00  0.00     0.088 H 
BRANCH   7   9
ATOM      9  N3  non d ame      -8.804   6.091  67.192  0.00  0.00    -0.346 N 
ATOM     10  C7  non d ame      -8.707   5.758  65.792  0.00  0.00     0.240 C 
ATOM     11  O3  non d ame      -9.419   4.951  65.330  0.00  0.00    -0.271 OA
ATOM     12  H10 non d ame      -8.183   6.788  67.577  0.00  0.00     0.163 HD
BRANCH  10  13
ATOM     13  C6  non d ame      -7.648   6.473  64.898  0.00  0.00     0.086 C 
ATOM     14  H6  non d ame      -7.190   5.805  64.169  0.00  0.00     0.086 H 
BRANCH  13  15
ATOM     15  N2  non d ame      -8.304   7.527  64.141  0.00  0.00    -0.343 N 
ATOM     16  C5  non d ame      -8.666   8.778  64.811  0.00  0.00     0.273 C 
ATOM     17  O2  non d ame      -8.428   8.926  65.959  0.00  0.00    -0.266 OA
ATOM     18  H5  non d ame      -8.506   7.390  63.161  0.00  0.00     0.163 HD
BRANCH  16  19
ATOM     19  C4  non d ame      -9.359   9.900  64.022  0.00  0.00     0.154 A 
ATOM     20  C1  non d ame     -10.508  10.655  64.421  0.00  0.00    -0.017 A 
ATOM     21  C2  non d ame     -10.740  11.553  63.355  0.00  0.00     0.077 A 
ATOM     22  H1  non d ame     -11.084  10.565  65.342  0.00  0.00     0.091 H 
ATOM     23  O1  non d ame      -9.826  11.332  62.456  0.00  0.00    -0.218 OA
ATOM     24  N1  non d ame      -9.008  10.372  62.823  0.00  0.00    -0.123 NA
BRANCH  21  25
ATOM     25  C3  non d ame     -11.855  12.587  63.275  0.00  0.00    -0.029 C 
ATOM     26  H2  non d ame     -12.718  12.154  62.770  0.00  0.00     0.036 H 
ATOM     27  H3  non d ame     -12.139  12.894  64.281  0.00  0.00     0.036 H 
ATOM     28  H4  non d ame     -11.506  13.456  62.716  0.00  0.00     0.036 H 
ENDBRANCH  21  25
ENDBRANCH  16  19
ENDBRANCH  13  15
BRANCH  13  29
ATOM     29  C8  non d ame      -6.566   7.060  65.768  0.00  0.00    -0.049 C 
ATOM     30  H7  non d ame      -7.019   7.579  66.612  0.00  0.00     0.030 H 
ATOM     31  H8  non d ame      -5.922   6.261  66.136  0.00  0.00     0.030 H 
ATOM     32  H9  non d ame      -5.973   7.765  65.185  0.00  0.00     0.030 H 
ENDBRANCH  13  29
ENDBRANCH  10  13
ENDBRANCH   7   9
BRANCH   7  33
ATOM     33  C11 non d ame      -9.067   4.466  69.030  0.00  0.00    -0.033 C 
ATOM     34  H12 non d ame      -9.613   4.494  69.973  0.00  0.00     0.042 H 
BRANCH  33  35
ATOM     35  C12 non d ame      -9.087   2.992  68.520  0.00  0.00    -0.071 C 
ATOM     36  H13 non d ame      -8.417   2.387  69.131  0.00  0.00     0.028 H 
ATOM     37  H14 non d ame     -10.100   2.596  68.592  0.00  0.00     0.028 H 
ATOM     38  H15 non d ame      -8.759   2.963  67.481  0.00  0.00     0.028 H 
ENDBRANCH  33  35
BRANCH  33  39
ATOM     39  C13 non d ame      -7.607   4.952  69.302  0.00  0.00    -0.071 C 
ATOM     40  H16 non d ame      -7.254   4.532  70.243  0.00  0.00     0.028 H 
ATOM     41  H17 non d ame      -6.958   4.622  68.491  0.00  0.00     0.028 H 
ATOM     42  H18 non d ame      -7.592   6.040  69.360  0.00  0.00     0.028 H 
ENDBRANCH  33  39
ENDBRANCH   7  33
ENDBRANCH   4   7
ENDBRANCH   1   3
BRANCH   1  43
ATOM     43  C15 non d ame     -10.940  10.114  68.785  0.00  0.00     0.240 C 
ATOM     44  O5  non d ame     -11.155   9.982  67.624  0.00  0.00    -0.271 OA
ATOM     45  N6  non d ame     -10.841  11.481  69.370  0.00  0.00    -0.355 N 
ATOM     46  H46 non d ame     -10.665  11.606  70.357  0.00  0.00     0.162 HD
BRANCH  45  47
ATOM     47  C20 non d ame     -11.004  12.665  68.498  0.00  0.00     0.013 C 
ATOM     48  H30 non d ame     -11.163  12.311  67.480  0.00  0.00     0.072 H 
BRANCH  47  49
ATOM     49  C21 non d ame      -9.750  13.508  68.563  0.00  0.00    -0.038 C 
ATOM     50  H31 non d ame     -10.075  14.493  68.900  0.00  0.00     0.036 H 
ATOM     51  H32 non d ame      -9.040  12.934  69.158  0.00  0.00     0.036 H 
BRANCH  49  52
ATOM     52  C22 non d ame      -9.095  13.715  67.180  0.00  0.00     0.018 C 
ATOM     53  H33 non d ame      -8.132  14.185  67.376  0.00  0.00     0.048 H 
ATOM     54  H34 non d ame      -9.137  12.744  66.685  0.00  0.00     0.048 H 
BRANCH  52  55
ATOM     55  C23 non d ame      -9.872  14.698  66.260  0.00  0.00     0.259 C 
ATOM     56  O7  non d ame      -9.934  14.506  65.089  0.00  0.00    -0.265 OA
BRANCH  55  57
ATOM     57  O8  non d ame     -10.498  15.840  66.831  0.00  0.00    -0.317 OA
BRANCH  57  58
ATOM     58  C29 non d ame     -10.682  16.922  65.915  0.00  0.00     0.052 C 
ATOM     59  H47 non d ame     -10.260  16.584  64.969  0.00  0.00     0.082 H 
ATOM     60  H48 non d ame     -11.738  17.185  65.977  0.00  0.00     0.082 H 
BRANCH  58  61
ATOM     61  C35 non d ame      -9.847  18.127  66.423  0.00  0.00    -0.034 A 
ATOM     62  C30 non d ame      -8.457  18.056  66.436  0.00  0.00    -0.075 A 
ATOM     63  C31 non d ame      -7.707  19.138  66.893  0.00  0.00    -0.082 A 
ATOM     64  H49 non d ame      -7.957  17.152  66.088  0.00  0.00     0.084 H 
ATOM     65  C32 non d ame      -8.350  20.295  67.341  0.00  0.00    -0.083 A 
ATOM     66  H50 non d ame      -6.618  19.079  66.900  0.00  0.00     0.083 H 
ATOM     67  C33 non d ame      -9.737  20.360  67.329  0.00  0.00    -0.082 A 
ATOM     68  H51 non d ame      -7.771  21.145  67.699  0.00  0.00     0.083 H 
ATOM     69  C34 non d ame     -10.491  19.282  66.871  0.00  0.00    -0.075 A 
ATOM     70  H52 non d ame     -10.237  21.263  67.681  0.00  0.00     0.083 H 
ATOM     71  H53 non d ame     -11.580  19.342  66.864  0.00  0.00     0.084 H 
ENDBRANCH  58  61
ENDBRANCH  57  58
ENDBRANCH  55  57
ENDBRANCH  52  55
ENDBRANCH  49  52
ENDBRANCH  47  49
BRANCH  47  72
ATOM     72  C24 non d ame     -12.199  13.491  68.966  0.00  0.00    -0.039 C 
ATOM     73  H35 non d ame     -12.218  14.368  68.318  0.00  0.00     0.036 H 
ATOM     74  H36 non d ame     -13.043  12.802  68.975  0.00  0.00     0.036 H 
BRANCH  72  75
ATOM     75  C25 non d ame     -12.005  14.018  70.467  0.00  0.00    -0.001 C 
ATOM     76  C26 non d ame     -13.097  13.295  71.460  0.00  0.00    -0.035 C 
ATOM     77  C27 non d ame     -13.741  14.252  72.171  0.00  0.00     0.085 C 
ATOM     78  H38 non d ame     -13.892  12.837  70.872  0.00  0.00     0.036 H 
ATOM     79  H39 non d ame     -12.581  12.714  72.224  0.00  0.00     0.036 H 
ATOM     80  N5  non d ame     -13.421  15.576  71.520  0.00  0.00    -0.049 N 
ATOM     81  H40 non d ame     -14.804  14.042  72.046  0.00  0.00     0.075 H 
ATOM     82  H41 non d ame     -13.293  14.227  73.164  0.00  0.00     0.075 H 
ATOM     83  C28 non d ame     -12.170  15.297  70.538  0.00  0.00     0.193 C 
ATOM     84  H42 non d ame     -14.223  15.820  70.958  0.00  0.00     0.280 HD
ATOM     85  H43 non d ame     -13.117  16.192  72.260  0.00  0.00     0.280 HD
ATOM     86  H44 non d ame     -11.165  15.611  70.819  0.00  0.00     0.129 H 
ATOM     87  H37 non d ame     -10.961  13.998  70.779  0.00  0.00     0.046 H 
BRANCH  83  88
ATOM     88  O6  non d ame     -12.409  15.882  69.257  0.00  0.00    -0.369 OA
ATOM     89  H45 non d ame     -12.840  15.240  68.688  0.00  0.00     0.212 HD
ENDBRANCH  83  88
ENDBRANCH  72  75
ENDBRANCH  47  72
ENDBRANCH  45  47
ENDBRANCH   1  43
BRANCH   1  90
ATOM     90  C16 non d ame      -9.995   9.229  70.941  0.00  0.00    -0.035 C 
ATOM     91  H21 non d ame      -8.964   8.937  70.736  0.00  0.00     0.037 H 
ATOM     92  H22 non d ame     -10.237  10.275  71.132  0.00  0.00     0.037 H 
BRANCH  90  93
ATOM     93  C17 non d ame     -10.434   8.434  72.211  0.00  0.00    -0.059 C 
ATOM     94  H23 non d ame     -10.233   9.061  73.080  0.00  0.00     0.038 H 
BRANCH  93  95
ATOM     95  C18 non d ame     -11.962   8.107  72.202  0.00  0.00    -0.073 C 
ATOM     96  H24 non d ame     -12.261   7.799  71.201  0.00  0.00     0.028 H 
ATOM     97  H25 non d ame     -12.165   7.301  72.907  0.00  0.00     0.028 H 
ATOM     98  H26 non d ame     -12.525   8.994  72.493  0.00  0.00     0.028 H 
ENDBRANCH  93  95
BRANCH  93  99
ATOM     99  C19 non d ame      -9.605   7.157  72.371  0.00  0.00    -0.073 C 
ATOM    100  H27 non d ame      -9.632   6.834  73.412  0.00  0.00     0.028 H 
ATOM    101  H28 non d ame     -10.019   6.373  71.736  0.00  0.00     0.028 H 
ATOM    102  H29 non d ame      -8.574   7.354  72.078  0.00  0.00     0.028 H 
ENDBRANCH  93  99
ENDBRANCH  90  93
ENDBRANCH   1  90
TORSDOF 26
ENDMDL
MODEL 10
REMARK VINA RESULT:      -6.4      3.378      7.988
REMARK  26 active torsions:
REMARK  status: ('A' for Active; 'I' for Inactive)
REMARK    1  A    between atoms: C2_2  and  C3_3 
REMARK    2  A    between atoms: C4_6  and  C5_7 
REMARK       I    between atoms: C5_7  and  N2_9 
REMARK    3  A    between atoms: N2_9  and  C6_10 
REMARK    4  A    between atoms: C6_10  and  C7_11 
REMARK    5  A    between atoms: C6_10  and  C8_13 
REMARK       I    between atoms: C7_11  and  N3_14 
REMARK    6  A    between atoms: N3_14  and  C9_15 
REMARK    7  A    between atoms: C9_15  and  C10_16 
REMARK    8  A    between atoms: C9_15  and  C11_18 
REMARK       I    between atoms: C10_16  and  N4_21 
REMARK    9  A    between atoms: C11_18  and  C12_19 
REMARK   10  A    between atoms: C11_18  and  C13_20 
REMARK   11  A    between atoms: N4_21  and  C14_22 
REMARK   12  A    between atoms: C14_22  and  C15_23 
REMARK   13  A    between atoms: C14_22  and  C16_25 
REMARK       I    between atoms: C15_23  and  N6_40 
REMARK   14  A    between atoms: C16_25  and  C17_26 
REMARK   15  A    between atoms: C17_26  and  C18_27 
REMARK   16  A    between atoms: C17_26  and  C19_28 
REMARK   17  A    between atoms: C20_29  and  C21_30 
REMARK   18  A    between atoms: C20_29  and  C24_33 
REMARK   19  A    between atoms: C20_29  and  N6_40 
REMARK   20  A    between atoms: C21_30  and  C22_31 
REMARK   21  A    between atoms: C22_31  and  C23_32 
REMARK   22  A    between atoms: C23_32  and  O8_43 
REMARK   23  A    between atoms: C24_33  and  C25_34 
REMARK   24  A    between atoms: C28_38  and  O6_39 
REMARK   25  A    between atoms: C29_42  and  O8_43 
REMARK   26  A    between atoms: C29_42  and  C35_49 
ROOT
ATOM      1  C14 non d ame     -10.540   8.855  69.398  0.00  0.00     0.089 C 
ATOM      2  H20 non d ame     -11.581   8.702  69.683  0.00  0.00     0.087 H 
ENDROOT
BRANCH   1   3
ATOM      3  N4  non d ame      -9.982   7.554  69.060  0.00  0.00    -0.346 N 
ATOM      4  C10 non d ame     -10.704   6.290  69.454  0.00  0.00     0.241 C 
ATOM      5  O4  non d ame     -11.731   6.345  70.046  0.00  0.00    -0.271 OA
ATOM      6  H19 non d ame      -9.105   7.529  68.559  0.00  0.00     0.163 HD
BRANCH   4   7
ATOM      7  C9  non d ame     -10.114   4.952  69.091  0.00  0.00     0.092 C 
ATOM      8  H11 non d ame     -10.861   4.364  68.557  0.00  0.00     0.088 H 
BRANCH   7   9
ATOM      9  N3  non d ame      -8.984   5.147  68.179  0.00  0.00    -0.346 N 
ATOM     10  C7  non d ame      -9.016   4.569  66.858  0.00  0.00     0.240 C 
ATOM     11  O3  non d ame      -9.943   3.943  66.513  0.00  0.00    -0.271 OA
ATOM     12  H10 non d ame      -8.176   5.684  68.462  0.00  0.00     0.163 HD
BRANCH  10  13
ATOM     13  C6  non d ame      -7.808   4.777  65.892  0.00  0.00     0.086 C 
ATOM     14  H6  non d ame      -7.903   4.207  64.968  0.00  0.00     0.086 H 
BRANCH  13  15
ATOM     15  N2  non d ame      -7.745   6.178  65.511  0.00  0.00    -0.343 N 
ATOM     16  C5  non d ame      -7.505   6.535  64.111  0.00  0.00     0.273 C 
ATOM     17  O2  non d ame      -7.361   5.688  63.300  0.00  0.00    -0.266 OA
ATOM     18  H5  non d ame      -7.867   6.896  66.211  0.00  0.00     0.163 HD
BRANCH  16  19
ATOM     19  C4  non d ame      -7.438   8.012  63.694  0.00  0.00     0.154 A 
ATOM     20  C1  non d ame      -7.864   8.580  62.451  0.00  0.00    -0.017 A 
ATOM     21  C2  non d ame      -7.590   9.961  62.569  0.00  0.00     0.077 A 
ATOM     22  H1  non d ame      -8.305   8.069  61.595  0.00  0.00     0.091 H 
ATOM     23  O1  non d ame      -7.069  10.153  63.746  0.00  0.00    -0.218 OA
ATOM     24  N1  non d ame      -6.970   9.031  64.421  0.00  0.00    -0.123 NA
BRANCH  21  25
ATOM     25  C3  non d ame      -7.856  11.027  61.514  0.00  0.00    -0.029 C 
ATOM     26  H2  non d ame      -7.262  11.914  61.736  0.00  0.00     0.036 H 
ATOM     27  H3  non d ame      -7.582  10.642  60.532  0.00  0.00     0.036 H 
ATOM     28  H4  non d ame      -8.915  11.287  61.519  0.00  0.00     0.036 H 
ENDBRANCH  21  25
ENDBRANCH  16  19
ENDBRANCH  13  15
BRANCH  13  29
ATOM     29  C8  non d ame      -6.532   4.373  66.585  0.00  0.00    -0.049 C 
ATOM     30  H7  non d ame      -5.745   4.231  65.844  0.00  0.00     0.030 H 
ATOM     31  H8  non d ame      -6.235   5.153  67.286  0.00  0.00     0.030 H 
ATOM     32  H9  non d ame      -6.692   3.440  67.126  0.00  0.00     0.030 H 
ENDBRANCH  13  29
ENDBRANCH  10  13
ENDBRANCH   7   9
BRANCH   7  33
ATOM     33  C11 non d ame      -9.619   4.237  70.382  0.00  0.00    -0.033 C 
ATOM     34  H12 non d ame     -10.413   4.310  71.124  0.00  0.00     0.042 H 
BRANCH  33  35
ATOM     35  C12 non d ame      -9.355   2.720  70.125  0.00  0.00    -0.071 C 
ATOM     36  H13 non d ame      -8.583   2.365  70.808  0.00  0.00     0.028 H 
ATOM     37  H14 non d ame     -10.273   2.158  70.292  0.00  0.00     0.028 H 
ATOM     38  H15 non d ame      -9.024   2.578  69.097  0.00  0.00     0.028 H 
ENDBRANCH  33  35
BRANCH  33  39
ATOM     39  C13 non d ame      -8.350   4.942  70.960  0.00  0.00    -0.071 C 
ATOM     40  H16 non d ame      -8.056   4.456  71.890  0.00  0.00     0.028 H 
ATOM     41  H17 non d ame      -7.535   4.872  70.240  0.00  0.00     0.028 H 
ATOM     42  H18 non d ame      -8.575   5.991  71.154  0.00  0.00     0.028 H 
ENDBRANCH  33  39
ENDBRANCH   7  33
ENDBRANCH   4   7
ENDBRANCH   1   3
BRANCH   1  43
ATOM     43  C15 non d ame     -10.400   9.790  68.163  0.00  0.00     0.240 C 
ATOM     44  O5  non d ame     -10.499   9.340  67.067  0.00  0.00    -0.271 OA
ATOM     45  N6  non d ame     -10.153  11.249  68.346  0.00  0.00    -0.355 N 
ATOM     46  H46 non d ame     -10.072  11.643  69.272  0.00  0.00     0.162 HD
BRANCH  45  47
ATOM     47  C20 non d ame     -10.024  12.124  67.162  0.00  0.00     0.013 C 
ATOM     48  H30 non d ame      -9.671  11.514  66.330  0.00  0.00     0.072 H 
BRANCH  47  49
ATOM     49  C21 non d ame      -9.025  13.221  67.457  0.00  0.00    -0.038 C 
ATOM     50  H31 non d ame      -8.684  13.041  68.477  0.00  0.00     0.036 H 
ATOM     51  H32 non d ame      -8.313  13.201  66.632  0.00  0.00     0.036 H 
BRANCH  49  52
ATOM     52  C22 non d ame      -9.661  14.628  67.451  0.00  0.00     0.018 C 
ATOM     53  H33 non d ame      -9.138  15.185  66.674  0.00  0.00     0.048 H 
ATOM     54  H34 non d ame     -10.737  14.466  67.374  0.00  0.00     0.048 H 
BRANCH  52  55
ATOM     55  C23 non d ame      -9.441  15.421  68.769  0.00  0.00     0.259 C 
ATOM     56  O7  non d ame      -8.397  15.373  69.335  0.00  0.00    -0.265 OA
BRANCH  55  57
ATOM     57  O8  non d ame     -10.507  16.197  69.302  0.00  0.00    -0.317 OA
BRANCH  57  58
ATOM     58  C29 non d ame     -11.779  15.543  69.264  0.00  0.00     0.052 C 
ATOM     59  H47 non d ame     -12.407  16.157  68.619  0.00  0.00     0.082 H 
ATOM     60  H48 non d ame     -11.570  14.507  68.996  0.00  0.00     0.082 H 
BRANCH  58  61
ATOM     61  C35 non d ame     -12.373  15.568  70.698  0.00  0.00    -0.034 A 
ATOM     62  C30 non d ame     -11.609  16.037  71.761  0.00  0.00    -0.075 A 
ATOM     63  C31 non d ame     -12.143  16.060  73.048  0.00  0.00    -0.082 A 
ATOM     64  H49 non d ame     -10.591  16.387  71.586  0.00  0.00     0.084 H 
ATOM     65  C32 non d ame     -13.447  15.609  73.271  0.00  0.00    -0.083 A 
ATOM     66  H50 non d ame     -11.542  16.430  73.879  0.00  0.00     0.083 H 
ATOM     67  C33 non d ame     -14.205  15.139  72.207  0.00  0.00    -0.082 A 
ATOM     68  H51 non d ame     -13.872  15.625  74.275  0.00  0.00     0.083 H 
ATOM     69  C34 non d ame     -13.676  15.117  70.919  0.00  0.00    -0.075 A 
ATOM     70  H52 non d ame     -15.221  14.786  72.385  0.00  0.00     0.083 H 
ATOM     71  H53 non d ame     -14.278  14.747  70.088  0.00  0.00     0.084 H 
ENDBRANCH  58  61
ENDBRANCH  57  58
ENDBRANCH  55  57
ENDBRANCH  52  55
ENDBRANCH  49  52
ENDBRANCH  47  49
BRANCH  47  72
ATOM     72  C24 non d ame     -11.379  12.745  66.828  0.00  0.00    -0.039 C 
ATOM     73  H35 non d ame     -12.044  12.439  67.636  0.00  0.00     0.036 H 
ATOM     74  H36 non d ame     -11.179  13.803  66.658  0.00  0.00     0.036 H 
BRANCH  72  75
ATOM     75  C25 non d ame     -11.983  12.153  65.468  0.00  0.00    -0.001 C 
ATOM     76  C26 non d ame     -10.766  11.610  64.504  0.00  0.00    -0.035 C 
ATOM     77  C27 non d ame     -10.912  12.151  63.271  0.00  0.00     0.085 C 
ATOM     78  H38 non d ame      -9.812  12.010  64.846  0.00  0.00     0.036 H 
ATOM     79  H39 non d ame     -10.877  10.540  64.327  0.00  0.00     0.036 H 
ATOM     80  N5  non d ame     -11.924  13.265  63.394  0.00  0.00    -0.049 N 
ATOM     81  H40 non d ame      -9.940  12.580  63.023  0.00  0.00     0.075 H 
ATOM     82  H41 non d ame     -11.332  11.358  62.653  0.00  0.00     0.075 H 
ATOM     83  C28 non d ame     -12.648  13.051  64.821  0.00  0.00     0.193 C 
ATOM     84  H42 non d ame     -11.398  14.127  63.426  0.00  0.00     0.280 HD
ATOM     85  H43 non d ame     -12.605  13.116  62.663  0.00  0.00     0.280 HD
ATOM     86  H44 non d ame     -13.653  12.632  64.875  0.00  0.00     0.129 H 
ATOM     87  H37 non d ame     -12.815  11.471  65.648  0.00  0.00     0.046 H 
BRANCH  83  88
ATOM     88  O6  non d ame     -12.712  14.289  65.532  0.00  0.00    -0.369 OA
ATOM     89  H45 non d ame     -12.206  14.955  65.061  0.00  0.00     0.212 HD
ENDBRANCH  83  88
ENDBRANCH  72  75
ENDBRANCH  47  72
ENDBRANCH  45  47
ENDBRANCH   1  43
BRANCH   1  90
ATOM     90  C16 non d ame      -9.766   9.437  70.570  0.00  0.00    -0.035 C 
ATOM     91  H21 non d ame      -9.631  10.492  70.331  0.00  0.00     0.037 H 
ATOM     92  H22 non d ame     -10.327   9.148  71.459  0.00  0.00     0.037 H 
BRANCH  90  93
ATOM     93  C17 non d ame      -8.334   8.835  70.737  0.00  0.00    -0.059 C 
ATOM     94  H23 non d ame      -8.277   7.942  70.116  0.00  0.00     0.038 H 
BRANCH  93  95
ATOM     95  C18 non d ame      -7.221   9.821  70.257  0.00  0.00    -0.073 C 
ATOM     96  H24 non d ame      -7.595  10.843  70.309  0.00  0.00     0.028 H 
ATOM     97  H25 non d ame      -6.346   9.721  70.900  0.00  0.00     0.028 H 
ATOM     98  H26 non d ame      -6.946   9.586  69.229  0.00  0.00     0.028 H 
ENDBRANCH  93  95
BRANCH  93  99
ATOM     99  C19 non d ame      -8.090   8.400  72.184  0.00  0.00    -0.073 C 
ATOM    100  H27 non d ame      -8.475   7.390  72.330  0.00  0.00     0.028 H 
ATOM    101  H28 non d ame      -7.019   8.414  72.391  0.00  0.00     0.028 H 
ATOM    102  H29 non d ame      -8.599   9.085  72.861  0.00  0.00     0.028 H 
ENDBRANCH  93  99
ENDBRANCH  90  93
ENDBRANCH   1  90
TORSDOF 26
ENDMDL
MODEL 11
REMARK VINA RESULT:      -6.4      2.942      7.109
REMARK  26 active torsions:
REMARK  status: ('A' for Active; 'I' for Inactive)
REMARK    1  A    between atoms: C2_2  and  C3_3 
REMARK    2  A    between atoms: C4_6  and  C5_7 
REMARK       I    between atoms: C5_7  and  N2_9 
REMARK    3  A    between atoms: N2_9  and  C6_10 
REMARK    4  A    between atoms: C6_10  and  C7_11 
REMARK    5  A    between atoms: C6_10  and  C8_13 
REMARK       I    between atoms: C7_11  and  N3_14 
REMARK    6  A    between atoms: N3_14  and  C9_15 
REMARK    7  A    between atoms: C9_15  and  C10_16 
REMARK    8  A    between atoms: C9_15  and  C11_18 
REMARK       I    between atoms: C10_16  and  N4_21 
REMARK    9  A    between atoms: C11_18  and  C12_19 
REMARK   10  A    between atoms: C11_18  and  C13_20 
REMARK   11  A    between atoms: N4_21  and  C14_22 
REMARK   12  A    between atoms: C14_22  and  C15_23 
REMARK   13  A    between atoms: C14_22  and  C16_25 
REMARK       I    between atoms: C15_23  and  N6_40 
REMARK   14  A    between atoms: C16_25  and  C17_26 
REMARK   15  A    between atoms: C17_26  and  C18_27 
REMARK   16  A    between atoms: C17_26  and  C19_28 
REMARK   17  A    between atoms: C20_29  and  C21_30 
REMARK   18  A    between atoms: C20_29  and  C24_33 
REMARK   19  A    between atoms: C20_29  and  N6_40 
REMARK   20  A    between atoms: C21_30  and  C22_31 
REMARK   21  A    between atoms: C22_31  and  C23_32 
REMARK   22  A    between atoms: C23_32  and  O8_43 
REMARK   23  A    between atoms: C24_33  and  C25_34 
REMARK   24  A    between atoms: C28_38  and  O6_39 
REMARK   25  A    between atoms: C29_42  and  O8_43 
REMARK   26  A    between atoms: C29_42  and  C35_49 
ROOT
ATOM      1  C14 non d ame     -11.595   8.954  70.823  0.00  0.00     0.089 C 
ATOM      2  H20 non d ame     -12.026   8.308  70.058  0.00  0.00     0.087 H 
ENDROOT
BRANCH   1   3
ATOM      3  N4  non d ame     -10.174   9.087  70.534  0.00  0.00    -0.346 N 
ATOM      4  C10 non d ame      -9.588   8.467  69.291  0.00  0.00     0.241 C 
ATOM      5  O4  non d ame     -10.279   7.863  68.538  0.00  0.00    -0.271 OA
ATOM      6  H19 non d ame      -9.603   9.603  71.188  0.00  0.00     0.163 HD
BRANCH   4   7
ATOM      7  C9  non d ame      -8.117   8.619  69.005  0.00  0.00     0.092 C 
ATOM      8  H11 non d ame      -7.711   7.657  68.695  0.00  0.00     0.088 H 
BRANCH   7   9
ATOM      9  N3  non d ame      -7.930   9.550  67.888  0.00  0.00    -0.346 N 
ATOM     10  C7  non d ame      -7.563   9.048  66.586  0.00  0.00     0.240 C 
ATOM     11  O3  non d ame      -7.413   7.899  66.421  0.00  0.00    -0.271 OA
ATOM     12  H10 non d ame      -8.054  10.544  68.016  0.00  0.00     0.163 HD
BRANCH  10  13
ATOM     13  C6  non d ame      -7.361  10.043  65.402  0.00  0.00     0.086 C 
ATOM     14  H6  non d ame      -7.484   9.569  64.428  0.00  0.00     0.086 H 
BRANCH  13  15
ATOM     15  N2  non d ame      -8.369  11.087  65.487  0.00  0.00    -0.343 N 
ATOM     16  C5  non d ame      -9.663  10.896  64.826  0.00  0.00     0.273 C 
ATOM     17  O2  non d ame      -9.881   9.901  64.227  0.00  0.00    -0.266 OA
ATOM     18  H5  non d ame      -8.173  11.935  65.999  0.00  0.00     0.163 HD
BRANCH  16  19
ATOM     19  C4  non d ame     -10.738  11.990  64.909  0.00  0.00     0.154 A 
ATOM     20  C1  non d ame     -10.685  13.300  64.334  0.00  0.00    -0.017 A 
ATOM     21  C2  non d ame     -11.909  13.905  64.696  0.00  0.00     0.077 A 
ATOM     22  H1  non d ame      -9.882  13.743  63.744  0.00  0.00     0.091 H 
ATOM     23  O1  non d ame     -12.579  13.037  65.395  0.00  0.00    -0.218 OA
ATOM     24  N1  non d ame     -11.916  11.912  65.533  0.00  0.00    -0.123 NA
BRANCH  21  25
ATOM     25  C3  non d ame     -12.360  15.314  64.333  0.00  0.00    -0.029 C 
ATOM     26  H2  non d ame     -13.272  15.556  64.880  0.00  0.00     0.036 H 
ATOM     27  H3  non d ame     -11.578  16.025  64.597  0.00  0.00     0.036 H 
ATOM     28  H4  non d ame     -12.555  15.369  63.261  0.00  0.00     0.036 H 
ENDBRANCH  21  25
ENDBRANCH  16  19
ENDBRANCH  13  15
BRANCH  13  29
ATOM     29  C8  non d ame      -5.983  10.648  65.479  0.00  0.00    -0.049 C 
ATOM     30  H7  non d ame      -5.297  10.072  64.859  0.00  0.00     0.030 H 
ATOM     31  H8  non d ame      -6.018  11.678  65.122  0.00  0.00     0.030 H 
ATOM     32  H9  non d ame      -5.637  10.633  66.512  0.00  0.00     0.030 H 
ENDBRANCH  13  29
ENDBRANCH  10  13
ENDBRANCH   7   9
BRANCH   7  33
ATOM     33  C11 non d ame      -7.399   9.179  70.268  0.00  0.00    -0.033 C 
ATOM     34  H12 non d ame      -8.166   9.575  70.934  0.00  0.00     0.042 H 
BRANCH  33  35
ATOM     35  C12 non d ame      -6.646   8.051  71.040  0.00  0.00    -0.071 C 
ATOM     36  H13 non d ame      -6.326   8.426  72.012  0.00  0.00     0.028 H 
ATOM     37  H14 non d ame      -7.312   7.200  71.181  0.00  0.00     0.028 H 
ATOM     38  H15 non d ame      -5.773   7.738  70.466  0.00  0.00     0.028 H 
ENDBRANCH  33  35
BRANCH  33  39
ATOM     39  C13 non d ame      -6.434  10.348  69.891  0.00  0.00    -0.071 C 
ATOM     40  H16 non d ame      -6.735  11.252  70.420  0.00  0.00     0.028 H 
ATOM     41  H17 non d ame      -5.415  10.084  70.173  0.00  0.00     0.028 H 
ATOM     42  H18 non d ame      -6.480  10.524  68.816  0.00  0.00     0.028 H 
ENDBRANCH  33  39
ENDBRANCH   7  33
ENDBRANCH   4   7
ENDBRANCH   1   3
BRANCH   1  43
ATOM     43  C15 non d ame     -12.235  10.372  70.822  0.00  0.00     0.240 C 
ATOM     44  O5  non d ame     -13.116  10.623  71.580  0.00  0.00    -0.271 OA
ATOM     45  N6  non d ame     -11.743  11.421  69.884  0.00  0.00    -0.355 N 
ATOM     46  H46 non d ame     -10.992  11.221  69.240  0.00  0.00     0.162 HD
BRANCH  45  47
ATOM     47  C20 non d ame     -12.361  12.764  69.897  0.00  0.00     0.013 C 
ATOM     48  H30 non d ame     -13.411  12.653  69.627  0.00  0.00     0.072 H 
BRANCH  47  49
ATOM     49  C21 non d ame     -11.659  13.647  68.890  0.00  0.00    -0.038 C 
ATOM     50  H31 non d ame     -12.305  13.662  68.011  0.00  0.00     0.036 H 
ATOM     51  H32 non d ame     -11.435  14.574  69.418  0.00  0.00     0.036 H 
BRANCH  49  52
ATOM     52  C22 non d ame     -10.305  13.068  68.427  0.00  0.00     0.018 C 
ATOM     53  H33 non d ame      -9.765  12.813  69.339  0.00  0.00     0.048 H 
ATOM     54  H34 non d ame     -10.548  12.291  67.702  0.00  0.00     0.048 H 
BRANCH  52  55
ATOM     55  C23 non d ame      -9.411  14.092  67.673  0.00  0.00     0.259 C 
ATOM     56  O7  non d ame      -8.447  13.730  67.081  0.00  0.00    -0.265 OA
BRANCH  55  57
ATOM     57  O8  non d ame      -9.752  15.473  67.707  0.00  0.00    -0.317 OA
BRANCH  57  58
ATOM     58  C29 non d ame      -9.503  16.165  66.480  0.00  0.00     0.052 C 
ATOM     59  H47 non d ame      -8.485  15.900  66.194  0.00  0.00     0.082 H 
ATOM     60  H48 non d ame     -10.336  15.913  65.825  0.00  0.00     0.082 H 
BRANCH  58  61
ATOM     61  C35 non d ame      -9.551  17.688  66.772  0.00  0.00    -0.034 A 
ATOM     62  C30 non d ame      -8.675  18.249  67.696  0.00  0.00    -0.075 A 
ATOM     63  C31 non d ame      -8.718  19.617  67.958  0.00  0.00    -0.082 A 
ATOM     64  H49 non d ame      -7.955  17.616  68.215  0.00  0.00     0.084 H 
ATOM     65  C32 non d ame      -9.644  20.426  67.294  0.00  0.00    -0.083 A 
ATOM     66  H50 non d ame      -8.029  20.054  68.682  0.00  0.00     0.083 H 
ATOM     67  C33 non d ame     -10.518  19.862  66.375  0.00  0.00    -0.082 A 
ATOM     68  H51 non d ame      -9.684  21.497  67.492  0.00  0.00     0.083 H 
ATOM     69  C34 non d ame     -10.477  18.495  66.108  0.00  0.00    -0.075 A 
ATOM     70  H52 non d ame     -11.240  20.496  65.859  0.00  0.00     0.083 H 
ATOM     71  H53 non d ame     -11.166  18.060  65.384  0.00  0.00     0.084 H 
ENDBRANCH  58  61
ENDBRANCH  57  58
ENDBRANCH  55  57
ENDBRANCH  52  55
ENDBRANCH  49  52
ENDBRANCH  47  49
BRANCH  47  72
ATOM     72  C24 non d ame     -12.233  13.378  71.290  0.00  0.00    -0.039 C 
ATOM     73  H35 non d ame     -12.827  12.739  71.944  0.00  0.00     0.036 H 
ATOM     74  H36 non d ame     -11.162  13.487  71.461  0.00  0.00     0.036 H 
BRANCH  72  75
ATOM     75  C25 non d ame     -12.874  14.845  71.352  0.00  0.00    -0.001 C 
ATOM     76  C26 non d ame     -11.782  15.907  71.970  0.00  0.00    -0.035 C 
ATOM     77  C27 non d ame     -12.366  16.595  72.981  0.00  0.00     0.085 C 
ATOM     78  H38 non d ame     -10.973  15.368  72.462  0.00  0.00     0.036 H 
ATOM     79  H39 non d ame     -11.555  16.680  71.234  0.00  0.00     0.036 H 
ATOM     80  N5  non d ame     -13.646  15.873  73.324  0.00  0.00    -0.049 N 
ATOM     81  H40 non d ame     -11.676  16.516  73.822  0.00  0.00     0.075 H 
ATOM     82  H41 non d ame     -12.610  17.572  72.565  0.00  0.00     0.075 H 
ATOM     83  C28 non d ame     -13.929  14.862  72.097  0.00  0.00     0.193 C 
ATOM     84  H42 non d ame     -13.454  15.327  74.152  0.00  0.00     0.280 HD
ATOM     85  H43 non d ame     -14.374  16.573  73.338  0.00  0.00     0.280 HD
ATOM     86  H44 non d ame     -14.693  15.094  71.354  0.00  0.00     0.129 H 
ATOM     87  H37 non d ame     -13.363  15.122  70.418  0.00  0.00     0.046 H 
BRANCH  83  88
ATOM     88  O6  non d ame     -14.260  13.564  72.594  0.00  0.00    -0.369 OA
ATOM     89  H45 non d ame     -14.507  12.995  71.862  0.00  0.00     0.212 HD
ENDBRANCH  83  88
ENDBRANCH  72  75
ENDBRANCH  47  72
ENDBRANCH  45  47
ENDBRANCH   1  43
BRANCH   1  90
ATOM     90  C16 non d ame     -11.765   8.316  72.192  0.00  0.00    -0.035 C 
ATOM     91  H21 non d ame     -11.436   9.072  72.906  0.00  0.00     0.037 H 
ATOM     92  H22 non d ame     -12.794   7.956  72.216  0.00  0.00     0.037 H 
BRANCH  90  93
ATOM     93  C17 non d ame     -10.854   7.068  72.420  0.00  0.00    -0.059 C 
ATOM     94  H23 non d ame     -10.173   6.997  71.572  0.00  0.00     0.038 H 
BRANCH  93  95
ATOM     95  C18 non d ame      -9.990   7.198  73.715  0.00  0.00    -0.073 C 
ATOM     96  H24 non d ame     -10.534   7.780  74.458  0.00  0.00     0.028 H 
ATOM     97  H25 non d ame      -9.780   6.205  74.113  0.00  0.00     0.028 H 
ATOM     98  H26 non d ame      -9.051   7.700  73.476  0.00  0.00     0.028 H 
ENDBRANCH  93  95
BRANCH  93  99
ATOM     99  C19 non d ame     -11.685   5.783  72.446  0.00  0.00    -0.073 C 
ATOM    100  H27 non d ame     -11.020   4.919  72.412  0.00  0.00     0.028 H 
ATOM    101  H28 non d ame     -12.276   5.751  73.362  0.00  0.00     0.028 H 
ATOM    102  H29 non d ame     -12.351   5.763  71.584  0.00  0.00     0.028 H 
ENDBRANCH  93  99
ENDBRANCH  90  93
ENDBRANCH   1  90
TORSDOF 26
ENDMDL
MODEL 12
REMARK VINA RESULT:      -6.3      2.731      5.191
REMARK  26 active torsions:
REMARK  status: ('A' for Active; 'I' for Inactive)
REMARK    1  A    between atoms: C2_2  and  C3_3 
REMARK    2  A    between atoms: C4_6  and  C5_7 
REMARK       I    between atoms: C5_7  and  N2_9 
REMARK    3  A    between atoms: N2_9  and  C6_10 
REMARK    4  A    between atoms: C6_10  and  C7_11 
REMARK    5  A    between atoms: C6_10  and  C8_13 
REMARK       I    between atoms: C7_11  and  N3_14 
REMARK    6  A    between atoms: N3_14  and  C9_15 
REMARK    7  A    between atoms: C9_15  and  C10_16 
REMARK    8  A    between atoms: C9_15  and  C11_18 
REMARK       I    between atoms: C10_16  and  N4_21 
REMARK    9  A    between atoms: C11_18  and  C12_19 
REMARK   10  A    between atoms: C11_18  and  C13_20 
REMARK   11  A    between atoms: N4_21  and  C14_22 
REMARK   12  A    between atoms: C14_22  and  C15_23 
REMARK   13  A    between atoms: C14_22  and  C16_25 
REMARK       I    between atoms: C15_23  and  N6_40 
REMARK   14  A    between atoms: C16_25  and  C17_26 
REMARK   15  A    between atoms: C17_26  and  C18_27 
REMARK   16  A    between atoms: C17_26  and  C19_28 
REMARK   17  A    between atoms: C20_29  and  C21_30 
REMARK   18  A    between atoms: C20_29  and  C24_33 
REMARK   19  A    between atoms: C20_29  and  N6_40 
REMARK   20  A    between atoms: C21_30  and  C22_31 
REMARK   21  A    between atoms: C22_31  and  C23_32 
REMARK   22  A    between atoms: C23_32  and  O8_43 
REMARK   23  A    between atoms: C24_33  and  C25_34 
REMARK   24  A    between atoms: C28_38  and  O6_39 
REMARK   25  A    between atoms: C29_42  and  O8_43 
REMARK   26  A    between atoms: C29_42  and  C35_49 
ROOT
ATOM      1  C14 non d ame     -10.479   9.461  68.722  0.00  0.00     0.089 C 
ATOM      2  H20 non d ame     -11.312   8.761  68.657  0.00  0.00     0.087 H 
ENDROOT
BRANCH   1   3
ATOM      3  N4  non d ame      -9.421   8.965  67.854  0.00  0.00    -0.346 N 
ATOM      4  C10 non d ame      -9.716   7.906  66.822  0.00  0.00     0.241 C 
ATOM      5  O4  non d ame     -10.813   7.467  66.709  0.00  0.00    -0.271 OA
ATOM      6  H19 non d ame      -8.494   9.350  67.968  0.00  0.00     0.163 HD
BRANCH   4   7
ATOM      7  C9  non d ame      -8.610   7.408  65.929  0.00  0.00     0.092 C 
ATOM      8  H11 non d ame      -8.907   7.532  64.888  0.00  0.00     0.088 H 
BRANCH   7   9
ATOM      9  N3  non d ame      -7.409   8.223  66.137  0.00  0.00    -0.346 N 
ATOM     10  C7  non d ame      -6.956   9.116  65.100  0.00  0.00     0.240 C 
ATOM     11  O3  non d ame      -7.545   9.191  64.091  0.00  0.00    -0.271 OA
ATOM     12  H10 non d ame      -6.890   8.167  67.002  0.00  0.00     0.163 HD
BRANCH  10  13
ATOM     13  C6  non d ame      -5.675   9.978  65.326  0.00  0.00     0.086 C 
ATOM     14  H6  non d ame      -5.723  10.944  64.822  0.00  0.00     0.086 H 
BRANCH  13  15
ATOM     15  N2  non d ame      -5.539  10.256  66.746  0.00  0.00    -0.343 N 
ATOM     16  C5  non d ame      -6.105  11.490  67.297  0.00  0.00     0.273 C 
ATOM     17  O2  non d ame      -6.665  12.253  66.589  0.00  0.00    -0.266 OA
ATOM     18  H5  non d ame      -5.056   9.600  67.343  0.00  0.00     0.163 HD
BRANCH  16  19
ATOM     19  C4  non d ame      -5.969  11.796  68.797  0.00  0.00     0.154 A 
ATOM     20  C1  non d ame      -5.572  13.034  69.394  0.00  0.00    -0.017 A 
ATOM     21  C2  non d ame      -5.608  12.795  70.786  0.00  0.00     0.077 A 
ATOM     22  H1  non d ame      -5.300  13.964  68.894  0.00  0.00     0.091 H 
ATOM     23  O1  non d ame      -5.985  11.561  70.957  0.00  0.00    -0.218 OA
ATOM     24  N1  non d ame      -6.201  10.958  69.811  0.00  0.00    -0.123 NA
BRANCH  21  25
ATOM     25  C3  non d ame      -5.270  13.796  71.882  0.00  0.00    -0.029 C 
ATOM     26  H2  non d ame      -4.331  13.512  72.358  0.00  0.00     0.036 H 
ATOM     27  H3  non d ame      -5.171  14.791  71.447  0.00  0.00     0.036 H 
ATOM     28  H4  non d ame      -6.067  13.804  72.626  0.00  0.00     0.036 H 
ENDBRANCH  21  25
ENDBRANCH  16  19
ENDBRANCH  13  15
BRANCH  13  29
ATOM     29  C8  non d ame      -4.467   9.227  64.828  0.00  0.00    -0.049 C 
ATOM     30  H7  non d ame      -3.855   8.920  65.676  0.00  0.00     0.030 H 
ATOM     31  H8  non d ame      -4.789   8.346  64.274  0.00  0.00     0.030 H 
ATOM     32  H9  non d ame      -3.882   9.874  64.175  0.00  0.00     0.030 H 
ENDBRANCH  13  29
ENDBRANCH  10  13
ENDBRANCH   7   9
BRANCH   7  33
ATOM     33  C11 non d ame      -8.293   5.924  66.275  0.00  0.00    -0.033 C 
ATOM     34  H12 non d ame      -8.578   5.761  67.315  0.00  0.00     0.042 H 
BRANCH  33  35
ATOM     35  C12 non d ame      -9.135   4.944  65.400  0.00  0.00    -0.071 C 
ATOM     36  H13 non d ame      -8.738   4.932  64.384  0.00  0.00     0.028 H 
ATOM     37  H14 non d ame      -9.079   3.940  65.822  0.00  0.00     0.028 H 
ATOM     38  H15 non d ame     -10.173   5.273  65.381  0.00  0.00     0.028 H 
ENDBRANCH  33  35
BRANCH  33  39
ATOM     39  C13 non d ame      -6.764   5.632  66.142  0.00  0.00    -0.071 C 
ATOM     40  H16 non d ame      -6.596   4.945  65.313  0.00  0.00     0.028 H 
ATOM     41  H17 non d ame      -6.231   6.565  65.953  0.00  0.00     0.028 H 
ATOM     42  H18 non d ame      -6.398   5.185  67.066  0.00  0.00     0.028 H 
ENDBRANCH  33  39
ENDBRANCH   7  33
ENDBRANCH   4   7
ENDBRANCH   1   3
BRANCH   1  43
ATOM     43  C15 non d ame     -10.875  10.891  68.252  0.00  0.00     0.240 C 
ATOM     44  O5  non d ame     -11.727  11.030  67.435  0.00  0.00    -0.271 OA
ATOM     45  N6  non d ame     -10.197  12.087  68.827  0.00  0.00    -0.355 N 
ATOM     46  H46 non d ame      -9.475  11.982  69.524  0.00  0.00     0.162 HD
BRANCH  45  47
ATOM     47  C20 non d ame     -10.585  13.439  68.371  0.00  0.00     0.013 C 
ATOM     48  H30 non d ame     -10.574  13.442  67.281  0.00  0.00     0.072 H 
BRANCH  47  49
ATOM     49  C21 non d ame      -9.592  14.450  68.899  0.00  0.00    -0.038 C 
ATOM     50  H31 non d ame     -10.181  15.177  69.458  0.00  0.00     0.036 H 
ATOM     51  H32 non d ame      -8.821  13.868  69.405  0.00  0.00     0.036 H 
BRANCH  49  52
ATOM     52  C22 non d ame      -8.880  15.235  67.776  0.00  0.00     0.018 C 
ATOM     53  H33 non d ame      -8.269  15.984  68.280  0.00  0.00     0.048 H 
ATOM     54  H34 non d ame      -8.408  14.482  67.143  0.00  0.00     0.048 H 
BRANCH  52  55
ATOM     55  C23 non d ame      -9.849  16.024  66.852  0.00  0.00     0.259 C 
ATOM     56  O7  non d ame     -10.518  16.902  67.290  0.00  0.00    -0.265 OA
BRANCH  55  57
ATOM     57  O8  non d ame      -9.938  15.676  65.476  0.00  0.00    -0.317 OA
BRANCH  57  58
ATOM     58  C29 non d ame     -11.230  15.210  65.075  0.00  0.00     0.052 C 
ATOM     59  H47 non d ame     -11.853  15.266  65.968  0.00  0.00     0.082 H 
ATOM     60  H48 non d ame     -11.492  15.789  64.191  0.00  0.00     0.082 H 
BRANCH  58  61
ATOM     61  C35 non d ame     -11.095  13.720  64.664  0.00  0.00    -0.034 A 
ATOM     62  C30 non d ame      -9.975  12.989  65.047  0.00  0.00    -0.075 A 
ATOM     63  C31 non d ame      -9.854  11.651  64.677  0.00  0.00    -0.082 A 
ATOM     64  H49 non d ame      -9.193  13.465  65.638  0.00  0.00     0.084 H 
ATOM     65  C32 non d ame     -10.857  11.043  63.918  0.00  0.00    -0.083 A 
ATOM     66  H50 non d ame      -8.976  11.081  64.981  0.00  0.00     0.083 H 
ATOM     67  C33 non d ame     -11.972  11.777  63.535  0.00  0.00    -0.082 A 
ATOM     68  H51 non d ame     -10.771   9.997  63.625  0.00  0.00     0.083 H 
ATOM     69  C34 non d ame     -12.098  13.114  63.904  0.00  0.00    -0.075 A 
ATOM     70  H52 non d ame     -12.752  11.300  62.940  0.00  0.00     0.083 H 
ATOM     71  H53 non d ame     -12.977  13.683  63.600  0.00  0.00     0.084 H 
ENDBRANCH  58  61
ENDBRANCH  57  58
ENDBRANCH  55  57
ENDBRANCH  52  55
ENDBRANCH  49  52
ENDBRANCH  47  49
BRANCH  47  72
ATOM     72  C24 non d ame     -11.981  13.778  68.888  0.00  0.00    -0.039 C 
ATOM     73  H35 non d ame     -12.332  14.599  68.262  0.00  0.00     0.036 H 
ATOM     74  H36 non d ame     -12.523  12.832  68.901  0.00  0.00     0.036 H 
BRANCH  72  75
ATOM     75  C25 non d ame     -11.940  14.319  70.396  0.00  0.00    -0.001 C 
ATOM     76  C26 non d ame     -12.865  13.360  71.360  0.00  0.00    -0.035 C 
ATOM     77  C27 non d ame     -13.719  14.143  72.062  0.00  0.00     0.085 C 
ATOM     78  H38 non d ame     -13.525  12.744  70.751  0.00  0.00     0.036 H 
ATOM     79  H39 non d ame     -12.248  12.900  72.132  0.00  0.00     0.036 H 
ATOM     80  N5  non d ame     -13.688  15.511  71.427  0.00  0.00    -0.049 N 
ATOM     81  H40 non d ame     -14.706  13.704  71.912  0.00  0.00     0.075 H 
ATOM     82  H41 non d ame     -13.298  14.207  73.065  0.00  0.00     0.075 H 
ATOM     83  C28 non d ame     -12.386  15.528  70.471  0.00  0.00     0.193 C 
ATOM     84  H42 non d ame     -14.513  15.577  70.848  0.00  0.00     0.280 HD
ATOM     85  H43 non d ame     -13.543  16.172  72.177  0.00  0.00     0.280 HD
ATOM     86  H44 non d ame     -11.482  16.054  70.776  0.00  0.00     0.129 H 
ATOM     87  H37 non d ame     -10.924  14.527  70.732  0.00  0.00     0.046 H 
BRANCH  83  88
ATOM     88  O6  non d ame     -12.723  16.059  69.188  0.00  0.00    -0.369 OA
ATOM     89  H45 non d ame     -12.712  15.354  68.537  0.00  0.00     0.212 HD
ENDBRANCH  83  88
ENDBRANCH  72  75
ENDBRANCH  47  72
ENDBRANCH  45  47
ENDBRANCH   1  43
BRANCH   1  90
ATOM     90  C16 non d ame      -9.964   9.518  70.151  0.00  0.00    -0.035 C 
ATOM     91  H21 non d ame      -9.016   8.979  70.138  0.00  0.00     0.037 H 
ATOM     92  H22 non d ame      -9.987  10.573  70.425  0.00  0.00     0.037 H 
BRANCH  90  93
ATOM     93  C17 non d ame     -10.879   8.776  71.176  0.00  0.00    -0.059 C 
ATOM     94  H23 non d ame     -11.226   7.856  70.705  0.00  0.00     0.038 H 
BRANCH  93  95
ATOM     95  C18 non d ame     -10.108   8.383  72.477  0.00  0.00    -0.073 C 
ATOM     96  H24 non d ame     -10.335   7.348  72.735  0.00  0.00     0.028 H 
ATOM     97  H25 non d ame      -9.036   8.489  72.310  0.00  0.00     0.028 H 
ATOM     98  H26 non d ame     -10.416   9.037  73.293  0.00  0.00     0.028 H 
ENDBRANCH  93  95
BRANCH  93  99
ATOM     99  C19 non d ame     -12.117   9.612  71.509  0.00  0.00    -0.073 C 
ATOM    100  H27 non d ame     -12.840   8.995  72.044  0.00  0.00     0.028 H 
ATOM    101  H28 non d ame     -11.828  10.458  72.133  0.00  0.00     0.028 H 
ATOM    102  H29 non d ame     -12.566   9.979  70.586  0.00  0.00     0.028 H 
ENDBRANCH  93  99
ENDBRANCH  90  93
ENDBRANCH   1  90
TORSDOF 26
ENDMDL
MODEL 13
REMARK VINA RESULT:      -6.3      2.414      7.194
REMARK  26 active torsions:
REMARK  status: ('A' for Active; 'I' for Inactive)
REMARK    1  A    between atoms: C2_2  and  C3_3 
REMARK    2  A    between atoms: C4_6  and  C5_7 
REMARK       I    between atoms: C5_7  and  N2_9 
REMARK    3  A    between atoms: N2_9  and  C6_10 
REMARK    4  A    between atoms: C6_10  and  C7_11 
REMARK    5  A    between atoms: C6_10  and  C8_13 
REMARK       I    between atoms: C7_11  and  N3_14 
REMARK    6  A    between atoms: N3_14  and  C9_15 
REMARK    7  A    between atoms: C9_15  and  C10_16 
REMARK    8  A    between atoms: C9_15  and  C11_18 
REMARK       I    between atoms: C10_16  and  N4_21 
REMARK    9  A    between atoms: C11_18  and  C12_19 
REMARK   10  A    between atoms: C11_18  and  C13_20 
REMARK   11  A    between atoms: N4_21  and  C14_22 
REMARK   12  A    between atoms: C14_22  and  C15_23 
REMARK   13  A    between atoms: C14_22  and  C16_25 
REMARK       I    between atoms: C15_23  and  N6_40 
REMARK   14  A    between atoms: C16_25  and  C17_26 
REMARK   15  A    between atoms: C17_26  and  C18_27 
REMARK   16  A    between atoms: C17_26  and  C19_28 
REMARK   17  A    between atoms: C20_29  and  C21_30 
REMARK   18  A    between atoms: C20_29  and  C24_33 
REMARK   19  A    between atoms: C20_29  and  N6_40 
REMARK   20  A    between atoms: C21_30  and  C22_31 
REMARK   21  A    between atoms: C22_31  and  C23_32 
REMARK   22  A    between atoms: C23_32  and  O8_43 
REMARK   23  A    between atoms: C24_33  and  C25_34 
REMARK   24  A    between atoms: C28_38  and  O6_39 
REMARK   25  A    between atoms: C29_42  and  O8_43 
REMARK   26  A    between atoms: C29_42  and  C35_49 
ROOT
ATOM      1  C14 non d ame     -10.771   9.360  69.300  0.00  0.00     0.089 C 
ATOM      2  H20 non d ame     -11.425   8.500  69.151  0.00  0.00     0.087 H 
ENDROOT
BRANCH   1   3
ATOM      3  N4  non d ame      -9.769   9.336  68.245  0.00  0.00    -0.346 N 
ATOM      4  C10 non d ame      -9.949   8.442  67.043  0.00  0.00     0.241 C 
ATOM      5  O4  non d ame     -10.907   7.748  66.950  0.00  0.00    -0.271 OA
ATOM      6  H19 non d ame      -8.960   9.933  68.344  0.00  0.00     0.163 HD
BRANCH   4   7
ATOM      7  C9  non d ame      -8.904   8.435  65.958  0.00  0.00     0.092 C 
ATOM      8  H11 non d ame      -8.784   7.419  65.583  0.00  0.00     0.088 H 
BRANCH   7   9
ATOM      9  N3  non d ame      -9.361   9.260  64.835  0.00  0.00    -0.346 N 
ATOM     10  C7  non d ame      -9.721  10.639  65.054  0.00  0.00     0.240 C 
ATOM     11  O3  non d ame      -9.650  11.101  66.127  0.00  0.00    -0.271 OA
ATOM     12  H10 non d ame      -9.428   8.874  63.904  0.00  0.00     0.163 HD
BRANCH  10  13
ATOM     13  C6  non d ame     -10.208  11.511  63.855  0.00  0.00     0.086 C 
ATOM     14  H6  non d ame     -11.260  11.350  63.617  0.00  0.00     0.086 H 
BRANCH  13  15
ATOM     15  N2  non d ame     -10.072  12.914  64.206  0.00  0.00    -0.343 N 
ATOM     16  C5  non d ame     -11.271  13.746  64.331  0.00  0.00     0.273 C 
ATOM     17  O2  non d ame     -12.340  13.278  64.144  0.00  0.00    -0.266 OA
ATOM     18  H5  non d ame      -9.154  13.307  64.362  0.00  0.00     0.163 HD
BRANCH  16  19
ATOM     19  C4  non d ame     -11.141  15.232  64.704  0.00  0.00     0.154 A 
ATOM     20  C1  non d ame     -10.618  15.776  65.920  0.00  0.00    -0.017 A 
ATOM     21  C2  non d ame     -10.719  17.176  65.764  0.00  0.00     0.077 A 
ATOM     22  H1  non d ame     -10.226  15.237  66.782  0.00  0.00     0.091 H 
ATOM     23  O1  non d ame     -11.239  17.400  64.593  0.00  0.00    -0.218 OA
ATOM     24  N1  non d ame     -11.495  16.280  63.955  0.00  0.00    -0.123 NA
BRANCH  21  25
ATOM     25  C3  non d ame     -10.296  18.229  66.780  0.00  0.00    -0.029 C 
ATOM     26  H2  non d ame      -9.507  17.826  67.415  0.00  0.00     0.036 H 
ATOM     27  H3  non d ame      -9.928  19.111  66.257  0.00  0.00     0.036 H 
ATOM     28  H4  non d ame     -11.153  18.504  67.397  0.00  0.00     0.036 H 
ENDBRANCH  21  25
ENDBRANCH  16  19
ENDBRANCH  13  15
BRANCH  13  29
ATOM     29  C8  non d ame      -9.379  11.201  62.634  0.00  0.00    -0.049 C 
ATOM     30  H7  non d ame      -8.390  10.862  62.943  0.00  0.00     0.030 H 
ATOM     31  H8  non d ame      -9.866  10.418  62.053  0.00  0.00     0.030 H 
ATOM     32  H9  non d ame      -9.281  12.099  62.025  0.00  0.00     0.030 H 
ENDBRANCH  13  29
ENDBRANCH  10  13
ENDBRANCH   7   9
BRANCH   7  33
ATOM     33  C11 non d ame      -7.572   9.016  66.516  0.00  0.00    -0.033 C 
ATOM     34  H12 non d ame      -7.818   9.908  67.091  0.00  0.00     0.042 H 
BRANCH  33  35
ATOM     35  C12 non d ame      -6.877   8.010  67.486  0.00  0.00    -0.071 C 
ATOM     36  H13 non d ame      -7.127   6.990  67.193  0.00  0.00     0.028 H 
ATOM     37  H14 non d ame      -5.796   8.147  67.437  0.00  0.00     0.028 H 
ATOM     38  H15 non d ame      -7.220   8.191  68.504  0.00  0.00     0.028 H 
ENDBRANCH  33  35
BRANCH  33  39
ATOM     39  C13 non d ame      -6.615   9.437  65.355  0.00  0.00    -0.071 C 
ATOM     40  H16 non d ame      -6.971  10.365  64.910  0.00  0.00     0.028 H 
ATOM     41  H17 non d ame      -5.609   9.585  65.749  0.00  0.00     0.028 H 
ATOM     42  H18 non d ame      -6.597   8.653  64.598  0.00  0.00     0.028 H 
ENDBRANCH  33  39
ENDBRANCH   7  33
ENDBRANCH   4   7
ENDBRANCH   1   3
BRANCH   1  43
ATOM     43  C15 non d ame     -11.545  10.707  69.219  0.00  0.00     0.240 C 
ATOM     44  O5  non d ame     -12.685  10.714  68.885  0.00  0.00    -0.271 OA
ATOM     45  N6  non d ame     -10.866  11.987  69.566  0.00  0.00    -0.355 N 
ATOM     46  H46 non d ame      -9.898  11.993  69.856  0.00  0.00     0.162 HD
BRANCH  45  47
ATOM     47  C20 non d ame     -11.615  13.260  69.485  0.00  0.00     0.013 C 
ATOM     48  H30 non d ame     -12.315  13.185  68.653  0.00  0.00     0.072 H 
BRANCH  47  49
ATOM     49  C21 non d ame     -10.647  14.396  69.246  0.00  0.00    -0.038 C 
ATOM     50  H31 non d ame     -10.998  14.897  68.344  0.00  0.00     0.036 H 
ATOM     51  H32 non d ame     -10.595  14.941  70.188  0.00  0.00     0.036 H 
BRANCH  49  52
ATOM     52  C22 non d ame      -9.213  13.908  68.944  0.00  0.00     0.018 C 
ATOM     53  H33 non d ame      -8.763  13.697  69.914  0.00  0.00     0.048 H 
ATOM     54  H34 non d ame      -9.322  13.111  68.208  0.00  0.00     0.048 H 
BRANCH  52  55
ATOM     55  C23 non d ame      -8.312  14.985  68.279  0.00  0.00     0.259 C 
ATOM     56  O7  non d ame      -7.645  14.713  67.334  0.00  0.00    -0.265 OA
BRANCH  55  57
ATOM     57  O8  non d ame      -8.283  16.300  68.820  0.00  0.00    -0.317 OA
BRANCH  57  58
ATOM     58  C29 non d ame      -6.970  16.860  68.920  0.00  0.00     0.052 C 
ATOM     59  H47 non d ame      -6.870  17.192  69.953  0.00  0.00     0.082 H 
ATOM     60  H48 non d ame      -6.295  16.102  68.524  0.00  0.00     0.082 H 
BRANCH  58  61
ATOM     61  C35 non d ame      -6.909  18.104  67.995  0.00  0.00    -0.034 A 
ATOM     62  C30 non d ame      -6.637  17.952  66.639  0.00  0.00    -0.075 A 
ATOM     63  C31 non d ame      -6.581  19.070  65.808  0.00  0.00    -0.082 A 
ATOM     64  H49 non d ame      -6.468  16.957  66.228  0.00  0.00     0.084 H 
ATOM     65  C32 non d ame      -6.796  20.345  66.338  0.00  0.00    -0.083 A 
ATOM     66  H50 non d ame      -6.370  18.947  64.746  0.00  0.00     0.083 H 
ATOM     67  C33 non d ame      -7.063  20.492  67.692  0.00  0.00    -0.082 A 
ATOM     68  H51 non d ame      -6.754  21.224  65.695  0.00  0.00     0.083 H 
ATOM     69  C34 non d ame      -7.122  19.378  68.526  0.00  0.00    -0.075 A 
ATOM     70  H52 non d ame      -7.228  21.489  68.103  0.00  0.00     0.083 H 
ATOM     71  H53 non d ame      -7.334  19.502  69.589  0.00  0.00     0.084 H 
ENDBRANCH  58  61
ENDBRANCH  57  58
ENDBRANCH  55  57
ENDBRANCH  52  55
ENDBRANCH  49  52
ENDBRANCH  47  49
BRANCH  47  72
ATOM     72  C24 non d ame     -12.369  13.499  70.792  0.00  0.00    -0.039 C 
ATOM     73  H35 non d ame     -13.392  13.172  70.601  0.00  0.00     0.036 H 
ATOM     74  H36 non d ame     -11.776  13.008  71.563  0.00  0.00     0.036 H 
BRANCH  72  75
ATOM     75  C25 non d ame     -12.432  15.056  71.163  0.00  0.00    -0.001 C 
ATOM     76  C26 non d ame     -11.605  15.333  72.558  0.00  0.00    -0.035 C 
ATOM     77  C27 non d ame     -12.401  16.026  73.406  0.00  0.00     0.085 C 
ATOM     78  H38 non d ame     -11.431  14.394  73.082  0.00  0.00     0.036 H 
ATOM     79  H39 non d ame     -10.776  16.015  72.371  0.00  0.00     0.036 H 
ATOM     80  N5  non d ame     -13.802  15.964  72.848  0.00  0.00    -0.049 N 
ATOM     81  H40 non d ame     -12.369  15.479  74.349  0.00  0.00     0.075 H 
ATOM     82  H41 non d ame     -12.047  17.056  73.362  0.00  0.00     0.075 H 
ATOM     83  C28 non d ame     -13.651  15.449  71.326  0.00  0.00     0.193 C 
ATOM     84  H42 non d ame     -14.291  15.258  73.380  0.00  0.00     0.280 HD
ATOM     85  H43 non d ame     -14.147  16.913  72.833  0.00  0.00     0.280 HD
ATOM     86  H44 non d ame     -13.747  16.146  70.493  0.00  0.00     0.129 H 
ATOM     87  H37 non d ame     -12.195  15.694  70.311  0.00  0.00     0.046 H 
BRANCH  83  88
ATOM     88  O6  non d ame     -14.593  14.407  71.062  0.00  0.00    -0.369 OA
ATOM     89  H45 non d ame     -15.203  14.333  71.799  0.00  0.00     0.212 HD
ENDBRANCH  83  88
ENDBRANCH  72  75
ENDBRANCH  47  72
ENDBRANCH  45  47
ENDBRANCH   1  43
BRANCH   1  90
ATOM     90  C16 non d ame     -10.076   9.250  70.647  0.00  0.00    -0.035 C 
ATOM     91  H21 non d ame      -9.594  10.215  70.803  0.00  0.00     0.037 H 
ATOM     92  H22 non d ame     -10.843   8.906  71.341  0.00  0.00     0.037 H 
BRANCH  90  93
ATOM     93  C17 non d ame      -8.939   8.179  70.680  0.00  0.00    -0.059 C 
ATOM     94  H23 non d ame      -8.810   7.802  69.665  0.00  0.00     0.038 H 
BRANCH  93  95
ATOM     95  C18 non d ame      -7.574   8.783  71.141  0.00  0.00    -0.073 C 
ATOM     96  H24 non d ame      -7.023   8.038  71.716  0.00  0.00     0.028 H 
ATOM     97  H25 non d ame      -6.990   9.071  70.266  0.00  0.00     0.028 H 
ATOM     98  H26 non d ame      -7.756   9.660  71.762  0.00  0.00     0.028 H 
ENDBRANCH  93  95
BRANCH  93  99
ATOM     99  C19 non d ame      -9.333   6.990  71.560  0.00  0.00    -0.073 C 
ATOM    100  H27 non d ame      -8.547   6.236  71.526  0.00  0.00     0.028 H 
ATOM    101  H28 non d ame      -9.468   7.328  72.588  0.00  0.00     0.028 H 
ATOM    102  H29 non d ame     -10.266   6.561  71.194  0.00  0.00     0.028 H 
ENDBRANCH  93  99
ENDBRANCH  90  93
ENDBRANCH   1  90
TORSDOF 26
ENDMDL
MODEL 14
REMARK VINA RESULT:      -6.3      2.325      7.065
REMARK  26 active torsions:
REMARK  status: ('A' for Active; 'I' for Inactive)
REMARK    1  A    between atoms: C2_2  and  C3_3 
REMARK    2  A    between atoms: C4_6  and  C5_7 
REMARK       I    between atoms: C5_7  and  N2_9 
REMARK    3  A    between atoms: N2_9  and  C6_10 
REMARK    4  A    between atoms: C6_10  and  C7_11 
REMARK    5  A    between atoms: C6_10  and  C8_13 
REMARK       I    between atoms: C7_11  and  N3_14 
REMARK    6  A    between atoms: N3_14  and  C9_15 
REMARK    7  A    between atoms: C9_15  and  C10_16 
REMARK    8  A    between atoms: C9_15  and  C11_18 
REMARK       I    between atoms: C10_16  and  N4_21 
REMARK    9  A    between atoms: C11_18  and  C12_19 
REMARK   10  A    between atoms: C11_18  and  C13_20 
REMARK   11  A    between atoms: N4_21  and  C14_22 
REMARK   12  A    between atoms: C14_22  and  C15_23 
REMARK   13  A    between atoms: C14_22  and  C16_25 
REMARK       I    between atoms: C15_23  and  N6_40 
REMARK   14  A    between atoms: C16_25  and  C17_26 
REMARK   15  A    between atoms: C17_26  and  C18_27 
REMARK   16  A    between atoms: C17_26  and  C19_28 
REMARK   17  A    between atoms: C20_29  and  C21_30 
REMARK   18  A    between atoms: C20_29  and  C24_33 
REMARK   19  A    between atoms: C20_29  and  N6_40 
REMARK   20  A    between atoms: C21_30  and  C22_31 
REMARK   21  A    between atoms: C22_31  and  C23_32 
REMARK   22  A    between atoms: C23_32  and  O8_43 
REMARK   23  A    between atoms: C24_33  and  C25_34 
REMARK   24  A    between atoms: C28_38  and  O6_39 
REMARK   25  A    between atoms: C29_42  and  O8_43 
REMARK   26  A    between atoms: C29_42  and  C35_49 
ROOT
ATOM      1  C14 non d ame      -6.796  13.378  67.901  0.00  0.00     0.089 C 
ATOM      2  H20 non d ame      -6.115  13.311  67.052  0.00  0.00     0.087 H 
ENDROOT
BRANCH   1   3
ATOM      3  N4  non d ame      -7.102  14.786  68.106  0.00  0.00    -0.346 N 
ATOM      4  C10 non d ame      -6.086  15.845  67.760  0.00  0.00     0.241 C 
ATOM      5  O4  non d ame      -5.027  15.540  67.321  0.00  0.00    -0.271 OA
ATOM      6  H19 non d ame      -8.009  15.025  68.482  0.00  0.00     0.163 HD
BRANCH   4   7
ATOM      7  C9  non d ame      -6.423  17.298  67.973  0.00  0.00     0.092 C 
ATOM      8  H11 non d ame      -6.075  17.876  67.116  0.00  0.00     0.088 H 
BRANCH   7   9
ATOM      9  N3  non d ame      -7.879  17.458  68.041  0.00  0.00    -0.346 N 
ATOM     10  C7  non d ame      -8.624  17.788  66.851  0.00  0.00     0.240 C 
ATOM     11  O3  non d ame      -8.068  17.930  65.831  0.00  0.00    -0.271 OA
ATOM     12  H10 non d ame      -8.372  17.340  68.914  0.00  0.00     0.163 HD
BRANCH  10  13
ATOM     13  C6  non d ame     -10.172  17.960  66.930  0.00  0.00     0.086 C 
ATOM     14  H6  non d ame     -10.701  17.370  66.182  0.00  0.00     0.086 H 
BRANCH  13  15
ATOM     15  N2  non d ame     -10.632  17.493  68.228  0.00  0.00    -0.343 N 
ATOM     16  C5  non d ame     -11.215  16.155  68.348  0.00  0.00     0.273 C 
ATOM     17  O2  non d ame     -11.312  15.463  67.394  0.00  0.00    -0.266 OA
ATOM     18  H5  non d ame     -10.548  18.092  69.037  0.00  0.00     0.163 HD
BRANCH  16  19
ATOM     19  C4  non d ame     -11.704  15.648  69.714  0.00  0.00     0.154 A 
ATOM     20  C1  non d ame     -12.353  14.403  69.992  0.00  0.00    -0.017 A 
ATOM     21  C2  non d ame     -12.593  14.422  71.384  0.00  0.00     0.077 A 
ATOM     22  H1  non d ame     -12.611  13.609  69.291  0.00  0.00     0.091 H 
ATOM     23  O1  non d ame     -12.131  15.548  71.842  0.00  0.00    -0.218 OA
ATOM     24  N1  non d ame     -11.608  16.281  70.886  0.00  0.00    -0.123 NA
BRANCH  21  25
ATOM     25  C3  non d ame     -13.268  13.325  72.197  0.00  0.00    -0.029 C 
ATOM     26  H2  non d ame     -13.728  13.761  73.085  0.00  0.00     0.036 H 
ATOM     27  H3  non d ame     -14.034  12.842  71.591  0.00  0.00     0.036 H 
ATOM     28  H4  non d ame     -12.524  12.586  72.499  0.00  0.00     0.036 H 
ENDBRANCH  21  25
ENDBRANCH  16  19
ENDBRANCH  13  15
BRANCH  13  29
ATOM     29  C8  non d ame     -10.530  19.413  66.748  0.00  0.00    -0.049 C 
ATOM     30  H7  non d ame      -9.911  19.843  65.960  0.00  0.00     0.030 H 
ATOM     31  H8  non d ame     -11.581  19.497  66.472  0.00  0.00     0.030 H 
ATOM     32  H9  non d ame     -10.354  19.950  67.680  0.00  0.00     0.030 H 
ENDBRANCH  13  29
ENDBRANCH  10  13
ENDBRANCH   7   9
BRANCH   7  33
ATOM     33  C11 non d ame      -5.787  17.788  69.307  0.00  0.00    -0.033 C 
ATOM     34  H12 non d ame      -6.479  18.497  69.760  0.00  0.00     0.042 H 
BRANCH  33  35
ATOM     35  C12 non d ame      -5.597  16.609  70.312  0.00  0.00    -0.071 C 
ATOM     36  H13 non d ame      -5.755  16.971  71.329  0.00  0.00     0.028 H 
ATOM     37  H14 non d ame      -6.319  15.824  70.091  0.00  0.00     0.028 H 
ATOM     38  H15 non d ame      -4.587  16.212  70.220  0.00  0.00     0.028 H 
ENDBRANCH  33  35
BRANCH  33  39
ATOM     39  C13 non d ame      -4.438  18.530  69.044  0.00  0.00    -0.071 C 
ATOM     40  H16 non d ame      -3.702  17.823  68.663  0.00  0.00     0.028 H 
ATOM     41  H17 non d ame      -4.595  19.321  68.309  0.00  0.00     0.028 H 
ATOM     42  H18 non d ame      -4.076  18.966  69.975  0.00  0.00     0.028 H 
ENDBRANCH  33  39
ENDBRANCH   7  33
ENDBRANCH   4   7
ENDBRANCH   1   3
BRANCH   1  43
ATOM     43  C15 non d ame      -8.126  12.613  67.651  0.00  0.00     0.240 C 
ATOM     44  O5  non d ame      -9.145  13.037  68.092  0.00  0.00    -0.271 OA
ATOM     45  N6  non d ame      -8.132  11.354  66.852  0.00  0.00    -0.355 N 
ATOM     46  H46 non d ame      -7.274  10.986  66.468  0.00  0.00     0.162 HD
BRANCH  45  47
ATOM     47  C20 non d ame      -9.406  10.638  66.621  0.00  0.00     0.013 C 
ATOM     48  H30 non d ame     -10.189  11.164  67.167  0.00  0.00     0.072 H 
BRANCH  47  49
ATOM     49  C21 non d ame      -9.282   9.221  67.133  0.00  0.00    -0.038 C 
ATOM     50  H31 non d ame      -8.359   8.832  66.702  0.00  0.00     0.036 H 
ATOM     51  H32 non d ame      -9.393   9.288  68.215  0.00  0.00     0.036 H 
BRANCH  49  52
ATOM     52  C22 non d ame     -10.418   8.302  66.633  0.00  0.00     0.018 C 
ATOM     53  H33 non d ame     -11.219   8.397  67.366  0.00  0.00     0.048 H 
ATOM     54  H34 non d ame     -10.593   8.587  65.595  0.00  0.00     0.048 H 
BRANCH  52  55
ATOM     55  C23 non d ame     -10.039   6.795  66.605  0.00  0.00     0.259 C 
ATOM     56  O7  non d ame     -10.856   5.964  66.836  0.00  0.00    -0.265 OA
BRANCH  55  57
ATOM     57  O8  non d ame      -8.699   6.419  66.314  0.00  0.00    -0.317 OA
BRANCH  57  58
ATOM     58  C29 non d ame      -8.540   5.761  65.054  0.00  0.00     0.052 C 
ATOM     59  H47 non d ame      -8.176   4.760  65.287  0.00  0.00     0.082 H 
ATOM     60  H48 non d ame      -9.488   5.888  64.533  0.00  0.00     0.082 H 
BRANCH  58  61
ATOM     61  C35 non d ame      -7.438   6.510  64.257  0.00  0.00    -0.034 A 
ATOM     62  C30 non d ame      -6.257   5.857  63.918  0.00  0.00    -0.075 A 
ATOM     63  C31 non d ame      -5.268   6.530  63.203  0.00  0.00    -0.082 A 
ATOM     64  H49 non d ame      -6.108   4.818  64.212  0.00  0.00     0.084 H 
ATOM     65  C32 non d ame      -5.461   7.863  62.829  0.00  0.00    -0.083 A 
ATOM     66  H50 non d ame      -4.345   6.015  62.937  0.00  0.00     0.083 H 
ATOM     67  C33 non d ame      -6.639   8.511  63.173  0.00  0.00    -0.082 A 
ATOM     68  H51 non d ame      -4.693   8.396  62.270  0.00  0.00     0.083 H 
ATOM     69  C34 non d ame      -7.632   7.842  63.885  0.00  0.00    -0.075 A 
ATOM     70  H52 non d ame      -6.786   9.552  62.881  0.00  0.00     0.083 H 
ATOM     71  H53 non d ame      -8.555   8.358  64.151  0.00  0.00     0.084 H 
ENDBRANCH  58  61
ENDBRANCH  57  58
ENDBRANCH  55  57
ENDBRANCH  52  55
ENDBRANCH  49  52
ENDBRANCH  47  49
BRANCH  47  72
ATOM     72  C24 non d ame      -9.722  10.616  65.128  0.00  0.00    -0.039 C 
ATOM     73  H35 non d ame      -8.759  10.503  64.629  0.00  0.00     0.036 H 
ATOM     74  H36 non d ame     -10.492   9.854  65.005  0.00  0.00     0.036 H 
BRANCH  72  75
ATOM     75  C25 non d ame     -10.350  12.005  64.634  0.00  0.00    -0.001 C 
ATOM     76  C26 non d ame     -11.631  12.409  65.584  0.00  0.00    -0.035 C 
ATOM     77  C27 non d ame     -12.692  12.687  64.790  0.00  0.00     0.085 C 
ATOM     78  H38 non d ame     -11.961  11.542  66.155  0.00  0.00     0.036 H 
ATOM     79  H39 non d ame     -11.437  13.354  66.091  0.00  0.00     0.036 H 
ATOM     80  N5  non d ame     -12.349  12.195  63.405  0.00  0.00    -0.049 N 
ATOM     81  H40 non d ame     -13.516  12.092  65.185  0.00  0.00     0.075 H 
ATOM     82  H41 non d ame     -12.765  13.774  64.772  0.00  0.00     0.075 H 
ATOM     83  C28 non d ame     -10.757  11.925  63.411  0.00  0.00     0.193 C 
ATOM     84  H42 non d ame     -12.824  11.311  63.289  0.00  0.00     0.280 HD
ATOM     85  H43 non d ame     -12.543  12.958  62.773  0.00  0.00     0.280 HD
ATOM     86  H44 non d ame     -10.075  12.627  62.930  0.00  0.00     0.129 H 
ATOM     87  H37 non d ame      -9.590  12.769  64.476  0.00  0.00     0.046 H 
BRANCH  83  88
ATOM     88  O6  non d ame     -10.470  10.653  62.829  0.00  0.00    -0.369 OA
ATOM     89  H45 non d ame     -11.291  10.219  62.587  0.00  0.00     0.212 HD
ENDBRANCH  83  88
ENDBRANCH  72  75
ENDBRANCH  47  72
ENDBRANCH  45  47
ENDBRANCH   1  43
BRANCH   1  90
ATOM     90  C16 non d ame      -6.118  12.832  69.148  0.00  0.00    -0.035 C 
ATOM     91  H21 non d ame      -6.140  13.649  69.870  0.00  0.00     0.037 H 
ATOM     92  H22 non d ame      -6.632  11.896  69.369  0.00  0.00     0.037 H 
BRANCH  90  93
ATOM     93  C17 non d ame      -4.614  12.471  68.937  0.00  0.00    -0.059 C 
ATOM     94  H23 non d ame      -4.038  13.392  69.017  0.00  0.00     0.038 H 
BRANCH  93  95
ATOM     95  C18 non d ame      -4.086  11.482  70.026  0.00  0.00    -0.073 C 
ATOM     96  H24 non d ame      -4.798  11.437  70.849  0.00  0.00     0.028 H 
ATOM     97  H25 non d ame      -3.970  10.490  69.590  0.00  0.00     0.028 H 
ATOM     98  H26 non d ame      -3.122  11.831  70.397  0.00  0.00     0.028 H 
ENDBRANCH  93  95
BRANCH  93  99
ATOM     99  C19 non d ame      -4.379  11.909  67.532  0.00  0.00    -0.073 C 
ATOM    100  H27 non d ame      -3.784  12.616  66.953  0.00  0.00     0.028 H 
ATOM    101  H28 non d ame      -3.846  10.961  67.605  0.00  0.00     0.028 H 
ATOM    102  H29 non d ame      -5.337  11.750  67.039  0.00  0.00     0.028 H 
ENDBRANCH  93  99
ENDBRANCH  90  93
ENDBRANCH   1  90
TORSDOF 26
ENDMDL
MODEL 15
REMARK VINA RESULT:      -6.3      2.857      7.477
REMARK  26 active torsions:
REMARK  status: ('A' for Active; 'I' for Inactive)
REMARK    1  A    between atoms: C2_2  and  C3_3 
REMARK    2  A    between atoms: C4_6  and  C5_7 
REMARK       I    between atoms: C5_7  and  N2_9 
REMARK    3  A    between atoms: N2_9  and  C6_10 
REMARK    4  A    between atoms: C6_10  and  C7_11 
REMARK    5  A    between atoms: C6_10  and  C8_13 
REMARK       I    between atoms: C7_11  and  N3_14 
REMARK    6  A    between atoms: N3_14  and  C9_15 
REMARK    7  A    between atoms: C9_15  and  C10_16 
REMARK    8  A    between atoms: C9_15  and  C11_18 
REMARK       I    between atoms: C10_16  and  N4_21 
REMARK    9  A    between atoms: C11_18  and  C12_19 
REMARK   10  A    between atoms: C11_18  and  C13_20 
REMARK   11  A    between atoms: N4_21  and  C14_22 
REMARK   12  A    between atoms: C14_22  and  C15_23 
REMARK   13  A    between atoms: C14_22  and  C16_25 
REMARK       I    between atoms: C15_23  and  N6_40 
REMARK   14  A    between atoms: C16_25  and  C17_26 
REMARK   15  A    between atoms: C17_26  and  C18_27 
REMARK   16  A    between atoms: C17_26  and  C19_28 
REMARK   17  A    between atoms: C20_29  and  C21_30 
REMARK   18  A    between atoms: C20_29  and  C24_33 
REMARK   19  A    between atoms: C20_29  and  N6_40 
REMARK   20  A    between atoms: C21_30  and  C22_31 
REMARK   21  A    between atoms: C22_31  and  C23_32 
REMARK   22  A    between atoms: C23_32  and  O8_43 
REMARK   23  A    between atoms: C24_33  and  C25_34 
REMARK   24  A    between atoms: C28_38  and  O6_39 
REMARK   25  A    between atoms: C29_42  and  O8_43 
REMARK   26  A    between atoms: C29_42  and  C35_49 
ROOT
ATOM      1  C14 non d ame     -10.859   9.510  69.586  0.00  0.00     0.089 C 
ATOM      2  H20 non d ame     -11.456   8.683  69.200  0.00  0.00     0.087 H 
ENDROOT
BRANCH   1   3
ATOM      3  N4  non d ame      -9.537   9.414  68.985  0.00  0.00    -0.346 N 
ATOM      4  C10 non d ame      -8.892   8.068  68.774  0.00  0.00     0.241 C 
ATOM      5  O4  non d ame      -9.456   7.075  69.098  0.00  0.00    -0.271 OA
ATOM      6  H19 non d ame      -9.073  10.271  68.719  0.00  0.00     0.163 HD
BRANCH   4   7
ATOM      7  C9  non d ame      -7.526   7.987  68.145  0.00  0.00     0.092 C 
ATOM      8  H11 non d ame      -7.415   7.022  67.652  0.00  0.00     0.088 H 
BRANCH   7   9
ATOM      9  N3  non d ame      -7.402   9.019  67.111  0.00  0.00    -0.346 N 
ATOM     10  C7  non d ame      -7.132   8.642  65.746  0.00  0.00     0.240 C 
ATOM     11  O3  non d ame      -7.011   7.513  65.461  0.00  0.00    -0.271 OA
ATOM     12  H10 non d ame      -7.502   9.997  67.342  0.00  0.00     0.163 HD
BRANCH  10  13
ATOM     13  C6  non d ame      -6.997   9.745  64.650  0.00  0.00     0.086 C 
ATOM     14  H6  non d ame      -7.023   9.340  63.639  0.00  0.00     0.086 H 
BRANCH  13  15
ATOM     15  N2  non d ame      -8.122  10.659  64.761  0.00  0.00    -0.343 N 
ATOM     16  C5  non d ame      -9.314  10.439  63.938  0.00  0.00     0.273 C 
ATOM     17  O2  non d ame      -9.356   9.527  63.188  0.00  0.00    -0.266 OA
ATOM     18  H5  non d ame      -8.076  11.438  65.403  0.00  0.00     0.163 HD
BRANCH  16  19
ATOM     19  C4  non d ame     -10.511  11.397  64.046  0.00  0.00     0.154 A 
ATOM     20  C1  non d ame     -10.795  12.310  65.111  0.00  0.00    -0.017 A 
ATOM     21  C2  non d ame     -11.996  12.949  64.731  0.00  0.00     0.077 A 
ATOM     22  H1  non d ame     -10.218  12.482  66.019  0.00  0.00     0.091 H 
ATOM     23  O1  non d ame     -12.351  12.455  63.581  0.00  0.00    -0.218 OA
ATOM     24  N1  non d ame     -11.500  11.547  63.161  0.00  0.00    -0.123 NA
BRANCH  21  25
ATOM     25  C3  non d ame     -12.737  14.019  65.522  0.00  0.00    -0.029 C 
ATOM     26  H2  non d ame     -12.082  14.877  65.675  0.00  0.00     0.036 H 
ATOM     27  H3  non d ame     -13.622  14.332  64.968  0.00  0.00     0.036 H 
ATOM     28  H4  non d ame     -13.038  13.614  66.488  0.00  0.00     0.036 H 
ENDBRANCH  21  25
ENDBRANCH  16  19
ENDBRANCH  13  15
BRANCH  13  29
ATOM     29  C8  non d ame      -5.703  10.494  64.843  0.00  0.00    -0.049 C 
ATOM     30  H7  non d ame      -4.956  10.114  64.145  0.00  0.00     0.030 H 
ATOM     31  H8  non d ame      -5.866  11.555  64.659  0.00  0.00     0.030 H 
ATOM     32  H9  non d ame      -5.350  10.351  65.864  0.00  0.00     0.030 H 
ENDBRANCH  13  29
ENDBRANCH  10  13
ENDBRANCH   7   9
BRANCH   7  33
ATOM     33  C11 non d ame      -6.439   8.216  69.236  0.00  0.00    -0.033 C 
ATOM     34  H12 non d ame      -5.619   7.527  69.033  0.00  0.00     0.042 H 
BRANCH  33  35
ATOM     35  C12 non d ame      -5.862   9.664  69.168  0.00  0.00    -0.071 C 
ATOM     36  H13 non d ame      -4.855   9.674  69.587  0.00  0.00     0.028 H 
ATOM     37  H14 non d ame      -5.826   9.993  68.130  0.00  0.00     0.028 H 
ATOM     38  H15 non d ame      -6.500  10.336  69.741  0.00  0.00     0.028 H 
ENDBRANCH  33  35
BRANCH  33  39
ATOM     39  C13 non d ame      -6.999   7.895  70.659  0.00  0.00    -0.071 C 
ATOM     40  H16 non d ame      -6.715   6.882  70.941  0.00  0.00     0.028 H 
ATOM     41  H17 non d ame      -6.586   8.602  71.380  0.00  0.00     0.028 H 
ATOM     42  H18 non d ame      -8.085   7.979  70.649  0.00  0.00     0.028 H 
ENDBRANCH  33  39
ENDBRANCH   7  33
ENDBRANCH   4   7
ENDBRANCH   1   3
BRANCH   1  43
ATOM     43  C15 non d ame     -11.470  10.894  69.223  0.00  0.00     0.240 C 
ATOM     44  O5  non d ame     -12.001  11.048  68.171  0.00  0.00    -0.271 OA
ATOM     45  N6  non d ame     -11.399  12.026  70.191  0.00  0.00    -0.355 N 
ATOM     46  H46 non d ame     -10.955  11.906  71.090  0.00  0.00     0.162 HD
BRANCH  45  47
ATOM     47  C20 non d ame     -11.985  13.335  69.832  0.00  0.00     0.013 C 
ATOM     48  H30 non d ame     -12.462  13.233  68.857  0.00  0.00     0.072 H 
BRANCH  47  49
ATOM     49  C21 non d ame     -10.887  14.372  69.763  0.00  0.00    -0.038 C 
ATOM     50  H31 non d ame     -11.225  15.200  70.387  0.00  0.00     0.036 H 
ATOM     51  H32 non d ame      -9.967  13.843  70.010  0.00  0.00     0.036 H 
BRANCH  49  52
ATOM     52  C22 non d ame     -10.693  14.947  68.343  0.00  0.00     0.018 C 
ATOM     53  H33 non d ame      -9.808  14.452  67.943  0.00  0.00     0.048 H 
ATOM     54  H34 non d ame     -11.656  14.831  67.844  0.00  0.00     0.048 H 
BRANCH  52  55
ATOM     55  C23 non d ame     -10.380  16.469  68.321  0.00  0.00     0.259 C 
ATOM     56  O7  non d ame     -11.251  17.266  68.452  0.00  0.00    -0.265 OA
BRANCH  55  57
ATOM     57  O8  non d ame      -9.038  16.901  68.129  0.00  0.00    -0.317 OA
BRANCH  57  58
ATOM     58  C29 non d ame      -8.882  17.873  67.092  0.00  0.00     0.052 C 
ATOM     59  H47 non d ame      -8.467  17.332  66.241  0.00  0.00     0.082 H 
ATOM     60  H48 non d ame      -9.848  18.369  67.004  0.00  0.00     0.082 H 
BRANCH  58  61
ATOM     61  C35 non d ame      -7.836  18.917  67.567  0.00  0.00    -0.034 A 
ATOM     62  C30 non d ame      -7.448  19.949  66.720  0.00  0.00    -0.075 A 
ATOM     63  C31 non d ame      -6.508  20.887  67.147  0.00  0.00    -0.082 A 
ATOM     64  H49 non d ame      -7.879  20.024  65.722  0.00  0.00     0.084 H 
ATOM     65  C32 non d ame      -5.955  20.788  68.426  0.00  0.00    -0.083 A 
ATOM     66  H50 non d ame      -6.208  21.696  66.481  0.00  0.00     0.083 H 
ATOM     67  C33 non d ame      -6.343  19.754  69.267  0.00  0.00    -0.082 A 
ATOM     68  H51 non d ame      -5.220  21.517  68.768  0.00  0.00     0.083 H 
ATOM     69  C34 non d ame      -7.283  18.816  68.845  0.00  0.00    -0.075 A 
ATOM     70  H52 non d ame      -5.908  19.678  70.264  0.00  0.00     0.083 H 
ATOM     71  H53 non d ame      -7.584  18.007  69.512  0.00  0.00     0.084 H 
ENDBRANCH  58  61
ENDBRANCH  57  58
ENDBRANCH  55  57
ENDBRANCH  52  55
ENDBRANCH  49  52
ENDBRANCH  47  49
BRANCH  47  72
ATOM     72  C24 non d ame     -13.012  13.748  70.884  0.00  0.00    -0.039 C 
ATOM     73  H35 non d ame     -13.927  13.958  70.330  0.00  0.00     0.036 H 
ATOM     74  H36 non d ame     -12.998  12.954  71.631  0.00  0.00     0.036 H 
BRANCH  72  75
ATOM     75  C25 non d ame     -12.588  15.102  71.627  0.00  0.00    -0.001 C 
ATOM     76  C26 non d ame     -12.008  14.760  73.127  0.00  0.00    -0.035 C 
ATOM     77  C27 non d ame     -12.654  15.533  74.032  0.00  0.00     0.085 C 
ATOM     78  H38 non d ame     -12.286  13.746  73.413  0.00  0.00     0.036 H 
ATOM     79  H39 non d ame     -10.970  15.084  73.210  0.00  0.00     0.036 H 
ATOM     80  N5  non d ame     -13.847  16.133  73.328  0.00  0.00    -0.049 N 
ATOM     81  H40 non d ame     -13.005  14.847  74.804  0.00  0.00     0.075 H 
ATOM     82  H41 non d ame     -11.955  16.329  74.287  0.00  0.00     0.075 H 
ATOM     83  C28 non d ame     -13.593  15.903  71.750  0.00  0.00     0.193 C 
ATOM     84  H42 non d ame     -14.649  15.588  73.608  0.00  0.00     0.280 HD
ATOM     85  H43 non d ame     -13.820  17.126  73.516  0.00  0.00     0.280 HD
ATOM     86  H44 non d ame     -13.269  16.727  71.115  0.00  0.00     0.129 H 
ATOM     87  H37 non d ame     -11.977  15.746  70.994  0.00  0.00     0.046 H 
BRANCH  83  88
ATOM     88  O6  non d ame     -14.773  15.386  71.132  0.00  0.00    -0.369 OA
ATOM     89  H45 non d ame     -15.493  15.388  71.766  0.00  0.00     0.212 HD
ENDBRANCH  83  88
ENDBRANCH  72  75
ENDBRANCH  47  72
ENDBRANCH  45  47
ENDBRANCH   1  43
BRANCH   1  90
ATOM     90  C16 non d ame     -10.728   9.390  71.096  0.00  0.00    -0.035 C 
ATOM     91  H21 non d ame      -9.736   8.970  71.267  0.00  0.00     0.037 H 
ATOM     92  H22 non d ame     -10.977  10.376  71.487  0.00  0.00     0.037 H 
BRANCH  90  93
ATOM     93  C17 non d ame     -11.745   8.392  71.736  0.00  0.00    -0.059 C 
ATOM     94  H23 non d ame     -12.038   7.679  70.965  0.00  0.00     0.038 H 
BRANCH  93  95
ATOM     95  C18 non d ame     -11.115   7.584  72.916  0.00  0.00    -0.073 C 
ATOM     96  H24 non d ame     -10.419   6.846  72.520  0.00  0.00     0.028 H 
ATOM     97  H25 non d ame     -10.583   8.266  73.580  0.00  0.00     0.028 H 
ATOM     98  H26 non d ame     -11.905   7.079  73.472  0.00  0.00     0.028 H 
ENDBRANCH  93  95
BRANCH  93  99
ATOM     99  C19 non d ame     -13.013   9.119  72.189  0.00  0.00    -0.073 C 
ATOM    100  H27 non d ame     -12.857   9.536  73.185  0.00  0.00     0.028 H 
ATOM    101  H28 non d ame     -13.240   9.924  71.489  0.00  0.00     0.028 H 
ATOM    102  H29 non d ame     -13.845   8.416  72.216  0.00  0.00     0.028 H 
ENDBRANCH  93  99
ENDBRANCH  90  93
ENDBRANCH   1  90
TORSDOF 26
ENDMDL
MODEL 16
REMARK VINA RESULT:      -6.2      3.872      6.807
REMARK  26 active torsions:
REMARK  status: ('A' for Active; 'I' for Inactive)
REMARK    1  A    between atoms: C2_2  and  C3_3 
REMARK    2  A    between atoms: C4_6  and  C5_7 
REMARK       I    between atoms: C5_7  and  N2_9 
REMARK    3  A    between atoms: N2_9  and  C6_10 
REMARK    4  A    between atoms: C6_10  and  C7_11 
REMARK    5  A    between atoms: C6_10  and  C8_13 
REMARK       I    between atoms: C7_11  and  N3_14 
REMARK    6  A    between atoms: N3_14  and  C9_15 
REMARK    7  A    between atoms: C9_15  and  C10_16 
REMARK    8  A    between atoms: C9_15  and  C11_18 
REMARK       I    between atoms: C10_16  and  N4_21 
REMARK    9  A    between atoms: C11_18  and  C12_19 
REMARK   10  A    between atoms: C11_18  and  C13_20 
REMARK   11  A    between atoms: N4_21  and  C14_22 
REMARK   12  A    between atoms: C14_22  and  C15_23 
REMARK   13  A    between atoms: C14_22  and  C16_25 
REMARK       I    between atoms: C15_23  and  N6_40 
REMARK   14  A    between atoms: C16_25  and  C17_26 
REMARK   15  A    between atoms: C17_26  and  C18_27 
REMARK   16  A    between atoms: C17_26  and  C19_28 
REMARK   17  A    between atoms: C20_29  and  C21_30 
REMARK   18  A    between atoms: C20_29  and  C24_33 
REMARK   19  A    between atoms: C20_29  and  N6_40 
REMARK   20  A    between atoms: C21_30  and  C22_31 
REMARK   21  A    between atoms: C22_31  and  C23_32 
REMARK   22  A    between atoms: C23_32  and  O8_43 
REMARK   23  A    between atoms: C24_33  and  C25_34 
REMARK   24  A    between atoms: C28_38  and  O6_39 
REMARK   25  A    between atoms: C29_42  and  O8_43 
REMARK   26  A    between atoms: C29_42  and  C35_49 
ROOT
ATOM      1  C14 non d ame      -8.363   9.089  67.455  0.00  0.00     0.089 C 
ATOM      2  H20 non d ame      -8.163   9.993  68.031  0.00  0.00     0.087 H 
ENDROOT
BRANCH   1   3
ATOM      3  N4  non d ame      -8.959   8.117  68.359  0.00  0.00    -0.346 N 
ATOM      4  C10 non d ame      -9.236   8.482  69.796  0.00  0.00     0.241 C 
ATOM      5  O4  non d ame      -8.968   9.565  70.202  0.00  0.00    -0.271 OA
ATOM      6  H19 non d ame      -9.177   7.200  67.994  0.00  0.00     0.163 HD
BRANCH   4   7
ATOM      7  C9  non d ame      -9.857   7.465  70.716  0.00  0.00     0.092 C 
ATOM      8  H11 non d ame      -9.393   7.541  71.700  0.00  0.00     0.088 H 
BRANCH   7   9
ATOM      9  N3  non d ame     -11.282   7.765  70.885  0.00  0.00    -0.346 N 
ATOM     10  C7  non d ame     -11.808   8.052  72.197  0.00  0.00     0.240 C 
ATOM     11  O3  non d ame     -11.098   8.046  73.128  0.00  0.00    -0.271 OA
ATOM     12  H10 non d ame     -11.907   7.772  70.091  0.00  0.00     0.163 HD
BRANCH  10  13
ATOM     13  C6  non d ame     -13.326   8.367  72.371  0.00  0.00     0.086 C 
ATOM     14  H6  non d ame     -13.761   7.879  73.243  0.00  0.00     0.086 H 
BRANCH  13  15
ATOM     15  N2  non d ame     -13.491   9.798  72.569  0.00  0.00    -0.343 N 
ATOM     16  C5  non d ame     -12.942  10.731  71.583  0.00  0.00     0.273 C 
ATOM     17  O2  non d ame     -12.367  10.321  70.635  0.00  0.00    -0.266 OA
ATOM     18  H5  non d ame     -13.981  10.139  73.384  0.00  0.00     0.163 HD
BRANCH  16  19
ATOM     19  C4  non d ame     -13.110  12.246  71.780  0.00  0.00     0.154 A 
ATOM     20  C1  non d ame     -12.369  13.288  71.139  0.00  0.00    -0.017 A 
ATOM     21  C2  non d ame     -12.905  14.488  71.658  0.00  0.00     0.077 A 
ATOM     22  H1  non d ame     -11.565  13.190  70.409  0.00  0.00     0.091 H 
ATOM     23  O1  non d ame     -13.844  14.161  72.497  0.00  0.00    -0.218 OA
ATOM     24  N1  non d ame     -13.982  12.858  72.585  0.00  0.00    -0.123 NA
BRANCH  21  25
ATOM     25  C3  non d ame     -12.464  15.901  71.301  0.00  0.00    -0.029 C 
ATOM     26  H2  non d ame     -12.734  16.116  70.267  0.00  0.00     0.036 H 
ATOM     27  H3  non d ame     -12.959  16.614  71.961  0.00  0.00     0.036 H 
ATOM     28  H4  non d ame     -11.384  15.987  71.419  0.00  0.00     0.036 H 
ENDBRANCH  21  25
ENDBRANCH  16  19
ENDBRANCH  13  15
BRANCH  13  29
ATOM     29  C8  non d ame     -14.077   7.927  71.140  0.00  0.00    -0.049 C 
ATOM     30  H7  non d ame     -15.120   8.236  71.221  0.00  0.00     0.030 H 
ATOM     31  H8  non d ame     -13.630   8.384  70.258  0.00  0.00     0.030 H 
ATOM     32  H9  non d ame     -14.027   6.842  71.054  0.00  0.00     0.030 H 
ENDBRANCH  13  29
ENDBRANCH  10  13
ENDBRANCH   7   9
BRANCH   7  33
ATOM     33  C11 non d ame      -9.698   6.044  70.101  0.00  0.00    -0.033 C 
ATOM     34  H12 non d ame      -8.839   6.070  69.431  0.00  0.00     0.042 H 
BRANCH  33  35
ATOM     35  C12 non d ame      -9.401   4.978  71.202  0.00  0.00    -0.071 C 
ATOM     36  H13 non d ame      -8.598   4.322  70.866  0.00  0.00     0.028 H 
ATOM     37  H14 non d ame      -9.099   5.480  72.121  0.00  0.00     0.028 H 
ATOM     38  H15 non d ame     -10.298   4.388  71.388  0.00  0.00     0.028 H 
ENDBRANCH  33  35
BRANCH  33  39
ATOM     39  C13 non d ame     -10.956   5.654  69.261  0.00  0.00    -0.071 C 
ATOM     40  H16 non d ame     -10.687   5.604  68.206  0.00  0.00     0.028 H 
ATOM     41  H17 non d ame     -11.325   4.681  69.587  0.00  0.00     0.028 H 
ATOM     42  H18 non d ame     -11.734   6.404  69.403  0.00  0.00     0.028 H 
ENDBRANCH  33  39
ENDBRANCH   7  33
ENDBRANCH   4   7
ENDBRANCH   1   3
BRANCH   1  43
ATOM     43  C15 non d ame      -9.354   9.348  66.283  0.00  0.00     0.240 C 
ATOM     44  O5  non d ame     -10.093   8.485  65.933  0.00  0.00    -0.271 OA
ATOM     45  N6  non d ame      -9.387  10.674  65.603  0.00  0.00    -0.355 N 
ATOM     46  H46 non d ame      -8.767  11.416  65.895  0.00  0.00     0.162 HD
BRANCH  45  47
ATOM     47  C20 non d ame     -10.335  10.904  64.492  0.00  0.00     0.013 C 
ATOM     48  H30 non d ame     -10.948  10.009  64.383  0.00  0.00     0.072 H 
BRANCH  47  49
ATOM     49  C21 non d ame      -9.561  11.158  63.219  0.00  0.00    -0.038 C 
ATOM     50  H31 non d ame     -10.155  10.715  62.419  0.00  0.00     0.036 H 
ATOM     51  H32 non d ame      -9.348  12.228  63.213  0.00  0.00     0.036 H 
BRANCH  49  52
ATOM     52  C22 non d ame      -8.193  10.442  63.196  0.00  0.00     0.018 C 
ATOM     53  H33 non d ame      -7.510  11.126  62.692  0.00  0.00     0.048 H 
ATOM     54  H34 non d ame      -8.001  10.139  64.225  0.00  0.00     0.048 H 
BRANCH  52  55
ATOM     55  C23 non d ame      -8.186   9.134  62.357  0.00  0.00     0.259 C 
ATOM     56  O7  non d ame      -7.889   9.157  61.206  0.00  0.00    -0.265 OA
BRANCH  55  57
ATOM     57  O8  non d ame      -8.552   7.906  62.976  0.00  0.00    -0.317 OA
BRANCH  57  58
ATOM     58  C29 non d ame      -7.821   6.773  62.498  0.00  0.00     0.052 C 
ATOM     59  H47 non d ame      -8.564   6.107  62.059  0.00  0.00     0.082 H 
ATOM     60  H48 non d ame      -7.019   7.177  61.881  0.00  0.00     0.082 H 
BRANCH  58  61
ATOM     61  C35 non d ame      -7.188   6.061  63.723  0.00  0.00    -0.034 A 
ATOM     62  C30 non d ame      -5.826   5.774  63.734  0.00  0.00    -0.075 A 
ATOM     63  C31 non d ame      -5.257   5.134  64.834  0.00  0.00    -0.082 A 
ATOM     64  H49 non d ame      -5.206   6.050  62.882  0.00  0.00     0.084 H 
ATOM     65  C32 non d ame      -6.055   4.778  65.925  0.00  0.00    -0.083 A 
ATOM     66  H50 non d ame      -4.190   4.912  64.841  0.00  0.00     0.083 H 
ATOM     67  C33 non d ame      -7.413   5.064  65.908  0.00  0.00    -0.082 A 
ATOM     68  H51 non d ame      -5.617   4.278  66.789  0.00  0.00     0.083 H 
ATOM     69  C34 non d ame      -7.986   5.705  64.811  0.00  0.00    -0.075 A 
ATOM     70  H52 non d ame      -8.033   4.783  66.759  0.00  0.00     0.083 H 
ATOM     71  H53 non d ame      -9.054   5.927  64.806  0.00  0.00     0.084 H 
ENDBRANCH  58  61
ENDBRANCH  57  58
ENDBRANCH  55  57
ENDBRANCH  52  55
ENDBRANCH  49  52
ENDBRANCH  47  49
BRANCH  47  72
ATOM     72  C24 non d ame     -11.214  12.113  64.805  0.00  0.00    -0.039 C 
ATOM     73  H35 non d ame     -11.159  12.748  63.920  0.00  0.00     0.036 H 
ATOM     74  H36 non d ame     -12.173  11.702  65.121  0.00  0.00     0.036 H 
BRANCH  72  75
ATOM     75  C25 non d ame     -10.637  12.963  66.034  0.00  0.00    -0.001 C 
ATOM     76  C26 non d ame     -11.685  12.902  67.299  0.00  0.00    -0.035 C 
ATOM     77  C27 non d ame     -11.936  14.165  67.719  0.00  0.00     0.085 C 
ATOM     78  H38 non d ame     -12.659  12.548  66.961  0.00  0.00     0.036 H 
ATOM     79  H39 non d ame     -11.205  12.437  68.161  0.00  0.00     0.036 H 
ATOM     80  N5  non d ame     -11.414  15.097  66.653  0.00  0.00    -0.049 N 
ATOM     81  H40 non d ame     -13.023  14.247  67.763  0.00  0.00     0.075 H 
ATOM     82  H41 non d ame     -11.344  14.294  68.625  0.00  0.00     0.075 H 
ATOM     83  C28 non d ame     -10.463  14.200  65.706  0.00  0.00     0.193 C 
ATOM     84  H42 non d ame     -12.215  15.394  66.115  0.00  0.00     0.280 HD
ATOM     85  H43 non d ame     -10.842  15.782  67.127  0.00  0.00     0.280 HD
ATOM     86  H44 non d ame      -9.378  14.275  65.782  0.00  0.00     0.129 H 
ATOM     87  H37 non d ame      -9.593  12.730  66.243  0.00  0.00     0.046 H 
BRANCH  83  88
ATOM     88  O6  non d ame     -10.767  14.441  64.331  0.00  0.00    -0.369 OA
ATOM     89  H45 non d ame      -9.961  14.396  63.812  0.00  0.00     0.212 HD
ENDBRANCH  83  88
ENDBRANCH  72  75
ENDBRANCH  47  72
ENDBRANCH  45  47
ENDBRANCH   1  43
BRANCH   1  90
ATOM     90  C16 non d ame      -7.061   8.527  66.909  0.00  0.00    -0.035 C 
ATOM     91  H21 non d ame      -6.508   8.179  67.782  0.00  0.00     0.037 H 
ATOM     92  H22 non d ame      -7.355   7.819  66.133  0.00  0.00     0.037 H 
BRANCH  90  93
ATOM     93  C17 non d ame      -6.160   9.596  66.213  0.00  0.00    -0.059 C 
ATOM     94  H23 non d ame      -6.798  10.195  65.564  0.00  0.00     0.038 H 
BRANCH  93  95
ATOM     95  C18 non d ame      -5.487  10.559  67.242  0.00  0.00    -0.073 C 
ATOM     96  H24 non d ame      -5.613  10.161  68.248  0.00  0.00     0.028 H 
ATOM     97  H25 non d ame      -4.423  10.647  67.016  0.00  0.00     0.028 H 
ATOM     98  H26 non d ame      -5.954  11.542  67.178  0.00  0.00     0.028 H 
ENDBRANCH  93  95
BRANCH  93  99
ATOM     99  C19 non d ame      -5.108   8.928  65.323  0.00  0.00    -0.073 C 
ATOM    100  H27 non d ame      -4.221   9.561  65.271  0.00  0.00     0.028 H 
ATOM    101  H28 non d ame      -4.838   7.959  65.744  0.00  0.00     0.028 H 
ATOM    102  H29 non d ame      -5.515   8.788  64.322  0.00  0.00     0.028 H 
ENDBRANCH  93  99
ENDBRANCH  90  93
ENDBRANCH   1  90
TORSDOF 26
ENDMDL
MODEL 17
REMARK VINA RESULT:      -6.2      3.382      8.146
REMARK  26 active torsions:
REMARK  status: ('A' for Active; 'I' for Inactive)
REMARK    1  A    between atoms: C2_2  and  C3_3 
REMARK    2  A    between atoms: C4_6  and  C5_7 
REMARK       I    between atoms: C5_7  and  N2_9 
REMARK    3  A    between atoms: N2_9  and  C6_10 
REMARK    4  A    between atoms: C6_10  and  C7_11 
REMARK    5  A    between atoms: C6_10  and  C8_13 
REMARK       I    between atoms: C7_11  and  N3_14 
REMARK    6  A    between atoms: N3_14  and  C9_15 
REMARK    7  A    between atoms: C9_15  and  C10_16 
REMARK    8  A    between atoms: C9_15  and  C11_18 
REMARK       I    between atoms: C10_16  and  N4_21 
REMARK    9  A    between atoms: C11_18  and  C12_19 
REMARK   10  A    between atoms: C11_18  and  C13_20 
REMARK   11  A    between atoms: N4_21  and  C14_22 
REMARK   12  A    between atoms: C14_22  and  C15_23 
REMARK   13  A    between atoms: C14_22  and  C16_25 
REMARK       I    between atoms: C15_23  and  N6_40 
REMARK   14  A    between atoms: C16_25  and  C17_26 
REMARK   15  A    between atoms: C17_26  and  C18_27 
REMARK   16  A    between atoms: C17_26  and  C19_28 
REMARK   17  A    between atoms: C20_29  and  C21_30 
REMARK   18  A    between atoms: C20_29  and  C24_33 
REMARK   19  A    between atoms: C20_29  and  N6_40 
REMARK   20  A    between atoms: C21_30  and  C22_31 
REMARK   21  A    between atoms: C22_31  and  C23_32 
REMARK   22  A    between atoms: C23_32  and  O8_43 
REMARK   23  A    between atoms: C24_33  and  C25_34 
REMARK   24  A    between atoms: C28_38  and  O6_39 
REMARK   25  A    between atoms: C29_42  and  O8_43 
REMARK   26  A    between atoms: C29_42  and  C35_49 
ROOT
ATOM      1  C14 non d ame      -8.971   9.624  65.081  0.00  0.00     0.089 C 
ATOM      2  H20 non d ame      -7.972   9.900  65.421  0.00  0.00     0.087 H 
ENDROOT
BRANCH   1   3
ATOM      3  N4  non d ame      -9.113   8.187  65.256  0.00  0.00    -0.346 N 
ATOM      4  C10 non d ame      -8.050   7.399  65.980  0.00  0.00     0.241 C 
ATOM      5  O4  non d ame      -7.087   7.944  66.410  0.00  0.00    -0.271 OA
ATOM      6  H19 non d ame      -9.938   7.742  64.881  0.00  0.00     0.163 HD
BRANCH   4   7
ATOM      7  C9  non d ame      -8.216   5.913  66.157  0.00  0.00     0.092 C 
ATOM      8  H11 non d ame      -7.233   5.444  66.194  0.00  0.00     0.088 H 
BRANCH   7   9
ATOM      9  N3  non d ame      -8.872   5.644  67.441  0.00  0.00    -0.346 N 
ATOM     10  C7  non d ame      -8.176   4.903  68.464  0.00  0.00     0.240 C 
ATOM     11  O3  non d ame      -7.089   4.515  68.271  0.00  0.00    -0.271 OA
ATOM     12  H10 non d ame      -9.810   5.970  67.621  0.00  0.00     0.163 HD
BRANCH  10  13
ATOM     13  C6  non d ame      -8.880   4.617  69.827  0.00  0.00     0.086 C 
ATOM     14  H6  non d ame      -8.226   4.781  70.682  0.00  0.00     0.086 H 
BRANCH  13  15
ATOM     15  N2  non d ame     -10.000   5.531  69.979  0.00  0.00    -0.343 N 
ATOM     16  C5  non d ame     -10.176   6.252  71.242  0.00  0.00     0.273 C 
ATOM     17  O2  non d ame      -9.413   6.087  72.130  0.00  0.00    -0.266 OA
ATOM     18  H5  non d ame     -10.649   5.664  69.216  0.00  0.00     0.163 HD
BRANCH  16  19
ATOM     19  C4  non d ame     -11.354   7.223  71.417  0.00  0.00     0.154 A 
ATOM     20  C1  non d ame     -11.291   8.648  71.532  0.00  0.00    -0.017 A 
ATOM     21  C2  non d ame     -12.634   9.061  71.673  0.00  0.00     0.077 A 
ATOM     22  H1  non d ame     -10.406   9.284  71.516  0.00  0.00     0.091 H 
ATOM     23  O1  non d ame     -13.374   7.992  71.639  0.00  0.00    -0.218 OA
ATOM     24  N1  non d ame     -12.650   6.907  71.491  0.00  0.00    -0.123 NA
BRANCH  21  25
ATOM     25  C3  non d ame     -13.125  10.494  71.832  0.00  0.00    -0.029 C 
ATOM     26  H2  non d ame     -12.561  11.148  71.166  0.00  0.00     0.036 H 
ATOM     27  H3  non d ame     -14.184  10.546  71.581  0.00  0.00     0.036 H 
ATOM     28  H4  non d ame     -12.980  10.815  72.864  0.00  0.00     0.036 H 
ENDBRANCH  21  25
ENDBRANCH  16  19
ENDBRANCH  13  15
BRANCH  13  29
ATOM     29  C8  non d ame      -9.370   3.192  69.853  0.00  0.00    -0.049 C 
ATOM     30  H7  non d ame     -10.296   3.136  70.425  0.00  0.00     0.030 H 
ATOM     31  H8  non d ame      -9.551   2.851  68.834  0.00  0.00     0.030 H 
ATOM     32  H9  non d ame      -8.617   2.558  70.320  0.00  0.00     0.030 H 
ENDBRANCH  13  29
ENDBRANCH  10  13
ENDBRANCH   7   9
BRANCH   7  33
ATOM     33  C11 non d ame      -9.092   5.347  65.001  0.00  0.00    -0.033 C 
ATOM     34  H12 non d ame      -9.905   6.053  64.829  0.00  0.00     0.042 H 
BRANCH  33  35
ATOM     35  C12 non d ame      -8.279   5.235  63.674  0.00  0.00    -0.071 C 
ATOM     36  H13 non d ame      -8.264   6.203  63.174  0.00  0.00     0.028 H 
ATOM     37  H14 non d ame      -7.258   4.926  63.899  0.00  0.00     0.028 H 
ATOM     38  H15 non d ame      -8.747   4.497  63.023  0.00  0.00     0.028 H 
ENDBRANCH  33  35
BRANCH  33  39
ATOM     39  C13 non d ame      -9.722   3.973  65.398  0.00  0.00    -0.071 C 
ATOM     40  H16 non d ame     -10.267   4.080  66.335  0.00  0.00     0.028 H 
ATOM     41  H17 non d ame     -10.407   3.648  64.614  0.00  0.00     0.028 H 
ATOM     42  H18 non d ame      -8.932   3.233  65.520  0.00  0.00     0.028 H 
ENDBRANCH  33  39
ENDBRANCH   7  33
ENDBRANCH   4   7
ENDBRANCH   1   3
BRANCH   1  43
ATOM     43  C15 non d ame     -10.087  10.336  65.898  0.00  0.00     0.240 C 
ATOM     44  O5  non d ame     -10.722   9.720  66.691  0.00  0.00    -0.271 OA
ATOM     45  N6  non d ame     -10.357  11.788  65.697  0.00  0.00    -0.355 N 
ATOM     46  H46 non d ame      -9.821  12.323  65.030  0.00  0.00     0.162 HD
BRANCH  45  47
ATOM     47  C20 non d ame     -11.421  12.450  66.483  0.00  0.00     0.013 C 
ATOM     48  H30 non d ame     -12.078  11.676  66.878  0.00  0.00     0.072 H 
BRANCH  47  49
ATOM     49  C21 non d ame     -12.202  13.380  65.582  0.00  0.00    -0.038 C 
ATOM     50  H31 non d ame     -12.906  12.746  65.043  0.00  0.00     0.036 H 
ATOM     51  H32 non d ame     -12.570  14.176  66.229  0.00  0.00     0.036 H 
BRANCH  49  52
ATOM     52  C22 non d ame     -11.320  14.060  64.512  0.00  0.00     0.018 C 
ATOM     53  H33 non d ame     -10.304  13.716  64.706  0.00  0.00     0.048 H 
ATOM     54  H34 non d ame     -11.796  13.842  63.556  0.00  0.00     0.048 H 
BRANCH  52  55
ATOM     55  C23 non d ame     -11.278  15.609  64.627  0.00  0.00     0.259 C 
ATOM     56  O7  non d ame     -11.988  16.283  63.954  0.00  0.00    -0.265 OA
BRANCH  55  57
ATOM     57  O8  non d ame     -10.371  16.215  65.540  0.00  0.00    -0.317 OA
BRANCH  57  58
ATOM     58  C29 non d ame     -10.490  17.638  65.621  0.00  0.00     0.052 C 
ATOM     59  H47 non d ame     -10.101  18.021  64.677  0.00  0.00     0.082 H 
ATOM     60  H48 non d ame     -11.525  17.832  65.902  0.00  0.00     0.082 H 
BRANCH  58  61
ATOM     61  C35 non d ame      -9.570  18.132  66.769  0.00  0.00    -0.034 A 
ATOM     62  C30 non d ame     -10.109  18.839  67.839  0.00  0.00    -0.075 A 
ATOM     63  C31 non d ame      -9.283  19.283  68.870  0.00  0.00    -0.082 A 
ATOM     64  H49 non d ame     -11.179  19.045  67.870  0.00  0.00     0.084 H 
ATOM     65  C32 non d ame      -7.911  19.019  68.827  0.00  0.00    -0.083 A 
ATOM     66  H50 non d ame      -9.708  19.834  69.708  0.00  0.00     0.083 H 
ATOM     67  C33 non d ame      -7.377  18.316  67.756  0.00  0.00    -0.082 A 
ATOM     68  H51 non d ame      -7.258  19.362  69.629  0.00  0.00     0.083 H 
ATOM     69  C34 non d ame      -8.200  17.869  66.724  0.00  0.00    -0.075 A 
ATOM     70  H52 non d ame      -6.306  18.114  67.724  0.00  0.00     0.083 H 
ATOM     71  H53 non d ame      -7.773  17.317  65.886  0.00  0.00     0.084 H 
ENDBRANCH  58  61
ENDBRANCH  57  58
ENDBRANCH  55  57
ENDBRANCH  52  55
ENDBRANCH  49  52
ENDBRANCH  47  49
BRANCH  47  72
ATOM     72  C24 non d ame     -10.798  13.251  67.624  0.00  0.00    -0.039 C 
ATOM     73  H35 non d ame     -10.274  12.519  68.240  0.00  0.00     0.036 H 
ATOM     74  H36 non d ame     -10.242  14.057  67.144  0.00  0.00     0.036 H 
BRANCH  72  75
ATOM     75  C25 non d ame     -11.914  13.933  68.549  0.00  0.00    -0.001 C 
ATOM     76  C26 non d ame     -11.563  15.524  68.771  0.00  0.00    -0.035 C 
ATOM     77  C27 non d ame     -11.592  15.796  70.098  0.00  0.00     0.085 C 
ATOM     78  H38 non d ame     -10.527  15.720  68.494  0.00  0.00     0.036 H 
ATOM     79  H39 non d ame     -12.363  16.143  68.366  0.00  0.00     0.036 H 
ATOM     80  N5  non d ame     -11.609  14.471  70.820  0.00  0.00    -0.049 N 
ATOM     81  H40 non d ame     -10.652  16.306  70.312  0.00  0.00     0.075 H 
ATOM     82  H41 non d ame     -12.540  16.306  70.269  0.00  0.00     0.075 H 
ATOM     83  C28 non d ame     -11.976  13.362  69.706  0.00  0.00     0.193 C 
ATOM     84  H42 non d ame     -10.665  14.307  71.139  0.00  0.00     0.280 HD
ATOM     85  H43 non d ame     -12.366  14.518  71.488  0.00  0.00     0.280 HD
ATOM     86  H44 non d ame     -12.976  12.931  69.661  0.00  0.00     0.129 H 
ATOM     87  H37 non d ame     -12.926  13.689  68.223  0.00  0.00     0.046 H 
BRANCH  83  88
ATOM     88  O6  non d ame     -11.085  12.249  69.806  0.00  0.00    -0.369 OA
ATOM     89  H45 non d ame     -11.480  11.484  69.382  0.00  0.00     0.212 HD
ENDBRANCH  83  88
ENDBRANCH  72  75
ENDBRANCH  47  72
ENDBRANCH  45  47
ENDBRANCH   1  43
BRANCH   1  90
ATOM     90  C16 non d ame      -9.123   9.962  63.606  0.00  0.00    -0.035 C 
ATOM     91  H21 non d ame      -9.319   9.010  63.111  0.00  0.00     0.037 H 
ATOM     92  H22 non d ame      -9.865  10.759  63.567  0.00  0.00     0.037 H 
BRANCH  90  93
ATOM     93  C17 non d ame      -7.823  10.536  62.957  0.00  0.00    -0.059 C 
ATOM     94  H23 non d ame      -7.793  11.605  63.169  0.00  0.00     0.038 H 
BRANCH  93  95
ATOM     95  C18 non d ame      -6.531   9.895  63.557  0.00  0.00    -0.073 C 
ATOM     96  H24 non d ame      -6.049   9.275  62.802  0.00  0.00     0.028 H 
ATOM     97  H25 non d ame      -5.847  10.683  63.872  0.00  0.00     0.028 H 
ATOM     98  H26 non d ame      -6.797   9.279  64.417  0.00  0.00     0.028 H 
ENDBRANCH  93  95
BRANCH  93  99
ATOM     99  C19 non d ame      -7.855  10.376  61.435  0.00  0.00    -0.073 C 
ATOM    100  H27 non d ame      -6.892  10.672  61.018  0.00  0.00     0.028 H 
ATOM    101  H28 non d ame      -8.054   9.334  61.184  0.00  0.00     0.028 H 
ATOM    102  H29 non d ame      -8.640  11.006  61.020  0.00  0.00     0.028 H 
ENDBRANCH  93  99
ENDBRANCH  90  93
ENDBRANCH   1  90
TORSDOF 26
ENDMDL
MODEL 18
REMARK VINA RESULT:      -6.2      2.773      8.003
REMARK  26 active torsions:
REMARK  status: ('A' for Active; 'I' for Inactive)
REMARK    1  A    between atoms: C2_2  and  C3_3 
REMARK    2  A    between atoms: C4_6  and  C5_7 
REMARK       I    between atoms: C5_7  and  N2_9 
REMARK    3  A    between atoms: N2_9  and  C6_10 
REMARK    4  A    between atoms: C6_10  and  C7_11 
REMARK    5  A    between atoms: C6_10  and  C8_13 
REMARK       I    between atoms: C7_11  and  N3_14 
REMARK    6  A    between atoms: N3_14  and  C9_15 
REMARK    7  A    between atoms: C9_15  and  C10_16 
REMARK    8  A    between atoms: C9_15  and  C11_18 
REMARK       I    between atoms: C10_16  and  N4_21 
REMARK    9  A    between atoms: C11_18  and  C12_19 
REMARK   10  A    between atoms: C11_18  and  C13_20 
REMARK   11  A    between atoms: N4_21  and  C14_22 
REMARK   12  A    between atoms: C14_22  and  C15_23 
REMARK   13  A    between atoms: C14_22  and  C16_25 
REMARK       I    between atoms: C15_23  and  N6_40 
REMARK   14  A    between atoms: C16_25  and  C17_26 
REMARK   15  A    between atoms: C17_26  and  C18_27 
REMARK   16  A    between atoms: C17_26  and  C19_28 
REMARK   17  A    between atoms: C20_29  and  C21_30 
REMARK   18  A    between atoms: C20_29  and  C24_33 
REMARK   19  A    between atoms: C20_29  and  N6_40 
REMARK   20  A    between atoms: C21_30  and  C22_31 
REMARK   21  A    between atoms: C22_31  and  C23_32 
REMARK   22  A    between atoms: C23_32  and  O8_43 
REMARK   23  A    between atoms: C24_33  and  C25_34 
REMARK   24  A    between atoms: C28_38  and  O6_39 
REMARK   25  A    between atoms: C29_42  and  O8_43 
REMARK   26  A    between atoms: C29_42  and  C35_49 
ROOT
ATOM      1  C14 non d ame      -5.915  13.848  67.865  0.00  0.00     0.089 C 
ATOM      2  H20 non d ame      -5.271  13.903  66.987  0.00  0.00     0.087 H 
ENDROOT
BRANCH   1   3
ATOM      3  N4  non d ame      -6.472  15.175  68.084  0.00  0.00    -0.346 N 
ATOM      4  C10 non d ame      -5.811  16.388  67.480  0.00  0.00     0.241 C 
ATOM      5  O4  non d ame      -4.829  16.272  66.823  0.00  0.00    -0.271 OA
ATOM      6  H19 non d ame      -7.306  15.253  68.648  0.00  0.00     0.163 HD
BRANCH   4   7
ATOM      7  C9  non d ame      -6.404  17.753  67.712  0.00  0.00     0.092 C 
ATOM      8  H11 non d ame      -6.025  18.441  66.957  0.00  0.00     0.088 H 
BRANCH   7   9
ATOM      9  N3  non d ame      -7.859  17.687  67.548  0.00  0.00    -0.346 N 
ATOM     10  C7  non d ame      -8.494  18.387  66.457  0.00  0.00     0.240 C 
ATOM     11  O3  non d ame      -7.848  19.008  65.704  0.00  0.00    -0.271 OA
ATOM     12  H10 non d ame      -8.429  17.157  68.191  0.00  0.00     0.163 HD
BRANCH  10  13
ATOM     13  C6  non d ame     -10.043  18.316  66.290  0.00  0.00     0.086 C 
ATOM     14  H6  non d ame     -10.371  18.572  65.282  0.00  0.00     0.086 H 
BRANCH  13  15
ATOM     15  N2  non d ame     -10.482  16.953  66.536  0.00  0.00    -0.343 N 
ATOM     16  C5  non d ame     -10.973  16.140  65.421  0.00  0.00     0.273 C 
ATOM     17  O2  non d ame     -11.013  16.594  64.330  0.00  0.00    -0.266 OA
ATOM     18  H5  non d ame     -10.447  16.574  67.472  0.00  0.00     0.163 HD
BRANCH  16  19
ATOM     19  C4  non d ame     -11.439  14.697  65.666  0.00  0.00     0.154 A 
ATOM     20  C1  non d ame     -10.979  13.801  66.683  0.00  0.00    -0.017 A 
ATOM     21  C2  non d ame     -11.715  12.612  66.480  0.00  0.00     0.077 A 
ATOM     22  H1  non d ame     -10.227  13.985  67.451  0.00  0.00     0.091 H 
ATOM     23  O1  non d ame     -12.502  12.813  65.464  0.00  0.00    -0.218 OA
ATOM     24  N1  non d ame     -12.359  14.022  64.972  0.00  0.00    -0.123 NA
BRANCH  21  25
ATOM     25  C3  non d ame     -11.606  11.333  67.300  0.00  0.00    -0.029 C 
ATOM     26  H2  non d ame     -11.366  11.583  68.334  0.00  0.00     0.036 H 
ATOM     27  H3  non d ame     -12.555  10.798  67.266  0.00  0.00     0.036 H 
ATOM     28  H4  non d ame     -10.818  10.702  66.887  0.00  0.00     0.036 H 
ENDBRANCH  21  25
ENDBRANCH  16  19
ENDBRANCH  13  15
BRANCH  13  29
ATOM     29  C8  non d ame     -10.701  19.255  67.269  0.00  0.00    -0.049 C 
ATOM     30  H7  non d ame      -9.963  19.967  67.642  0.00  0.00     0.030 H 
ATOM     31  H8  non d ame     -11.506  19.794  66.771  0.00  0.00     0.030 H 
ATOM     32  H9  non d ame     -11.107  18.684  68.103  0.00  0.00     0.030 H 
ENDBRANCH  13  29
ENDBRANCH  10  13
ENDBRANCH   7   9
BRANCH   7  33
ATOM     33  C11 non d ame      -6.068  18.225  69.157  0.00  0.00    -0.033 C 
ATOM     34  H12 non d ame      -6.495  17.499  69.848  0.00  0.00     0.042 H 
BRANCH  33  35
ATOM     35  C12 non d ame      -4.527  18.256  69.401  0.00  0.00    -0.071 C 
ATOM     36  H13 non d ame      -4.225  19.262  69.692  0.00  0.00     0.028 H 
ATOM     37  H14 non d ame      -4.272  17.556  70.197  0.00  0.00     0.028 H 
ATOM     38  H15 non d ame      -4.009  17.971  68.486  0.00  0.00     0.028 H 
ENDBRANCH  33  35
BRANCH  33  39
ATOM     39  C13 non d ame      -6.717  19.615  69.455  0.00  0.00    -0.071 C 
ATOM     40  H16 non d ame      -7.355  19.537  70.335  0.00  0.00     0.028 H 
ATOM     41  H17 non d ame      -5.932  20.350  69.640  0.00  0.00     0.028 H 
ATOM     42  H18 non d ame      -7.314  19.929  68.599  0.00  0.00     0.028 H 
ENDBRANCH  33  39
ENDBRANCH   7  33
ENDBRANCH   4   7
ENDBRANCH   1   3
BRANCH   1  43
ATOM     43  C15 non d ame      -7.087  12.844  67.672  0.00  0.00     0.240 C 
ATOM     44  O5  non d ame      -8.038  12.903  68.382  0.00  0.00    -0.271 OA
ATOM     45  N6  non d ame      -7.027  11.815  66.596  0.00  0.00    -0.355 N 
ATOM     46  H46 non d ame      -6.226  11.758  65.984  0.00  0.00     0.162 HD
BRANCH  45  47
ATOM     47  C20 non d ame      -8.151  10.868  66.424  0.00  0.00     0.013 C 
ATOM     48  H30 non d ame      -9.005  11.258  66.977  0.00  0.00     0.072 H 
BRANCH  47  49
ATOM     49  C21 non d ame      -7.754   9.517  66.973  0.00  0.00    -0.038 C 
ATOM     50  H31 non d ame      -7.822   8.826  66.132  0.00  0.00     0.036 H 
ATOM     51  H32 non d ame      -6.799   9.672  67.475  0.00  0.00     0.036 H 
BRANCH  49  52
ATOM     52  C22 non d ame      -8.732   8.995  68.047  0.00  0.00     0.018 C 
ATOM     53  H33 non d ame      -8.163   8.966  68.976  0.00  0.00     0.048 H 
ATOM     54  H34 non d ame      -9.619   9.625  67.970  0.00  0.00     0.048 H 
BRANCH  52  55
ATOM     55  C23 non d ame      -9.219   7.540  67.797  0.00  0.00     0.259 C 
ATOM     56  O7  non d ame      -9.353   6.785  68.705  0.00  0.00    -0.265 OA
BRANCH  55  57
ATOM     57  O8  non d ame      -9.491   7.115  66.468  0.00  0.00    -0.317 OA
BRANCH  57  58
ATOM     58  C29 non d ame      -9.124   5.758  66.203  0.00  0.00     0.052 C 
ATOM     59  H47 non d ame      -8.706   5.379  67.136  0.00  0.00     0.082 H 
ATOM     60  H48 non d ame     -10.010   5.291  65.773  0.00  0.00     0.082 H 
BRANCH  58  61
ATOM     61  C35 non d ame      -8.003   5.766  65.130  0.00  0.00    -0.034 A 
ATOM     62  C30 non d ame      -8.301   5.448  63.809  0.00  0.00    -0.075 A 
ATOM     63  C31 non d ame      -7.294   5.454  62.845  0.00  0.00    -0.082 A 
ATOM     64  H49 non d ame      -9.323   5.194  63.529  0.00  0.00     0.084 H 
ATOM     65  C32 non d ame      -5.983   5.778  63.207  0.00  0.00    -0.083 A 
ATOM     66  H50 non d ame      -7.531   5.207  61.810  0.00  0.00     0.083 H 
ATOM     67  C33 non d ame      -5.690   6.091  64.527  0.00  0.00    -0.082 A 
ATOM     68  H51 non d ame      -5.190   5.786  62.459  0.00  0.00     0.083 H 
ATOM     69  C34 non d ame      -6.694   6.088  65.493  0.00  0.00    -0.075 A 
ATOM     70  H52 non d ame      -4.666   6.341  64.807  0.00  0.00     0.083 H 
ATOM     71  H53 non d ame      -6.456   6.336  66.528  0.00  0.00     0.084 H 
ENDBRANCH  58  61
ENDBRANCH  57  58
ENDBRANCH  55  57
ENDBRANCH  52  55
ENDBRANCH  49  52
ENDBRANCH  47  49
BRANCH  47  72
ATOM     72  C24 non d ame      -8.493  10.737  64.942  0.00  0.00    -0.039 C 
ATOM     73  H35 non d ame      -9.577  10.624  64.903  0.00  0.00     0.036 H 
ATOM     74  H36 non d ame      -8.017  11.589  64.457  0.00  0.00     0.036 H 
BRANCH  72  75
ATOM     75  C25 non d ame      -7.857   9.413  64.302  0.00  0.00    -0.001 C 
ATOM     76  C26 non d ame      -6.377   9.752  63.670  0.00  0.00    -0.035 C 
ATOM     77  C27 non d ame      -6.332   9.298  62.395  0.00  0.00     0.085 C 
ATOM     78  H38 non d ame      -6.255  10.829  63.562  0.00  0.00     0.036 H 
ATOM     79  H39 non d ame      -5.611   9.165  64.177  0.00  0.00     0.036 H 
ATOM     80  N5  non d ame      -7.751   8.975  61.991  0.00  0.00    -0.049 N 
ATOM     81  H40 non d ame      -5.976  10.139  61.799  0.00  0.00     0.075 H 
ATOM     82  H41 non d ame      -5.755   8.375  62.435  0.00  0.00     0.075 H 
ATOM     83  C28 non d ame      -8.605   8.943  63.360  0.00  0.00     0.193 C 
ATOM     84  H42 non d ame      -8.072   9.751  61.430  0.00  0.00     0.280 HD
ATOM     85  H43 non d ame      -7.732   8.043  61.602  0.00  0.00     0.280 HD
ATOM     86  H44 non d ame      -8.906   7.993  63.803  0.00  0.00     0.129 H 
ATOM     87  H37 non d ame      -7.926   8.556  64.972  0.00  0.00     0.046 H 
BRANCH  83  88
ATOM     88  O6  non d ame      -9.812   9.692  63.206  0.00  0.00    -0.369 OA
ATOM     89  H45 non d ame      -9.779  10.186  62.384  0.00  0.00     0.212 HD
ENDBRANCH  83  88
ENDBRANCH  72  75
ENDBRANCH  47  72
ENDBRANCH  45  47
ENDBRANCH   1  43
BRANCH   1  90
ATOM     90  C16 non d ame      -5.094  13.448  69.081  0.00  0.00    -0.035 C 
ATOM     91  H21 non d ame      -4.722  14.384  69.499  0.00  0.00     0.037 H 
ATOM     92  H22 non d ame      -5.749  12.809  69.674  0.00  0.00     0.037 H 
BRANCH  90  93
ATOM     93  C17 non d ame      -3.836  12.590  68.733  0.00  0.00    -0.059 C 
ATOM     94  H23 non d ame      -3.048  12.858  69.437  0.00  0.00     0.038 H 
BRANCH  93  95
ATOM     95  C18 non d ame      -4.108  11.059  68.883  0.00  0.00    -0.073 C 
ATOM     96  H24 non d ame      -3.170  10.541  69.080  0.00  0.00     0.028 H 
ATOM     97  H25 non d ame      -4.797  10.891  69.711  0.00  0.00     0.028 H 
ATOM     98  H26 non d ame      -4.548  10.677  67.961  0.00  0.00     0.028 H 
ENDBRANCH  93  95
BRANCH  93  99
ATOM     99  C19 non d ame      -3.322  12.917  67.329  0.00  0.00    -0.073 C 
ATOM    100  H27 non d ame      -2.240  13.046  67.359  0.00  0.00     0.028 H 
ATOM    101  H28 non d ame      -3.573  12.101  66.651  0.00  0.00     0.028 H 
ATOM    102  H29 non d ame      -3.789  13.837  66.977  0.00  0.00     0.028 H 
ENDBRANCH  93  99
ENDBRANCH  90  93
ENDBRANCH   1  90
TORSDOF 26
ENDMDL
MODEL 19
REMARK VINA RESULT:      -6.1      2.461      7.598
REMARK  26 active torsions:
REMARK  status: ('A' for Active; 'I' for Inactive)
REMARK    1  A    between atoms: C2_2  and  C3_3 
REMARK    2  A    between atoms: C4_6  and  C5_7 
REMARK       I    between atoms: C5_7  and  N2_9 
REMARK    3  A    between atoms: N2_9  and  C6_10 
REMARK    4  A    between atoms: C6_10  and  C7_11 
REMARK    5  A    between atoms: C6_10  and  C8_13 
REMARK       I    between atoms: C7_11  and  N3_14 
REMARK    6  A    between atoms: N3_14  and  C9_15 
REMARK    7  A    between atoms: C9_15  and  C10_16 
REMARK    8  A    between atoms: C9_15  and  C11_18 
REMARK       I    between atoms: C10_16  and  N4_21 
REMARK    9  A    between atoms: C11_18  and  C12_19 
REMARK   10  A    between atoms: C11_18  and  C13_20 
REMARK   11  A    between atoms: N4_21  and  C14_22 
REMARK   12  A    between atoms: C14_22  and  C15_23 
REMARK   13  A    between atoms: C14_22  and  C16_25 
REMARK       I    between atoms: C15_23  and  N6_40 
REMARK   14  A    between atoms: C16_25  and  C17_26 
REMARK   15  A    between atoms: C17_26  and  C18_27 
REMARK   16  A    between atoms: C17_26  and  C19_28 
REMARK   17  A    between atoms: C20_29  and  C21_30 
REMARK   18  A    between atoms: C20_29  and  C24_33 
REMARK   19  A    between atoms: C20_29  and  N6_40 
REMARK   20  A    between atoms: C21_30  and  C22_31 
REMARK   21  A    between atoms: C22_31  and  C23_32 
REMARK   22  A    between atoms: C23_32  and  O8_43 
REMARK   23  A    between atoms: C24_33  and  C25_34 
REMARK   24  A    between atoms: C28_38  and  O6_39 
REMARK   25  A    between atoms: C29_42  and  O8_43 
REMARK   26  A    between atoms: C29_42  and  C35_49 
ROOT
ATOM      1  C14 non d ame      -7.081   9.710  65.068  0.00  0.00     0.089 C 
ATOM      2  H20 non d ame      -7.486   8.784  64.658  0.00  0.00     0.087 H 
ENDROOT
BRANCH   1   3
ATOM      3  N4  non d ame      -8.177  10.661  65.168  0.00  0.00    -0.346 N 
ATOM      4  C10 non d ame      -9.590  10.177  65.375  0.00  0.00     0.241 C 
ATOM      5  O4  non d ame      -9.820   9.015  65.456  0.00  0.00    -0.271 OA
ATOM      6  H19 non d ame      -7.961  11.645  65.095  0.00  0.00     0.163 HD
BRANCH   4   7
ATOM      7  C9  non d ame     -10.712  11.176  65.483  0.00  0.00     0.092 C 
ATOM      8  H11 non d ame     -11.633  10.654  65.744  0.00  0.00     0.088 H 
BRANCH   7   9
ATOM      9  N3  non d ame     -10.425  12.119  66.568  0.00  0.00    -0.346 N 
ATOM     10  C7  non d ame     -11.336  12.234  67.681  0.00  0.00     0.240 C 
ATOM     11  O3  non d ame     -12.304  11.578  67.718  0.00  0.00    -0.271 OA
ATOM     12  H10 non d ame      -9.595  12.693  66.549  0.00  0.00     0.163 HD
BRANCH  10  13
ATOM     13  C6  non d ame     -11.027  13.242  68.831  0.00  0.00     0.086 C 
ATOM     14  H6  non d ame     -10.019  13.129  69.231  0.00  0.00     0.086 H 
BRANCH  13  15
ATOM     15  N2  non d ame     -11.118  14.596  68.310  0.00  0.00    -0.343 N 
ATOM     16  C5  non d ame      -9.919  15.244  67.772  0.00  0.00     0.273 C 
ATOM     17  O2  non d ame      -8.887  14.669  67.767  0.00  0.00    -0.266 OA
ATOM     18  H5  non d ame     -12.004  15.081  68.321  0.00  0.00     0.163 HD
BRANCH  16  19
ATOM     19  C4  non d ame     -10.001  16.674  67.216  0.00  0.00     0.154 A 
ATOM     20  C1  non d ame      -9.985  17.894  67.963  0.00  0.00    -0.017 A 
ATOM     21  C2  non d ame     -10.084  18.916  66.992  0.00  0.00     0.077 A 
ATOM     22  H1  non d ame      -9.913  18.019  69.044  0.00  0.00     0.091 H 
ATOM     23  O1  non d ame     -10.147  18.339  65.828  0.00  0.00    -0.218 OA
ATOM     24  N1  non d ame     -10.101  17.031  65.933  0.00  0.00    -0.123 NA
BRANCH  21  25
ATOM     25  C3  non d ame     -10.110  20.415  67.261  0.00  0.00    -0.029 C 
ATOM     26  H2  non d ame     -10.076  20.955  66.314  0.00  0.00     0.036 H 
ATOM     27  H3  non d ame     -11.025  20.673  67.793  0.00  0.00     0.036 H 
ATOM     28  H4  non d ame      -9.247  20.691  67.867  0.00  0.00     0.036 H 
ENDBRANCH  21  25
ENDBRANCH  16  19
ENDBRANCH  13  15
BRANCH  13  29
ATOM     29  C8  non d ame     -12.019  13.052  69.950  0.00  0.00    -0.049 C 
ATOM     30  H7  non d ame     -11.550  13.306  70.900  0.00  0.00     0.030 H 
ATOM     31  H8  non d ame     -12.881  13.699  69.786  0.00  0.00     0.030 H 
ATOM     32  H9  non d ame     -12.345  12.012  69.973  0.00  0.00     0.030 H 
ENDBRANCH  13  29
ENDBRANCH  10  13
ENDBRANCH   7   9
BRANCH   7  33
ATOM     33  C11 non d ame     -10.841  11.956  64.142  0.00  0.00    -0.033 C 
ATOM     34  H12 non d ame     -10.118  11.534  63.445  0.00  0.00     0.042 H 
BRANCH  33  35
ATOM     35  C12 non d ame     -12.258  11.776  63.513  0.00  0.00    -0.071 C 
ATOM     36  H13 non d ame     -12.315  10.807  63.018  0.00  0.00     0.028 H 
ATOM     37  H14 non d ame     -13.012  11.827  64.298  0.00  0.00     0.028 H 
ATOM     38  H15 non d ame     -12.436  12.568  62.786  0.00  0.00     0.028 H 
ENDBRANCH  33  35
BRANCH  33  39
ATOM     39  C13 non d ame     -10.497  13.467  64.339  0.00  0.00    -0.071 C 
ATOM     40  H16 non d ame      -9.765  13.774  63.592  0.00  0.00     0.028 H 
ATOM     41  H17 non d ame     -11.402  14.064  64.227  0.00  0.00     0.028 H 
ATOM     42  H18 non d ame     -10.083  13.618  65.336  0.00  0.00     0.028 H 
ENDBRANCH  33  39
ENDBRANCH   7  33
ENDBRANCH   4   7
ENDBRANCH   1   3
BRANCH   1  43
ATOM     43  C15 non d ame      -6.471   9.506  66.484  0.00  0.00     0.240 C 
ATOM     44  O5  non d ame      -5.300   9.632  66.647  0.00  0.00    -0.271 OA
ATOM     45  N6  non d ame      -7.347   9.163  67.640  0.00  0.00    -0.355 N 
ATOM     46  H46 non d ame      -8.344   9.058  67.515  0.00  0.00     0.162 HD
BRANCH  45  47
ATOM     47  C20 non d ame      -6.752   8.974  68.981  0.00  0.00     0.013 C 
ATOM     48  H30 non d ame      -5.675   8.859  68.856  0.00  0.00     0.072 H 
BRANCH  47  49
ATOM     49  C21 non d ame      -7.334   7.732  69.616  0.00  0.00    -0.038 C 
ATOM     50  H31 non d ame      -6.727   7.541  70.501  0.00  0.00     0.036 H 
ATOM     51  H32 non d ame      -8.402   7.927  69.719  0.00  0.00     0.036 H 
BRANCH  49  52
ATOM     52  C22 non d ame      -7.204   6.482  68.718  0.00  0.00     0.018 C 
ATOM     53  H33 non d ame      -6.484   6.749  67.944  0.00  0.00     0.048 H 
ATOM     54  H34 non d ame      -6.995   5.653  69.395  0.00  0.00     0.048 H 
BRANCH  52  55
ATOM     55  C23 non d ame      -8.515   6.107  67.973  0.00  0.00     0.259 C 
ATOM     56  O7  non d ame      -8.705   6.482  66.862  0.00  0.00    -0.265 OA
BRANCH  55  57
ATOM     57  O8  non d ame      -9.493   5.319  68.639  0.00  0.00    -0.317 OA
BRANCH  57  58
ATOM     58  C29 non d ame     -10.799   5.903  68.656  0.00  0.00     0.052 C 
ATOM     59  H47 non d ame     -10.848   6.542  67.774  0.00  0.00     0.082 H 
ATOM     60  H48 non d ame     -11.494   5.071  68.766  0.00  0.00     0.082 H 
BRANCH  58  61
ATOM     61  C35 non d ame     -10.906   6.800  69.919  0.00  0.00    -0.034 A 
ATOM     62  C30 non d ame     -10.889   8.185  69.792  0.00  0.00    -0.075 A 
ATOM     63  C31 non d ame     -10.985   8.991  70.926  0.00  0.00    -0.082 A 
ATOM     64  H49 non d ame     -10.802   8.640  68.805  0.00  0.00     0.084 H 
ATOM     65  C32 non d ame     -11.095   8.406  72.190  0.00  0.00    -0.083 A 
ATOM     66  H50 non d ame     -10.974  10.076  70.823  0.00  0.00     0.083 H 
ATOM     67  C33 non d ame     -11.107   7.023  72.312  0.00  0.00    -0.082 A 
ATOM     68  H51 non d ame     -11.171   9.029  73.082  0.00  0.00     0.083 H 
ATOM     69  C34 non d ame     -11.014   6.214  71.181  0.00  0.00    -0.075 A 
ATOM     70  H52 non d ame     -11.191   6.570  73.300  0.00  0.00     0.083 H 
ATOM     71  H53 non d ame     -11.026   5.129  71.285  0.00  0.00     0.084 H 
ENDBRANCH  58  61
ENDBRANCH  57  58
ENDBRANCH  55  57
ENDBRANCH  52  55
ENDBRANCH  49  52
ENDBRANCH  47  49
BRANCH  47  72
ATOM     72  C24 non d ame      -7.058  10.187  69.857  0.00  0.00    -0.039 C 
ATOM     73  H35 non d ame      -8.044  10.530  69.543  0.00  0.00     0.036 H 
ATOM     74  H36 non d ame      -6.899   9.851  70.882  0.00  0.00     0.036 H 
BRANCH  72  75
ATOM     75  C25 non d ame      -6.032  11.387  69.588  0.00  0.00    -0.001 C 
ATOM     76  C26 non d ame      -5.448  11.955  71.017  0.00  0.00    -0.035 C 
ATOM     77  C27 non d ame      -5.604  13.300  71.048  0.00  0.00     0.085 C 
ATOM     78  H38 non d ame      -6.070  11.607  71.840  0.00  0.00     0.036 H 
ATOM     79  H39 non d ame      -4.366  11.824  71.057  0.00  0.00     0.036 H 
ATOM     80  N5  non d ame      -6.536  13.663  69.917  0.00  0.00    -0.049 N 
ATOM     81  H40 non d ame      -6.097  13.514  71.997  0.00  0.00     0.075 H 
ATOM     82  H41 non d ame      -4.618  13.713  70.841  0.00  0.00     0.075 H 
ATOM     83  C28 non d ame      -6.605  12.361  68.964  0.00  0.00     0.193 C 
ATOM     84  H42 non d ame      -7.446  13.807  70.331  0.00  0.00     0.280 HD
ATOM     85  H43 non d ame      -6.089  14.411  69.407  0.00  0.00     0.280 HD
ATOM     86  H44 non d ame      -6.063  12.338  68.019  0.00  0.00     0.129 H 
ATOM     87  H37 non d ame      -5.302  11.141  68.817  0.00  0.00     0.046 H 
BRANCH  83  88
ATOM     88  O6  non d ame      -7.963  12.065  68.633  0.00  0.00    -0.369 OA
ATOM     89  H45 non d ame      -8.097  12.190  67.691  0.00  0.00     0.212 HD
ENDBRANCH  83  88
ENDBRANCH  72  75
ENDBRANCH  47  72
ENDBRANCH  45  47
ENDBRANCH   1  43
BRANCH   1  90
ATOM     90  C16 non d ame      -6.023  10.269  64.131  0.00  0.00    -0.035 C 
ATOM     91  H21 non d ame      -6.395  11.248  63.826  0.00  0.00     0.037 H 
ATOM     92  H22 non d ame      -5.082  10.190  64.677  0.00  0.00     0.037 H 
BRANCH  90  93
ATOM     93  C17 non d ame      -5.843   9.438  62.821  0.00  0.00    -0.059 C 
ATOM     94  H23 non d ame      -5.022   9.881  62.258  0.00  0.00     0.038 H 
BRANCH  93  95
ATOM     95  C18 non d ame      -5.471   7.949  63.114  0.00  0.00    -0.073 C 
ATOM     96  H24 non d ame      -4.924   7.890  64.055  0.00  0.00     0.028 H 
ATOM     97  H25 non d ame      -6.381   7.354  63.185  0.00  0.00     0.028 H 
ATOM     98  H26 non d ame      -4.847   7.564  62.307  0.00  0.00     0.028 H 
ENDBRANCH  93  95
BRANCH  93  99
ATOM     99  C19 non d ame      -7.094   9.523  61.943  0.00  0.00    -0.073 C 
ATOM    100  H27 non d ame      -6.841   9.244  60.920  0.00  0.00     0.028 H 
ATOM    101  H28 non d ame      -7.855   8.843  62.328  0.00  0.00     0.028 H 
ATOM    102  H29 non d ame      -7.479  10.543  61.957  0.00  0.00     0.028 H 
ENDBRANCH  93  99
ENDBRANCH  90  93
ENDBRANCH   1  90
TORSDOF 26
ENDMDL
MODEL 20
REMARK VINA RESULT:      -6.1      2.327      8.238
REMARK  26 active torsions:
REMARK  status: ('A' for Active; 'I' for Inactive)
REMARK    1  A    between atoms: C2_2  and  C3_3 
REMARK    2  A    between atoms: C4_6  and  C5_7 
REMARK       I    between atoms: C5_7  and  N2_9 
REMARK    3  A    between atoms: N2_9  and  C6_10 
REMARK    4  A    between atoms: C6_10  and  C7_11 
REMARK    5  A    between atoms: C6_10  and  C8_13 
REMARK       I    between atoms: C7_11  and  N3_14 
REMARK    6  A    between atoms: N3_14  and  C9_15 
REMARK    7  A    between atoms: C9_15  and  C10_16 
REMARK    8  A    between atoms: C9_15  and  C11_18 
REMARK       I    between atoms: C10_16  and  N4_21 
REMARK    9  A    between atoms: C11_18  and  C12_19 
REMARK   10  A    between atoms: C11_18  and  C13_20 
REMARK   11  A    between atoms: N4_21  and  C14_22 
REMARK   12  A    between atoms: C14_22  and  C15_23 
REMARK   13  A    between atoms: C14_22  and  C16_25 
REMARK       I    between atoms: C15_23  and  N6_40 
REMARK   14  A    between atoms: C16_25  and  C17_26 
REMARK   15  A    between atoms: C17_26  and  C18_27 
REMARK   16  A    between atoms: C17_26  and  C19_28 
REMARK   17  A    between atoms: C20_29  and  C21_30 
REMARK   18  A    between atoms: C20_29  and  C24_33 
REMARK   19  A    between atoms: C20_29  and  N6_40 
REMARK   20  A    between atoms: C21_30  and  C22_31 
REMARK   21  A    between atoms: C22_31  and  C23_32 
REMARK   22  A    between atoms: C23_32  and  O8_43 
REMARK   23  A    between atoms: C24_33  and  C25_34 
REMARK   24  A    between atoms: C28_38  and  O6_39 
REMARK   25  A    between atoms: C29_42  and  O8_43 
REMARK   26  A    between atoms: C29_42  and  C35_49 
ROOT
ATOM      1  C14 non d ame     -10.721  13.083  66.712  0.00  0.00     0.089 C 
ATOM      2  H20 non d ame     -11.580  13.742  66.843  0.00  0.00     0.087 H 
ENDROOT
BRANCH   1   3
ATOM      3  N4  non d ame      -9.557  13.767  67.255  0.00  0.00    -0.346 N 
ATOM      4  C10 non d ame      -9.606  15.248  67.536  0.00  0.00     0.241 C 
ATOM      5  O4  non d ame     -10.593  15.869  67.315  0.00  0.00    -0.271 OA
ATOM      6  H19 non d ame      -8.726  13.221  67.435  0.00  0.00     0.163 HD
BRANCH   4   7
ATOM      7  C9  non d ame      -8.393  15.938  68.104  0.00  0.00     0.092 C 
ATOM      8  H11 non d ame      -8.474  15.970  69.190  0.00  0.00     0.088 H 
BRANCH   7   9
ATOM      9  N3  non d ame      -7.192  15.162  67.781  0.00  0.00    -0.346 N 
ATOM     10  C7  non d ame      -6.406  14.577  68.840  0.00  0.00     0.240 C 
ATOM     11  O3  non d ame      -6.725  14.723  69.956  0.00  0.00    -0.271 OA
ATOM     12  H10 non d ame      -6.904  15.029  66.822  0.00  0.00     0.163 HD
BRANCH  10  13
ATOM     13  C6  non d ame      -5.128  13.754  68.490  0.00  0.00     0.086 C 
ATOM     14  H6  non d ame      -4.830  13.078  69.291  0.00  0.00     0.086 H 
BRANCH  13  15
ATOM     15  N2  non d ame      -5.403  12.927  67.327  0.00  0.00    -0.343 N 
ATOM     16  C5  non d ame      -6.169  11.690  67.487  0.00  0.00     0.273 C 
ATOM     17  O2  non d ame      -6.558  11.367  68.556  0.00  0.00    -0.266 OA
ATOM     18  H5  non d ame      -5.065  13.209  66.418  0.00  0.00     0.163 HD
BRANCH  16  19
ATOM     19  C4  non d ame      -6.469  10.806  66.266  0.00  0.00     0.154 A 
ATOM     20  C1  non d ame      -5.547   9.978  65.551  0.00  0.00    -0.017 A 
ATOM     21  C2  non d ame      -6.314   9.381  64.526  0.00  0.00     0.077 A 
ATOM     22  H1  non d ame      -4.484   9.832  65.747  0.00  0.00     0.091 H 
ATOM     23  O1  non d ame      -7.532   9.821  64.647  0.00  0.00    -0.218 OA
ATOM     24  N1  non d ame      -7.648  10.654  65.656  0.00  0.00    -0.123 NA
BRANCH  21  25
ATOM     25  C3  non d ame      -5.807   8.403  63.474  0.00  0.00    -0.029 C 
ATOM     26  H2  non d ame      -4.718   8.379  63.494  0.00  0.00     0.036 H 
ATOM     27  H3  non d ame      -6.197   7.408  63.686  0.00  0.00     0.036 H 
ATOM     28  H4  non d ame      -6.145   8.723  62.487  0.00  0.00     0.036 H 
ENDBRANCH  21  25
ENDBRANCH  16  19
ENDBRANCH  13  15
BRANCH  13  29
ATOM     29  C8  non d ame      -3.986  14.695  68.197  0.00  0.00    -0.049 C 
ATOM     30  H7  non d ame      -3.829  15.354  69.051  0.00  0.00     0.030 H 
ATOM     31  H8  non d ame      -3.080  14.119  68.011  0.00  0.00     0.030 H 
ATOM     32  H9  non d ame      -4.225  15.292  67.317  0.00  0.00     0.030 H 
ENDBRANCH  13  29
ENDBRANCH  10  13
ENDBRANCH   7   9
BRANCH   7  33
ATOM     33  C11 non d ame      -8.270  17.361  67.484  0.00  0.00    -0.033 C 
ATOM     34  H12 non d ame      -9.268  17.676  67.181  0.00  0.00     0.042 H 
BRANCH  33  35
ATOM     35  C12 non d ame      -7.751  18.394  68.532  0.00  0.00    -0.071 C 
ATOM     36  H13 non d ame      -6.861  18.890  68.144  0.00  0.00     0.028 H 
ATOM     37  H14 non d ame      -8.525  19.137  68.724  0.00  0.00     0.028 H 
ATOM     38  H15 non d ame      -7.504  17.878  69.460  0.00  0.00     0.028 H 
ENDBRANCH  33  35
BRANCH  33  39
ATOM     39  C13 non d ame      -7.362  17.340  66.212  0.00  0.00    -0.071 C 
ATOM     40  H16 non d ame      -7.336  18.335  65.768  0.00  0.00     0.028 H 
ATOM     41  H17 non d ame      -6.352  17.041  66.492  0.00  0.00     0.028 H 
ATOM     42  H18 non d ame      -7.765  16.630  65.491  0.00  0.00     0.028 H 
ENDBRANCH  33  39
ENDBRANCH   7  33
ENDBRANCH   4   7
ENDBRANCH   1   3
BRANCH   1  43
ATOM     43  C15 non d ame     -10.897  11.733  67.463  0.00  0.00     0.240 C 
ATOM     44  O5  non d ame     -11.987  11.289  67.635  0.00  0.00    -0.271 OA
ATOM     45  N6  non d ame      -9.707  10.987  67.962  0.00  0.00    -0.355 N 
ATOM     46  H46 non d ame      -8.776  11.351  67.818  0.00  0.00     0.162 HD
BRANCH  45  47
ATOM     47  C20 non d ame      -9.891   9.703  68.673  0.00  0.00     0.013 C 
ATOM     48  H30 non d ame     -10.763   9.206  68.247  0.00  0.00     0.072 H 
BRANCH  47  49
ATOM     49  C21 non d ame     -10.117   9.974  70.143  0.00  0.00    -0.038 C 
ATOM     50  H31 non d ame      -9.213   9.634  70.648  0.00  0.00     0.036 H 
ATOM     51  H32 non d ame     -10.417  11.021  70.206  0.00  0.00     0.036 H 
BRANCH  49  52
ATOM     52  C22 non d ame     -11.283   9.150  70.732  0.00  0.00     0.018 C 
ATOM     53  H33 non d ame     -11.624   8.502  69.924  0.00  0.00     0.048 H 
ATOM     54  H34 non d ame     -10.899   8.715  71.655  0.00  0.00     0.048 H 
BRANCH  52  55
ATOM     55  C23 non d ame     -12.512  10.008  71.141  0.00  0.00     0.259 C 
ATOM     56  O7  non d ame     -13.479   9.494  71.603  0.00  0.00    -0.265 OA
BRANCH  55  57
ATOM     57  O8  non d ame     -12.475  11.417  70.946  0.00  0.00    -0.317 OA
BRANCH  57  58
ATOM     58  C29 non d ame     -13.328  12.149  71.831  0.00  0.00     0.052 C 
ATOM     59  H47 non d ame     -14.319  12.115  71.380  0.00  0.00     0.082 H 
ATOM     60  H48 non d ame     -13.164  11.723  72.820  0.00  0.00     0.082 H 
BRANCH  58  61
ATOM     61  C35 non d ame     -12.846  13.625  71.847  0.00  0.00    -0.034 A 
ATOM     62  C30 non d ame     -13.109  14.431  72.950  0.00  0.00    -0.075 A 
ATOM     63  C31 non d ame     -12.676  15.756  72.964  0.00  0.00    -0.082 A 
ATOM     64  H49 non d ame     -13.652  14.025  73.803  0.00  0.00     0.084 H 
ATOM     65  C32 non d ame     -11.981  16.276  71.869  0.00  0.00    -0.083 A 
ATOM     66  H50 non d ame     -12.881  16.385  73.831  0.00  0.00     0.083 H 
ATOM     67  C33 non d ame     -11.725  15.468  70.769  0.00  0.00    -0.082 A 
ATOM     68  H51 non d ame     -11.639  17.311  71.872  0.00  0.00     0.083 H 
ATOM     69  C34 non d ame     -12.153  14.143  70.751  0.00  0.00    -0.075 A 
ATOM     70  H52 non d ame     -11.184  15.877  69.915  0.00  0.00     0.083 H 
ATOM     71  H53 non d ame     -11.946  13.514  69.884  0.00  0.00     0.084 H 
ENDBRANCH  58  61
ENDBRANCH  57  58
ENDBRANCH  55  57
ENDBRANCH  52  55
ENDBRANCH  49  52
ENDBRANCH  47  49
BRANCH  47  72
ATOM     72  C24 non d ame      -8.647   8.834  68.500  0.00  0.00    -0.039 C 
ATOM     73  H35 non d ame      -7.952   9.435  67.913  0.00  0.00     0.036 H 
ATOM     74  H36 non d ame      -8.375   8.514  69.506  0.00  0.00     0.036 H 
BRANCH  72  75
ATOM     75  C25 non d ame      -8.961   7.512  67.652  0.00  0.00    -0.001 C 
ATOM     76  C26 non d ame     -10.444   7.635  66.952  0.00  0.00    -0.035 C 
ATOM     77  C27 non d ame     -11.160   6.523  67.247  0.00  0.00     0.085 C 
ATOM     78  H38 non d ame     -11.014   8.436  67.422  0.00  0.00     0.036 H 
ATOM     79  H39 non d ame     -10.350   7.596  65.867  0.00  0.00     0.036 H 
ATOM     80  N5  non d ame     -10.423   5.803  68.351  0.00  0.00    -0.049 N 
ATOM     81  H40 non d ame     -12.114   6.883  67.633  0.00  0.00     0.075 H 
ATOM     82  H41 non d ame     -11.132   5.912  66.345  0.00  0.00     0.075 H 
ATOM     83  C28 non d ame      -8.949   6.461  68.403  0.00  0.00     0.193 C 
ATOM     84  H42 non d ame     -10.905   6.027  69.210  0.00  0.00     0.280 HD
ATOM     85  H43 non d ame     -10.335   4.841  68.056  0.00  0.00     0.280 HD
ATOM     86  H44 non d ame      -8.091   5.931  67.988  0.00  0.00     0.129 H 
ATOM     87  H37 non d ame      -8.130   7.228  67.006  0.00  0.00     0.046 H 
BRANCH  83  88
ATOM     88  O6  non d ame      -8.594   6.767  69.752  0.00  0.00    -0.369 OA
ATOM     89  H45 non d ame      -7.813   6.265  69.999  0.00  0.00     0.212 HD
ENDBRANCH  83  88
ENDBRANCH  72  75
ENDBRANCH  47  72
ENDBRANCH  45  47
ENDBRANCH   1  43
BRANCH   1  90
ATOM     90  C16 non d ame     -10.496  12.819  65.232  0.00  0.00    -0.035 C 
ATOM     91  H21 non d ame      -9.646  13.443  64.953  0.00  0.00     0.037 H 
ATOM     92  H22 non d ame     -10.429  11.735  65.139  0.00  0.00     0.037 H 
BRANCH  90  93
ATOM     93  C17 non d ame     -11.688  13.267  64.327  0.00  0.00    -0.059 C 
ATOM     94  H23 non d ame     -11.293  13.948  63.573  0.00  0.00     0.038 H 
BRANCH  93  95
ATOM     95  C18 non d ame     -12.347  12.062  63.582  0.00  0.00    -0.073 C 
ATOM     96  H24 non d ame     -11.799  11.149  63.812  0.00  0.00     0.028 H 
ATOM     97  H25 non d ame     -13.382  11.957  63.908  0.00  0.00     0.028 H 
ATOM     98  H26 non d ame     -12.321  12.242  62.507  0.00  0.00     0.028 H 
ENDBRANCH  93  95
BRANCH  93  99
ATOM     99  C19 non d ame     -12.729  14.042  65.139  0.00  0.00    -0.073 C 
ATOM    100  H27 non d ame     -12.227  14.634  65.904  0.00  0.00     0.028 H 
ATOM    101  H28 non d ame     -13.288  14.703  64.476  0.00  0.00     0.028 H 
ATOM    102  H29 non d ame     -13.415  13.340  65.613  0.00  0.00     0.028 H 
ENDBRANCH  93  99
ENDBRANCH  90  93
ENDBRANCH   1  90
TORSDOF 26
ENDMDL
