MODEL 1
REMARK VINA RESULT:      -7.5      0.000      0.000
REMARK  26 active torsions:
REMARK  status: ('A' for Active; 'I' for Inactive)
REMARK    1  A    between atoms: C2_2  and  C3_3 
REMARK    2  A    between atoms: C4_6  and  C5_7 
REMARK       I    between atoms: C5_7  and  N2_9 
REMARK    3  A    between atoms: N2_9  and  C6_10 
REMARK    4  A    between atoms: C6_10  and  C7_11 
REMARK    5  A    between atoms: C6_10  and  C8_13 
REMARK       I    between atoms: C7_11  and  N3_14 
REMARK    6  A    between atoms: N3_14  and  C9_15 
REMARK    7  A    between atoms: C9_15  and  C10_16 
REMARK    8  A    between atoms: C9_15  and  C11_18 
REMARK       I    between atoms: C10_16  and  N4_21 
REMARK    9  A    between atoms: C11_18  and  C12_19 
REMARK   10  A    between atoms: C11_18  and  C13_20 
REMARK   11  A    between atoms: N4_21  and  C14_22 
REMARK   12  A    between atoms: C14_22  and  C15_23 
REMARK   13  A    between atoms: C14_22  and  C16_25 
REMARK       I    between atoms: C15_23  and  N6_40 
REMARK   14  A    between atoms: C16_25  and  C17_26 
REMARK   15  A    between atoms: C17_26  and  C18_27 
REMARK   16  A    between atoms: C17_26  and  C19_28 
REMARK   17  A    between atoms: C20_29  and  C21_30 
REMARK   18  A    between atoms: C20_29  and  C24_33 
REMARK   19  A    between atoms: C20_29  and  N6_40 
REMARK   20  A    between atoms: C21_30  and  C22_31 
REMARK   21  A    between atoms: C22_31  and  C23_32 
REMARK   22  A    between atoms: C23_32  and  O8_43 
REMARK   23  A    between atoms: C24_33  and  C25_34 
REMARK   24  A    between atoms: C28_38  and  O6_39 
REMARK   25  A    between atoms: C29_42  and  O8_43 
REMARK   26  A    between atoms: C29_42  and  C35_49 
ROOT
ATOM      1  C14 non d ame     -11.810  13.869  69.604  0.00  0.00     0.089 C 
ATOM      2  H20 non d ame     -12.839  13.867  69.243  0.00  0.00     0.087 H 
ENDROOT
BRANCH   1   3
ATOM      3  N4  non d ame     -11.485  12.509  70.007  0.00  0.00    -0.346 N 
ATOM      4  C10 non d ame     -11.704  11.360  69.055  0.00  0.00     0.241 C 
ATOM      5  O4  non d ame     -12.146  11.554  67.971  0.00  0.00    -0.271 OA
ATOM      6  H19 non d ame     -11.112  12.364  70.934  0.00  0.00     0.163 HD
BRANCH   4   7
ATOM      7  C9  non d ame     -11.357   9.959  69.487  0.00  0.00     0.092 C 
ATOM      8  H11 non d ame     -12.071   9.262  69.049  0.00  0.00     0.088 H 
BRANCH   7   9
ATOM      9  N3  non d ame     -10.031   9.603  68.971  0.00  0.00    -0.346 N 
ATOM     10  C7  non d ame      -9.913   8.830  67.759  0.00  0.00     0.240 C 
ATOM     11  O3  non d ame     -10.874   8.486  67.187  0.00  0.00    -0.271 OA
ATOM     12  H10 non d ame      -9.193   9.892  69.455  0.00  0.00     0.163 HD
BRANCH  10  13
ATOM     13  C6  non d ame      -8.500   8.452  67.217  0.00  0.00     0.086 C 
ATOM     14  H6  non d ame      -7.988   7.724  67.846  0.00  0.00     0.086 H 
BRANCH  13  15
ATOM     15  N2  non d ame      -8.646   7.839  65.907  0.00  0.00    -0.343 N 
ATOM     16  C5  non d ame      -8.186   6.464  65.699  0.00  0.00     0.273 C 
ATOM     17  O2  non d ame      -7.698   5.861  66.590  0.00  0.00    -0.266 OA
ATOM     18  H5  non d ame      -9.062   8.363  65.150  0.00  0.00     0.163 HD
BRANCH  16  19
ATOM     19  C4  non d ame      -8.336   5.803  64.319  0.00  0.00     0.154 A 
ATOM     20  C1  non d ame      -9.296   4.815  63.934  0.00  0.00    -0.017 A 
ATOM     21  C2  non d ame      -9.012   4.542  62.577  0.00  0.00     0.077 A 
ATOM     22  H1  non d ame     -10.078   4.364  64.545  0.00  0.00     0.091 H 
ATOM     23  O1  non d ame      -8.007   5.293  62.233  0.00  0.00    -0.218 OA
ATOM     24  N1  non d ame      -7.594   6.037  63.233  0.00  0.00    -0.123 NA
BRANCH  21  25
ATOM     25  C3  non d ame      -9.749   3.554  61.683  0.00  0.00    -0.029 C 
ATOM     26  H2  non d ame      -9.108   3.271  60.848  0.00  0.00     0.036 H 
ATOM     27  H3  non d ame     -10.008   2.666  62.260  0.00  0.00     0.036 H 
ATOM     28  H4  non d ame     -10.659   4.017  61.301  0.00  0.00     0.036 H 
ENDBRANCH  21  25
ENDBRANCH  16  19
ENDBRANCH  13  15
BRANCH  13  29
ATOM     29  C8  non d ame      -7.649   9.692  67.115  0.00  0.00    -0.049 C 
ATOM     30  H7  non d ame      -8.289  10.575  67.137  0.00  0.00     0.030 H 
ATOM     31  H8  non d ame      -6.954   9.726  67.954  0.00  0.00     0.030 H 
ATOM     32  H9  non d ame      -7.090   9.673  66.180  0.00  0.00     0.030 H 
ENDBRANCH  13  29
ENDBRANCH  10  13
ENDBRANCH   7   9
BRANCH   7  33
ATOM     33  C11 non d ame     -11.343   9.884  71.042  0.00  0.00    -0.033 C 
ATOM     34  H12 non d ame     -11.026  10.858  71.415  0.00  0.00     0.042 H 
BRANCH  33  35
ATOM     35  C12 non d ame     -12.769   9.605  71.610  0.00  0.00    -0.071 C 
ATOM     36  H13 non d ame     -13.114  10.476  72.168  0.00  0.00     0.028 H 
ATOM     37  H14 non d ame     -13.455   9.407  70.787  0.00  0.00     0.028 H 
ATOM     38  H15 non d ame     -12.733   8.740  72.271  0.00  0.00     0.028 H 
ENDBRANCH  33  35
BRANCH  33  39
ATOM     39  C13 non d ame     -10.316   8.818  71.541  0.00  0.00    -0.071 C 
ATOM     40  H16 non d ame      -9.361   8.968  71.037  0.00  0.00     0.028 H 
ATOM     41  H17 non d ame     -10.178   8.922  72.618  0.00  0.00     0.028 H 
ATOM     42  H18 non d ame     -10.692   7.819  71.318  0.00  0.00     0.028 H 
ENDBRANCH  33  39
ENDBRANCH   7  33
ENDBRANCH   4   7
ENDBRANCH   1   3
BRANCH   1  43
ATOM     43  C15 non d ame     -10.803  14.315  68.506  0.00  0.00     0.240 C 
ATOM     44  O5  non d ame      -9.647  14.408  68.766  0.00  0.00    -0.271 OA
ATOM     45  N6  non d ame     -11.278  14.616  67.125  0.00  0.00    -0.355 N 
ATOM     46  H46 non d ame     -12.257  14.535  66.890  0.00  0.00     0.162 HD
BRANCH  45  47
ATOM     47  C20 non d ame     -10.308  15.037  66.092  0.00  0.00     0.013 C 
ATOM     48  H30 non d ame      -9.312  14.749  66.429  0.00  0.00     0.072 H 
BRANCH  47  49
ATOM     49  C21 non d ame     -10.380  16.538  65.920  0.00  0.00    -0.038 C 
ATOM     50  H31 non d ame      -9.915  16.747  64.956  0.00  0.00     0.036 H 
ATOM     51  H32 non d ame     -11.424  16.803  66.091  0.00  0.00     0.036 H 
BRANCH  49  52
ATOM     52  C22 non d ame      -9.556  17.302  66.978  0.00  0.00     0.018 C 
ATOM     53  H33 non d ame      -9.961  17.000  67.944  0.00  0.00     0.048 H 
ATOM     54  H34 non d ame      -8.511  17.103  66.739  0.00  0.00     0.048 H 
BRANCH  52  55
ATOM     55  C23 non d ame      -9.724  18.846  66.907  0.00  0.00     0.259 C 
ATOM     56  O7  non d ame     -10.687  19.369  67.366  0.00  0.00    -0.265 OA
BRANCH  55  57
ATOM     57  O8  non d ame      -8.718  19.628  66.276  0.00  0.00    -0.317 OA
BRANCH  57  58
ATOM     58  C29 non d ame      -7.894  20.362  67.186  0.00  0.00     0.052 C 
ATOM     59  H47 non d ame      -8.418  21.300  67.368  0.00  0.00     0.082 H 
ATOM     60  H48 non d ame      -7.690  19.683  68.013  0.00  0.00     0.082 H 
BRANCH  58  61
ATOM     61  C35 non d ame      -6.554  20.679  66.470  0.00  0.00    -0.034 A 
ATOM     62  C30 non d ame      -5.498  21.236  67.183  0.00  0.00    -0.075 A 
ATOM     63  C31 non d ame      -4.294  21.521  66.540  0.00  0.00    -0.082 A 
ATOM     64  H49 non d ame      -5.613  21.450  68.246  0.00  0.00     0.084 H 
ATOM     65  C32 non d ame      -4.149  21.248  65.177  0.00  0.00    -0.083 A 
ATOM     66  H50 non d ame      -3.467  21.956  67.103  0.00  0.00     0.083 H 
ATOM     67  C33 non d ame      -5.207  20.695  64.469  0.00  0.00    -0.082 A 
ATOM     68  H51 non d ame      -3.211  21.467  64.667  0.00  0.00     0.083 H 
ATOM     69  C34 non d ame      -6.411  20.407  65.108  0.00  0.00    -0.075 A 
ATOM     70  H52 non d ame      -5.092  20.485  63.405  0.00  0.00     0.083 H 
ATOM     71  H53 non d ame      -7.237  19.971  64.545  0.00  0.00     0.084 H 
ENDBRANCH  58  61
ENDBRANCH  57  58
ENDBRANCH  55  57
ENDBRANCH  52  55
ENDBRANCH  49  52
ENDBRANCH  47  49
BRANCH  47  72
ATOM     72  C24 non d ame     -10.637  14.355  64.765  0.00  0.00    -0.039 C 
ATOM     73  H35 non d ame     -11.398  14.982  64.298  0.00  0.00     0.036 H 
ATOM     74  H36 non d ame      -9.678  14.204  64.271  0.00  0.00     0.036 H 
BRANCH  72  75
ATOM     75  C25 non d ame     -11.288  12.909  64.988  0.00  0.00    -0.001 C 
ATOM     76  C26 non d ame     -10.103  11.779  65.142  0.00  0.00    -0.035 C 
ATOM     77  C27 non d ame     -10.356  10.762  64.285  0.00  0.00     0.085 C 
ATOM     78  H38 non d ame      -9.155  12.182  64.788  0.00  0.00     0.036 H 
ATOM     79  H39 non d ame     -10.162  11.306  66.123  0.00  0.00     0.036 H 
ATOM     80  N5  non d ame     -11.421  11.244  63.330  0.00  0.00    -0.049 N 
ATOM     81  H40 non d ame      -9.428  10.608  63.733  0.00  0.00     0.075 H 
ATOM     82  H41 non d ame     -10.765   9.959  64.897  0.00  0.00     0.075 H 
ATOM     83  C28 non d ame     -12.043  12.577  63.994  0.00  0.00     0.193 C 
ATOM     84  H42 non d ame     -10.946  11.501  62.476  0.00  0.00     0.280 HD
ATOM     85  H43 non d ame     -12.136  10.530  63.314  0.00  0.00     0.280 HD
ATOM     86  H44 non d ame     -13.016  12.550  64.484  0.00  0.00     0.129 H 
ATOM     87  H37 non d ame     -12.066  12.919  65.752  0.00  0.00     0.046 H 
BRANCH  83  88
ATOM     88  O6  non d ame     -12.136  13.617  63.018  0.00  0.00    -0.369 OA
ATOM     89  H45 non d ame     -11.692  13.340  62.213  0.00  0.00     0.212 HD
ENDBRANCH  83  88
ENDBRANCH  72  75
ENDBRANCH  47  72
ENDBRANCH  45  47
ENDBRANCH   1  43
BRANCH   1  90
ATOM     90  C16 non d ame     -11.689  14.786  70.811  0.00  0.00    -0.035 C 
ATOM     91  H21 non d ame     -10.701  14.587  71.227  0.00  0.00     0.037 H 
ATOM     92  H22 non d ame     -11.934  15.782  70.442  0.00  0.00     0.037 H 
BRANCH  90  93
ATOM     93  C17 non d ame     -12.717  14.470  71.943  0.00  0.00    -0.059 C 
ATOM     94  H23 non d ame     -12.638  13.408  72.175  0.00  0.00     0.038 H 
BRANCH  93  95
ATOM     95  C18 non d ame     -12.415  15.267  73.253  0.00  0.00    -0.073 C 
ATOM     96  H24 non d ame     -12.737  14.683  74.115  0.00  0.00     0.028 H 
ATOM     97  H25 non d ame     -11.344  15.457  73.323  0.00  0.00     0.028 H 
ATOM     98  H26 non d ame     -12.952  16.215  73.233  0.00  0.00     0.028 H 
ENDBRANCH  93  95
BRANCH  93  99
ATOM     99  C19 non d ame     -14.150  14.726  71.468  0.00  0.00    -0.073 C 
ATOM    100  H27 non d ame     -14.133  15.395  70.608  0.00  0.00     0.028 H 
ATOM    101  H28 non d ame     -14.613  13.781  71.185  0.00  0.00     0.028 H 
ATOM    102  H29 non d ame     -14.723  15.184  72.274  0.00  0.00     0.028 H 
ENDBRANCH  93  99
ENDBRANCH  90  93
ENDBRANCH   1  90
TORSDOF 26
ENDMDL
MODEL 2
REMARK VINA RESULT:      -7.4      4.124     10.789
REMARK  26 active torsions:
REMARK  status: ('A' for Active; 'I' for Inactive)
REMARK    1  A    between atoms: C2_2  and  C3_3 
REMARK    2  A    between atoms: C4_6  and  C5_7 
REMARK       I    between atoms: C5_7  and  N2_9 
REMARK    3  A    between atoms: N2_9  and  C6_10 
REMARK    4  A    between atoms: C6_10  and  C7_11 
REMARK    5  A    between atoms: C6_10  and  C8_13 
REMARK       I    between atoms: C7_11  and  N3_14 
REMARK    6  A    between atoms: N3_14  and  C9_15 
REMARK    7  A    between atoms: C9_15  and  C10_16 
REMARK    8  A    between atoms: C9_15  and  C11_18 
REMARK       I    between atoms: C10_16  and  N4_21 
REMARK    9  A    between atoms: C11_18  and  C12_19 
REMARK   10  A    between atoms: C11_18  and  C13_20 
REMARK   11  A    between atoms: N4_21  and  C14_22 
REMARK   12  A    between atoms: C14_22  and  C15_23 
REMARK   13  A    between atoms: C14_22  and  C16_25 
REMARK       I    between atoms: C15_23  and  N6_40 
REMARK   14  A    between atoms: C16_25  and  C17_26 
REMARK   15  A    between atoms: C17_26  and  C18_27 
REMARK   16  A    between atoms: C17_26  and  C19_28 
REMARK   17  A    between atoms: C20_29  and  C21_30 
REMARK   18  A    between atoms: C20_29  and  C24_33 
REMARK   19  A    between atoms: C20_29  and  N6_40 
REMARK   20  A    between atoms: C21_30  and  C22_31 
REMARK   21  A    between atoms: C22_31  and  C23_32 
REMARK   22  A    between atoms: C23_32  and  O8_43 
REMARK   23  A    between atoms: C24_33  and  C25_34 
REMARK   24  A    between atoms: C28_38  and  O6_39 
REMARK   25  A    between atoms: C29_42  and  O8_43 
REMARK   26  A    between atoms: C29_42  and  C35_49 
ROOT
ATOM      1  C14 non d ame      -7.977   8.130  63.548  0.00  0.00     0.089 C 
ATOM      2  H20 non d ame      -8.109   8.394  62.499  0.00  0.00     0.087 H 
ENDROOT
BRANCH   1   3
ATOM      3  N4  non d ame      -8.908   8.936  64.324  0.00  0.00    -0.346 N 
ATOM      4  C10 non d ame      -9.567  10.144  63.707  0.00  0.00     0.241 C 
ATOM      5  O4  non d ame      -9.329  10.449  62.585  0.00  0.00    -0.271 OA
ATOM      6  H19 non d ame      -9.095   8.660  65.277  0.00  0.00     0.163 HD
BRANCH   4   7
ATOM      7  C9  non d ame     -10.533  10.962  64.522  0.00  0.00     0.092 C 
ATOM      8  H11 non d ame     -11.327  10.315  64.894  0.00  0.00     0.088 H 
BRANCH   7   9
ATOM      9  N3  non d ame      -9.841  11.515  65.690  0.00  0.00    -0.346 N 
ATOM     10  C7  non d ame      -9.909  10.831  66.958  0.00  0.00     0.240 C 
ATOM     11  O3  non d ame     -10.517   9.835  67.056  0.00  0.00    -0.271 OA
ATOM     12  H10 non d ame      -9.314  12.374  65.621  0.00  0.00     0.163 HD
BRANCH  10  13
ATOM     13  C6  non d ame      -9.173  11.425  68.199  0.00  0.00     0.086 C 
ATOM     14  H6  non d ame      -8.382  12.124  67.925  0.00  0.00     0.086 H 
BRANCH  13  15
ATOM     15  N2  non d ame     -10.128  12.172  69.000  0.00  0.00    -0.343 N 
ATOM     16  C5  non d ame     -10.456  13.551  68.633  0.00  0.00     0.273 C 
ATOM     17  O2  non d ame      -9.944  14.052  67.692  0.00  0.00    -0.266 OA
ATOM     18  H5  non d ame     -10.559  11.737  69.804  0.00  0.00     0.163 HD
BRANCH  16  19
ATOM     19  C4  non d ame     -11.465  14.352  69.470  0.00  0.00     0.154 A 
ATOM     20  C1  non d ame     -12.292  13.861  70.530  0.00  0.00    -0.017 A 
ATOM     21  C2  non d ame     -13.029  14.984  70.967  0.00  0.00     0.077 A 
ATOM     22  H1  non d ame     -12.348  12.845  70.922  0.00  0.00     0.091 H 
ATOM     23  O1  non d ame     -12.660  15.997  70.238  0.00  0.00    -0.218 OA
ATOM     24  N1  non d ame     -11.749  15.653  69.357  0.00  0.00    -0.123 NA
BRANCH  21  25
ATOM     25  C3  non d ame     -14.062  15.005  72.085  0.00  0.00    -0.029 C 
ATOM     26  H2  non d ame     -15.062  14.913  71.659  0.00  0.00     0.036 H 
ATOM     27  H3  non d ame     -13.879  14.174  72.765  0.00  0.00     0.036 H 
ATOM     28  H4  non d ame     -13.987  15.945  72.633  0.00  0.00     0.036 H 
ENDBRANCH  21  25
ENDBRANCH  16  19
ENDBRANCH  13  15
BRANCH  13  29
ATOM     29  C8  non d ame      -8.575  10.308  69.015  0.00  0.00    -0.049 C 
ATOM     30  H7  non d ame      -7.607  10.030  68.598  0.00  0.00     0.030 H 
ATOM     31  H8  non d ame      -8.444  10.640  70.045  0.00  0.00     0.030 H 
ATOM     32  H9  non d ame      -9.241   9.446  68.993  0.00  0.00     0.030 H 
ENDBRANCH  13  29
ENDBRANCH  10  13
ENDBRANCH   7   9
BRANCH   7  33
ATOM     33  C11 non d ame     -11.088  12.128  63.652  0.00  0.00    -0.033 C 
ATOM     34  H12 non d ame     -10.532  12.132  62.714  0.00  0.00     0.042 H 
BRANCH  33  35
ATOM     35  C12 non d ame     -12.594  11.911  63.304  0.00  0.00    -0.071 C 
ATOM     36  H13 non d ame     -12.674  11.344  62.375  0.00  0.00     0.028 H 
ATOM     37  H14 non d ame     -13.076  11.357  64.109  0.00  0.00     0.028 H 
ATOM     38  H15 non d ame     -13.081  12.877  63.183  0.00  0.00     0.028 H 
ENDBRANCH  33  35
BRANCH  33  39
ATOM     39  C13 non d ame     -10.862  13.506  64.353  0.00  0.00    -0.071 C 
ATOM     40  H16 non d ame     -11.587  14.228  63.978  0.00  0.00     0.028 H 
ATOM     41  H17 non d ame     -10.988  13.391  65.430  0.00  0.00     0.028 H 
ATOM     42  H18 non d ame      -9.853  13.860  64.141  0.00  0.00     0.028 H 
ENDBRANCH  33  39
ENDBRANCH   7  33
ENDBRANCH   4   7
ENDBRANCH   1   3
BRANCH   1  43
ATOM     43  C15 non d ame      -8.277   6.628  63.818  0.00  0.00     0.240 C 
ATOM     44  O5  non d ame      -8.104   5.827  62.958  0.00  0.00    -0.271 OA
ATOM     45  N6  non d ame      -8.771   6.187  65.154  0.00  0.00    -0.355 N 
ATOM     46  H46 non d ame      -8.917   6.857  65.894  0.00  0.00     0.162 HD
BRANCH  45  47
ATOM     47  C20 non d ame      -9.051   4.755  65.395  0.00  0.00     0.013 C 
ATOM     48  H30 non d ame      -9.091   4.253  64.428  0.00  0.00     0.072 H 
BRANCH  47  49
ATOM     49  C21 non d ame     -10.379   4.617  66.105  0.00  0.00    -0.038 C 
ATOM     50  H31 non d ame     -11.125   4.512  65.316  0.00  0.00     0.036 H 
ATOM     51  H32 non d ame     -10.241   3.820  66.835  0.00  0.00     0.036 H 
BRANCH  49  52
ATOM     52  C22 non d ame     -10.764   5.881  66.905  0.00  0.00     0.018 C 
ATOM     53  H33 non d ame     -10.131   6.680  66.518  0.00  0.00     0.048 H 
ATOM     54  H34 non d ame     -11.849   5.959  66.828  0.00  0.00     0.048 H 
BRANCH  52  55
ATOM     55  C23 non d ame     -10.449   5.781  68.423  0.00  0.00     0.259 C 
ATOM     56  O7  non d ame     -10.110   4.747  68.902  0.00  0.00    -0.265 OA
BRANCH  55  57
ATOM     57  O8  non d ame     -10.582   6.937  69.240  0.00  0.00    -0.317 OA
BRANCH  57  58
ATOM     58  C29 non d ame     -11.026   6.662  70.572  0.00  0.00     0.052 C 
ATOM     59  H47 non d ame     -11.665   5.782  70.493  0.00  0.00     0.082 H 
ATOM     60  H48 non d ame     -10.124   6.627  71.182  0.00  0.00     0.082 H 
BRANCH  58  61
ATOM     61  C35 non d ame     -11.893   7.859  71.045  0.00  0.00    -0.034 A 
ATOM     62  C30 non d ame     -11.421   9.160  70.902  0.00  0.00    -0.075 A 
ATOM     63  C31 non d ame     -12.200  10.235  71.327  0.00  0.00    -0.082 A 
ATOM     64  H49 non d ame     -10.442   9.337  70.457  0.00  0.00     0.084 H 
ATOM     65  C32 non d ame     -13.454  10.006  71.900  0.00  0.00    -0.083 A 
ATOM     66  H50 non d ame     -11.829  11.254  71.212  0.00  0.00     0.083 H 
ATOM     67  C33 non d ame     -13.919   8.706  72.044  0.00  0.00    -0.082 A 
ATOM     68  H51 non d ame     -14.069  10.841  72.235  0.00  0.00     0.083 H 
ATOM     69  C34 non d ame     -13.145   7.628  71.618  0.00  0.00    -0.075 A 
ATOM     70  H52 non d ame     -14.896   8.530  72.493  0.00  0.00     0.083 H 
ATOM     71  H53 non d ame     -13.517   6.610  71.733  0.00  0.00     0.084 H 
ENDBRANCH  58  61
ENDBRANCH  57  58
ENDBRANCH  55  57
ENDBRANCH  52  55
ENDBRANCH  49  52
ENDBRANCH  47  49
BRANCH  47  72
ATOM     72  C24 non d ame      -7.946   4.151  66.260  0.00  0.00    -0.039 C 
ATOM     73  H35 non d ame      -8.437   3.841  67.183  0.00  0.00     0.036 H 
ATOM     74  H36 non d ame      -7.455   3.410  65.629  0.00  0.00     0.036 H 
BRANCH  72  75
ATOM     75  C25 non d ame      -6.841   5.242  66.655  0.00  0.00    -0.001 C 
ATOM     76  C26 non d ame      -5.476   5.002  65.770  0.00  0.00    -0.035 C 
ATOM     77  C27 non d ame      -4.415   4.947  66.611  0.00  0.00     0.085 C 
ATOM     78  H38 non d ame      -5.493   4.011  65.318  0.00  0.00     0.036 H 
ATOM     79  H39 non d ame      -5.269   5.878  65.156  0.00  0.00     0.036 H 
ATOM     80  N5  non d ame      -4.966   4.800  68.009  0.00  0.00    -0.049 N 
ATOM     81  H40 non d ame      -3.877   4.037  66.343  0.00  0.00     0.075 H 
ATOM     82  H41 non d ame      -3.924   5.916  66.523  0.00  0.00     0.075 H 
ATOM     83  C28 non d ame      -6.536   5.165  67.908  0.00  0.00     0.193 C 
ATOM     84  H42 non d ame      -4.878   3.824  68.250  0.00  0.00     0.280 HD
ATOM     85  H43 non d ame      -4.509   5.503  68.572  0.00  0.00     0.280 HD
ATOM     86  H44 non d ame      -6.904   6.128  68.261  0.00  0.00     0.129 H 
ATOM     87  H37 non d ame      -7.247   6.253  66.676  0.00  0.00     0.046 H 
BRANCH  83  88
ATOM     88  O6  non d ame      -7.315   4.183  68.593  0.00  0.00    -0.369 OA
ATOM     89  H45 non d ame      -8.110   4.592  68.941  0.00  0.00     0.212 HD
ENDBRANCH  83  88
ENDBRANCH  72  75
ENDBRANCH  47  72
ENDBRANCH  45  47
ENDBRANCH   1  43
BRANCH   1  90
ATOM     90  C16 non d ame      -6.557   8.454  63.986  0.00  0.00    -0.035 C 
ATOM     91  H21 non d ame      -6.136   7.508  64.325  0.00  0.00     0.037 H 
ATOM     92  H22 non d ame      -6.108   8.980  63.143  0.00  0.00     0.037 H 
BRANCH  90  93
ATOM     93  C17 non d ame      -6.484   9.430  65.203  0.00  0.00    -0.059 C 
ATOM     94  H23 non d ame      -7.471   9.876  65.329  0.00  0.00     0.038 H 
BRANCH  93  95
ATOM     95  C18 non d ame      -6.122   8.690  66.531  0.00  0.00    -0.073 C 
ATOM     96  H24 non d ame      -5.054   8.477  66.548  0.00  0.00     0.028 H 
ATOM     97  H25 non d ame      -6.380   9.323  67.381  0.00  0.00     0.028 H 
ATOM     98  H26 non d ame      -6.681   7.756  66.590  0.00  0.00     0.028 H 
ENDBRANCH  93  95
BRANCH  93  99
ATOM     99  C19 non d ame      -5.501  10.572  64.930  0.00  0.00    -0.073 C 
ATOM    100  H27 non d ame      -6.015  11.528  65.039  0.00  0.00     0.028 H 
ATOM    101  H28 non d ame      -4.677  10.519  65.643  0.00  0.00     0.028 H 
ATOM    102  H29 non d ame      -5.111  10.481  63.917  0.00  0.00     0.028 H 
ENDBRANCH  93  99
ENDBRANCH  90  93
ENDBRANCH   1  90
TORSDOF 26
ENDMDL
MODEL 3
REMARK VINA RESULT:      -7.4      3.067      8.410
REMARK  26 active torsions:
REMARK  status: ('A' for Active; 'I' for Inactive)
REMARK    1  A    between atoms: C2_2  and  C3_3 
REMARK    2  A    between atoms: C4_6  and  C5_7 
REMARK       I    between atoms: C5_7  and  N2_9 
REMARK    3  A    between atoms: N2_9  and  C6_10 
REMARK    4  A    between atoms: C6_10  and  C7_11 
REMARK    5  A    between atoms: C6_10  and  C8_13 
REMARK       I    between atoms: C7_11  and  N3_14 
REMARK    6  A    between atoms: N3_14  and  C9_15 
REMARK    7  A    between atoms: C9_15  and  C10_16 
REMARK    8  A    between atoms: C9_15  and  C11_18 
REMARK       I    between atoms: C10_16  and  N4_21 
REMARK    9  A    between atoms: C11_18  and  C12_19 
REMARK   10  A    between atoms: C11_18  and  C13_20 
REMARK   11  A    between atoms: N4_21  and  C14_22 
REMARK   12  A    between atoms: C14_22  and  C15_23 
REMARK   13  A    between atoms: C14_22  and  C16_25 
REMARK       I    between atoms: C15_23  and  N6_40 
REMARK   14  A    between atoms: C16_25  and  C17_26 
REMARK   15  A    between atoms: C17_26  and  C18_27 
REMARK   16  A    between atoms: C17_26  and  C19_28 
REMARK   17  A    between atoms: C20_29  and  C21_30 
REMARK   18  A    between atoms: C20_29  and  C24_33 
REMARK   19  A    between atoms: C20_29  and  N6_40 
REMARK   20  A    between atoms: C21_30  and  C22_31 
REMARK   21  A    between atoms: C22_31  and  C23_32 
REMARK   22  A    between atoms: C23_32  and  O8_43 
REMARK   23  A    between atoms: C24_33  and  C25_34 
REMARK   24  A    between atoms: C28_38  and  O6_39 
REMARK   25  A    between atoms: C29_42  and  O8_43 
REMARK   26  A    between atoms: C29_42  and  C35_49 
ROOT
ATOM      1  C14 non d ame      -6.141  15.713  67.776  0.00  0.00     0.089 C 
ATOM      2  H20 non d ame      -5.586  16.198  66.972  0.00  0.00     0.087 H 
ENDROOT
BRANCH   1   3
ATOM      3  N4  non d ame      -7.554  15.988  67.562  0.00  0.00    -0.346 N 
ATOM      4  C10 non d ame      -7.989  16.932  66.470  0.00  0.00     0.241 C 
ATOM      5  O4  non d ame      -7.183  17.461  65.777  0.00  0.00    -0.271 OA
ATOM      6  H19 non d ame      -8.224  15.530  68.164  0.00  0.00     0.163 HD
BRANCH   4   7
ATOM      7  C9  non d ame      -9.456  17.202  66.258  0.00  0.00     0.092 C 
ATOM      8  H11 non d ame      -9.581  17.841  65.384  0.00  0.00     0.088 H 
BRANCH   7   9
ATOM      9  N3  non d ame     -10.148  15.941  65.976  0.00  0.00    -0.346 N 
ATOM     10  C7  non d ame     -11.068  15.857  64.868  0.00  0.00     0.240 C 
ATOM     11  O3  non d ame     -11.263  16.794  64.194  0.00  0.00    -0.271 OA
ATOM     12  H10 non d ame      -9.992  15.124  66.550  0.00  0.00     0.163 HD
BRANCH  10  13
ATOM     13  C6  non d ame     -11.804  14.513  64.574  0.00  0.00     0.086 C 
ATOM     14  H6  non d ame     -12.405  14.551  63.666  0.00  0.00     0.086 H 
BRANCH  13  15
ATOM     15  N2  non d ame     -10.815  13.467  64.375  0.00  0.00    -0.343 N 
ATOM     16  C5  non d ame     -11.166  12.283  63.587  0.00  0.00     0.273 C 
ATOM     17  O2  non d ame     -12.248  12.180  63.121  0.00  0.00    -0.266 OA
ATOM     18  H5  non d ame      -9.894  13.561  64.779  0.00  0.00     0.163 HD
BRANCH  16  19
ATOM     19  C4  non d ame     -10.130  11.170  63.367  0.00  0.00     0.154 A 
ATOM     20  C1  non d ame      -9.799  10.107  64.265  0.00  0.00    -0.017 A 
ATOM     21  C2  non d ame      -8.799   9.364  63.598  0.00  0.00     0.077 A 
ATOM     22  H1  non d ame     -10.219   9.905  65.251  0.00  0.00     0.091 H 
ATOM     23  O1  non d ame      -8.590   9.941  62.450  0.00  0.00    -0.218 OA
ATOM     24  N1  non d ame      -9.354  10.997  62.293  0.00  0.00    -0.123 NA
BRANCH  21  25
ATOM     25  C3  non d ame      -8.098   8.119  64.124  0.00  0.00    -0.029 C 
ATOM     26  H2  non d ame      -7.112   8.389  64.501  0.00  0.00     0.036 H 
ATOM     27  H3  non d ame      -8.689   7.683  64.929  0.00  0.00     0.036 H 
ATOM     28  H4  non d ame      -7.992   7.393  63.317  0.00  0.00     0.036 H 
ENDBRANCH  21  25
ENDBRANCH  16  19
ENDBRANCH  13  15
BRANCH  13  29
ATOM     29  C8  non d ame     -12.699  14.163  65.736  0.00  0.00    -0.049 C 
ATOM     30  H7  non d ame     -13.741  14.310  65.450  0.00  0.00     0.030 H 
ATOM     31  H8  non d ame     -12.543  13.121  66.014  0.00  0.00     0.030 H 
ATOM     32  H9  non d ame     -12.462  14.805  66.583  0.00  0.00     0.030 H 
ENDBRANCH  13  29
ENDBRANCH  10  13
ENDBRANCH   7   9
BRANCH   7  33
ATOM     33  C11 non d ame     -10.055  17.843  67.544  0.00  0.00    -0.033 C 
ATOM     34  H12 non d ame      -9.226  18.080  68.211  0.00  0.00     0.042 H 
BRANCH  33  35
ATOM     35  C12 non d ame     -10.793  19.180  67.221  0.00  0.00    -0.071 C 
ATOM     36  H13 non d ame     -11.605  18.986  66.519  0.00  0.00     0.028 H 
ATOM     37  H14 non d ame     -11.200  19.601  68.140  0.00  0.00     0.028 H 
ATOM     38  H15 non d ame     -10.090  19.885  66.778  0.00  0.00     0.028 H 
ENDBRANCH  33  35
BRANCH  33  39
ATOM     39  C13 non d ame     -10.999  16.840  68.282  0.00  0.00    -0.071 C 
ATOM     40  H16 non d ame     -11.690  16.396  67.566  0.00  0.00     0.028 H 
ATOM     41  H17 non d ame     -10.402  16.054  68.746  0.00  0.00     0.028 H 
ATOM     42  H18 non d ame     -11.562  17.369  69.050  0.00  0.00     0.028 H 
ENDBRANCH  33  39
ENDBRANCH   7  33
ENDBRANCH   4   7
ENDBRANCH   1   3
BRANCH   1  43
ATOM     43  C15 non d ame      -5.933  14.171  67.787  0.00  0.00     0.240 C 
ATOM     44  O5  non d ame      -4.872  13.716  67.504  0.00  0.00    -0.271 OA
ATOM     45  N6  non d ame      -7.054  13.262  68.158  0.00  0.00    -0.355 N 
ATOM     46  H46 non d ame      -7.958  13.637  68.405  0.00  0.00     0.162 HD
BRANCH  45  47
ATOM     47  C20 non d ame      -6.840  11.799  68.165  0.00  0.00     0.013 C 
ATOM     48  H30 non d ame      -5.942  11.589  67.583  0.00  0.00     0.072 H 
BRANCH  47  49
ATOM     49  C21 non d ame      -8.034  11.116  67.536  0.00  0.00    -0.038 C 
ATOM     50  H31 non d ame      -8.506  11.870  66.906  0.00  0.00     0.036 H 
ATOM     51  H32 non d ame      -7.648  10.198  67.093  0.00  0.00     0.036 H 
BRANCH  49  52
ATOM     52  C22 non d ame      -9.094  10.688  68.574  0.00  0.00     0.018 C 
ATOM     53  H33 non d ame      -8.761   9.722  68.954  0.00  0.00     0.048 H 
ATOM     54  H34 non d ame      -9.201  11.533  69.254  0.00  0.00     0.048 H 
BRANCH  52  55
ATOM     55  C23 non d ame     -10.503  10.446  67.966  0.00  0.00     0.259 C 
ATOM     56  O7  non d ame     -10.768   9.409  67.450  0.00  0.00    -0.265 OA
BRANCH  55  57
ATOM     57  O8  non d ame     -11.473  11.486  68.021  0.00  0.00    -0.317 OA
BRANCH  57  58
ATOM     58  C29 non d ame     -11.037  12.652  68.725  0.00  0.00     0.052 C 
ATOM     59  H47 non d ame     -10.025  12.431  69.064  0.00  0.00     0.082 H 
ATOM     60  H48 non d ame     -11.216  13.488  68.050  0.00  0.00     0.082 H 
BRANCH  58  61
ATOM     61  C35 non d ame     -11.946  12.825  69.972  0.00  0.00    -0.034 A 
ATOM     62  C30 non d ame     -12.341  11.712  70.706  0.00  0.00    -0.075 A 
ATOM     63  C31 non d ame     -13.157  11.868  71.826  0.00  0.00    -0.082 A 
ATOM     64  H49 non d ame     -12.011  10.718  70.405  0.00  0.00     0.084 H 
ATOM     65  C32 non d ame     -13.580  13.143  72.209  0.00  0.00    -0.083 A 
ATOM     66  H50 non d ame     -13.463  10.993  72.400  0.00  0.00     0.083 H 
ATOM     67  C33 non d ame     -13.186  14.251  71.471  0.00  0.00    -0.082 A 
ATOM     68  H51 non d ame     -14.218  13.274  73.083  0.00  0.00     0.083 H 
ATOM     69  C34 non d ame     -12.369  14.100  70.353  0.00  0.00    -0.075 A 
ATOM     70  H52 non d ame     -13.519  15.245  71.771  0.00  0.00     0.083 H 
ATOM     71  H53 non d ame     -12.062  14.975  69.779  0.00  0.00     0.084 H 
ENDBRANCH  58  61
ENDBRANCH  57  58
ENDBRANCH  55  57
ENDBRANCH  52  55
ENDBRANCH  49  52
ENDBRANCH  47  49
BRANCH  47  72
ATOM     72  C24 non d ame      -6.669  11.308  69.601  0.00  0.00    -0.039 C 
ATOM     73  H35 non d ame      -7.184  12.043  70.221  0.00  0.00     0.036 H 
ATOM     74  H36 non d ame      -7.003  10.271  69.595  0.00  0.00     0.036 H 
BRANCH  72  75
ATOM     75  C25 non d ame      -5.131  11.307  70.048  0.00  0.00    -0.001 C 
ATOM     76  C26 non d ame      -4.741   9.852  70.708  0.00  0.00    -0.035 C 
ATOM     77  C27 non d ame      -4.150  10.062  71.909  0.00  0.00     0.085 C 
ATOM     78  H38 non d ame      -5.647   9.302  70.962  0.00  0.00     0.036 H 
ATOM     79  H39 non d ame      -3.959   9.372  70.120  0.00  0.00     0.036 H 
ATOM     80  N5  non d ame      -4.396  11.506  72.275  0.00  0.00    -0.049 N 
ATOM     81  H40 non d ame      -4.683   9.421  72.612  0.00  0.00     0.075 H 
ATOM     82  H41 non d ame      -3.084   9.916  71.738  0.00  0.00     0.075 H 
ATOM     83  C28 non d ame      -4.897  12.229  70.921  0.00  0.00     0.193 C 
ATOM     84  H42 non d ame      -5.156  11.507  72.941  0.00  0.00     0.280 HD
ATOM     85  H43 non d ame      -3.499  11.893  72.533  0.00  0.00     0.280 HD
ATOM     86  H44 non d ame      -4.223  12.872  70.355  0.00  0.00     0.129 H 
ATOM     87  H37 non d ame      -4.474  11.689  69.267  0.00  0.00     0.046 H 
BRANCH  83  88
ATOM     88  O6  non d ame      -6.053  13.025  71.187  0.00  0.00    -0.369 OA
ATOM     89  H45 non d ame      -5.781  13.918  71.412  0.00  0.00     0.212 HD
ENDBRANCH  83  88
ENDBRANCH  72  75
ENDBRANCH  47  72
ENDBRANCH  45  47
ENDBRANCH   1  43
BRANCH   1  90
ATOM     90  C16 non d ame      -5.720  16.295  69.116  0.00  0.00    -0.035 C 
ATOM     91  H21 non d ame      -6.644  16.417  69.681  0.00  0.00     0.037 H 
ATOM     92  H22 non d ame      -4.938  15.631  69.486  0.00  0.00     0.037 H 
BRANCH  90  93
ATOM     93  C17 non d ame      -5.078  17.715  69.009  0.00  0.00    -0.059 C 
ATOM     94  H23 non d ame      -4.378  17.825  69.837  0.00  0.00     0.038 H 
BRANCH  93  95
ATOM     95  C18 non d ame      -4.276  17.900  67.680  0.00  0.00    -0.073 C 
ATOM     96  H24 non d ame      -4.322  16.980  67.097  0.00  0.00     0.028 H 
ATOM     97  H25 non d ame      -4.710  18.718  67.105  0.00  0.00     0.028 H 
ATOM     98  H26 non d ame      -3.236  18.131  67.913  0.00  0.00     0.028 H 
ENDBRANCH  93  95
BRANCH  93  99
ATOM     99  C19 non d ame      -6.139  18.807  69.161  0.00  0.00    -0.073 C 
ATOM    100  H27 non d ame      -7.079  18.359  69.483  0.00  0.00     0.028 H 
ATOM    101  H28 non d ame      -5.808  19.533  69.905  0.00  0.00     0.028 H 
ATOM    102  H29 non d ame      -6.284  19.309  68.205  0.00  0.00     0.028 H 
ENDBRANCH  93  99
ENDBRANCH  90  93
ENDBRANCH   1  90
TORSDOF 26
ENDMDL
MODEL 4
REMARK VINA RESULT:      -7.3      3.812     10.912
REMARK  26 active torsions:
REMARK  status: ('A' for Active; 'I' for Inactive)
REMARK    1  A    between atoms: C2_2  and  C3_3 
REMARK    2  A    between atoms: C4_6  and  C5_7 
REMARK       I    between atoms: C5_7  and  N2_9 
REMARK    3  A    between atoms: N2_9  and  C6_10 
REMARK    4  A    between atoms: C6_10  and  C7_11 
REMARK    5  A    between atoms: C6_10  and  C8_13 
REMARK       I    between atoms: C7_11  and  N3_14 
REMARK    6  A    between atoms: N3_14  and  C9_15 
REMARK    7  A    between atoms: C9_15  and  C10_16 
REMARK    8  A    between atoms: C9_15  and  C11_18 
REMARK       I    between atoms: C10_16  and  N4_21 
REMARK    9  A    between atoms: C11_18  and  C12_19 
REMARK   10  A    between atoms: C11_18  and  C13_20 
REMARK   11  A    between atoms: N4_21  and  C14_22 
REMARK   12  A    between atoms: C14_22  and  C15_23 
REMARK   13  A    between atoms: C14_22  and  C16_25 
REMARK       I    between atoms: C15_23  and  N6_40 
REMARK   14  A    between atoms: C16_25  and  C17_26 
REMARK   15  A    between atoms: C17_26  and  C18_27 
REMARK   16  A    between atoms: C17_26  and  C19_28 
REMARK   17  A    between atoms: C20_29  and  C21_30 
REMARK   18  A    between atoms: C20_29  and  C24_33 
REMARK   19  A    between atoms: C20_29  and  N6_40 
REMARK   20  A    between atoms: C21_30  and  C22_31 
REMARK   21  A    between atoms: C22_31  and  C23_32 
REMARK   22  A    between atoms: C23_32  and  O8_43 
REMARK   23  A    between atoms: C24_33  and  C25_34 
REMARK   24  A    between atoms: C28_38  and  O6_39 
REMARK   25  A    between atoms: C29_42  and  O8_43 
REMARK   26  A    between atoms: C29_42  and  C35_49 
ROOT
ATOM      1  C14 non d ame      -7.537   9.067  67.022  0.00  0.00     0.089 C 
ATOM      2  H20 non d ame      -7.581   8.259  66.291  0.00  0.00     0.087 H 
ENDROOT
BRANCH   1   3
ATOM      3  N4  non d ame      -8.457  10.105  66.584  0.00  0.00    -0.346 N 
ATOM      4  C10 non d ame      -9.760   9.738  65.918  0.00  0.00     0.241 C 
ATOM      5  O4  non d ame     -10.044   8.599  65.743  0.00  0.00    -0.271 OA
ATOM      6  H19 non d ame      -8.196  11.069  66.739  0.00  0.00     0.163 HD
BRANCH   4   7
ATOM      7  C9  non d ame     -10.703  10.826  65.475  0.00  0.00     0.092 C 
ATOM      8  H11 non d ame     -11.705  10.602  65.841  0.00  0.00     0.088 H 
BRANCH   7   9
ATOM      9  N3  non d ame     -10.296  12.100  66.076  0.00  0.00    -0.346 N 
ATOM     10  C7  non d ame     -11.056  12.656  67.169  0.00  0.00     0.240 C 
ATOM     11  O3  non d ame     -11.998  12.092  67.576  0.00  0.00    -0.271 OA
ATOM     12  H10 non d ame      -9.487  12.598  65.735  0.00  0.00     0.163 HD
BRANCH  10  13
ATOM     13  C6  non d ame     -10.620  14.014  67.802  0.00  0.00     0.086 C 
ATOM     14  H6  non d ame     -10.998  14.876  67.253  0.00  0.00     0.086 H 
BRANCH  13  15
ATOM     15  N2  non d ame     -11.167  14.104  69.146  0.00  0.00    -0.343 N 
ATOM     16  C5  non d ame     -11.879  15.317  69.555  0.00  0.00     0.273 C 
ATOM     17  O2  non d ame     -12.003  16.215  68.797  0.00  0.00    -0.266 OA
ATOM     18  H5  non d ame     -11.054  13.333  69.788  0.00  0.00     0.163 HD
BRANCH  16  19
ATOM     19  C4  non d ame     -12.463  15.426  70.972  0.00  0.00     0.154 A 
ATOM     20  C1  non d ame     -11.739  15.571  72.197  0.00  0.00    -0.017 A 
ATOM     21  C2  non d ame     -12.731  15.625  73.202  0.00  0.00     0.077 A 
ATOM     22  H1  non d ame     -10.659  15.630  72.336  0.00  0.00     0.091 H 
ATOM     23  O1  non d ame     -13.886  15.523  72.611  0.00  0.00    -0.218 OA
ATOM     24  N1  non d ame     -13.755  15.405  71.310  0.00  0.00    -0.123 NA
BRANCH  21  25
ATOM     25  C3  non d ame     -12.492  15.776  74.698  0.00  0.00    -0.029 C 
ATOM     26  H2  non d ame     -11.892  14.938  75.057  0.00  0.00     0.036 H 
ATOM     27  H3  non d ame     -11.963  16.709  74.889  0.00  0.00     0.036 H 
ATOM     28  H4  non d ame     -13.449  15.787  75.220  0.00  0.00     0.036 H 
ENDBRANCH  21  25
ENDBRANCH  16  19
ENDBRANCH  13  15
BRANCH  13  29
ATOM     29  C8  non d ame      -9.115  14.088  67.851  0.00  0.00    -0.049 C 
ATOM     30  H7  non d ame      -8.708  13.098  68.054  0.00  0.00     0.030 H 
ATOM     31  H8  non d ame      -8.738  14.447  66.893  0.00  0.00     0.030 H 
ATOM     32  H9  non d ame      -8.811  14.774  68.642  0.00  0.00     0.030 H 
ENDBRANCH  13  29
ENDBRANCH  10  13
ENDBRANCH   7   9
BRANCH   7  33
ATOM     33  C11 non d ame     -10.660  10.950  63.924  0.00  0.00    -0.033 C 
ATOM     34  H12 non d ame     -11.088  10.037  63.509  0.00  0.00     0.042 H 
BRANCH  33  35
ATOM     35  C12 non d ame     -11.530  12.145  63.426  0.00  0.00    -0.071 C 
ATOM     36  H13 non d ame     -11.299  12.352  62.380  0.00  0.00     0.028 H 
ATOM     37  H14 non d ame     -12.585  11.890  63.520  0.00  0.00     0.028 H 
ATOM     38  H15 non d ame     -11.314  13.028  64.027  0.00  0.00     0.028 H 
ENDBRANCH  33  35
BRANCH  33  39
ATOM     39  C13 non d ame      -9.188  11.069  63.413  0.00  0.00    -0.071 C 
ATOM     40  H16 non d ame      -9.060  12.017  62.892  0.00  0.00     0.028 H 
ATOM     41  H17 non d ame      -8.504  11.025  64.261  0.00  0.00     0.028 H 
ATOM     42  H18 non d ame      -8.973  10.246  62.731  0.00  0.00     0.028 H 
ENDBRANCH  33  39
ENDBRANCH   7  33
ENDBRANCH   4   7
ENDBRANCH   1   3
BRANCH   1  43
ATOM     43  C15 non d ame      -7.962   8.596  68.443  0.00  0.00     0.240 C 
ATOM     44  O5  non d ame      -7.396   9.019  69.399  0.00  0.00    -0.271 OA
ATOM     45  N6  non d ame      -9.080   7.625  68.612  0.00  0.00    -0.355 N 
ATOM     46  H46 non d ame      -9.571   7.262  67.808  0.00  0.00     0.162 HD
BRANCH  45  47
ATOM     47  C20 non d ame      -9.472   7.189  69.970  0.00  0.00     0.013 C 
ATOM     48  H30 non d ame      -8.882   7.757  70.689  0.00  0.00     0.072 H 
BRANCH  47  49
ATOM     49  C21 non d ame      -9.188   5.712  70.122  0.00  0.00    -0.038 C 
ATOM     50  H31 non d ame      -8.182   5.563  69.729  0.00  0.00     0.036 H 
ATOM     51  H32 non d ame      -9.407   5.476  71.163  0.00  0.00     0.036 H 
BRANCH  49  52
ATOM     52  C22 non d ame     -10.125   4.830  69.268  0.00  0.00     0.018 C 
ATOM     53  H33 non d ame     -10.699   4.235  69.978  0.00  0.00     0.048 H 
ATOM     54  H34 non d ame     -10.638   5.514  68.591  0.00  0.00     0.048 H 
BRANCH  52  55
ATOM     55  C23 non d ame      -9.376   3.813  68.363  0.00  0.00     0.259 C 
ATOM     56  O7  non d ame      -9.533   2.645  68.511  0.00  0.00    -0.265 OA
BRANCH  55  57
ATOM     57  O8  non d ame      -8.489   4.294  67.360  0.00  0.00    -0.317 OA
BRANCH  57  58
ATOM     58  C29 non d ame      -9.146   4.885  66.235  0.00  0.00     0.052 C 
ATOM     59  H47 non d ame      -9.754   4.092  65.800  0.00  0.00     0.082 H 
ATOM     60  H48 non d ame      -9.621   5.790  66.613  0.00  0.00     0.082 H 
BRANCH  58  61
ATOM     61  C35 non d ame      -8.060   5.293  65.206  0.00  0.00    -0.034 A 
ATOM     62  C30 non d ame      -6.760   5.552  65.630  0.00  0.00    -0.075 A 
ATOM     63  C31 non d ame      -5.784   5.919  64.705  0.00  0.00    -0.082 A 
ATOM     64  H49 non d ame      -6.507   5.468  66.687  0.00  0.00     0.084 H 
ATOM     65  C32 non d ame      -6.112   6.029  63.351  0.00  0.00    -0.083 A 
ATOM     66  H50 non d ame      -4.766   6.120  65.040  0.00  0.00     0.083 H 
ATOM     67  C33 non d ame      -7.410   5.772  62.933  0.00  0.00    -0.082 A 
ATOM     68  H51 non d ame      -5.354   6.315  62.621  0.00  0.00     0.083 H 
ATOM     69  C34 non d ame      -8.389   5.403  63.853  0.00  0.00    -0.075 A 
ATOM     70  H52 non d ame      -7.663   5.861  61.876  0.00  0.00     0.083 H 
ATOM     71  H53 non d ame      -9.406   5.202  63.517  0.00  0.00     0.084 H 
ENDBRANCH  58  61
ENDBRANCH  57  58
ENDBRANCH  55  57
ENDBRANCH  52  55
ENDBRANCH  49  52
ENDBRANCH  47  49
BRANCH  47  72
ATOM     72  C24 non d ame     -10.962   7.447  70.185  0.00  0.00    -0.039 C 
ATOM     73  H35 non d ame     -11.373   7.618  69.190  0.00  0.00     0.036 H 
ATOM     74  H36 non d ame     -11.318   6.609  70.784  0.00  0.00     0.036 H 
BRANCH  72  75
ATOM     75  C25 non d ame     -11.216   8.779  71.037  0.00  0.00    -0.001 C 
ATOM     76  C26 non d ame     -12.436   8.532  72.112  0.00  0.00    -0.035 C 
ATOM     77  C27 non d ame     -13.343   9.529  71.979  0.00  0.00     0.085 C 
ATOM     78  H38 non d ame     -12.997   7.638  71.841  0.00  0.00     0.036 H 
ATOM     79  H39 non d ame     -12.067   8.657  73.131  0.00  0.00     0.036 H 
ATOM     80  N5  non d ame     -13.021  10.251  70.693  0.00  0.00    -0.049 N 
ATOM     81  H40 non d ame     -14.309   9.032  71.876  0.00  0.00     0.075 H 
ATOM     82  H41 non d ame     -13.163  10.200  72.818  0.00  0.00     0.075 H 
ATOM     83  C28 non d ame     -11.538   9.769  70.273  0.00  0.00     0.193 C 
ATOM     84  H42 non d ame     -13.676   9.913  70.004  0.00  0.00     0.280 HD
ATOM     85  H43 non d ame     -12.987  11.235  70.918  0.00  0.00     0.280 HD
ATOM     86  H44 non d ame     -10.680  10.423  70.424  0.00  0.00     0.129 H 
ATOM     87  H37 non d ame     -10.290   9.203  71.427  0.00  0.00     0.046 H 
BRANCH  83  88
ATOM     88  O6  non d ame     -11.509   9.413  68.890  0.00  0.00    -0.369 OA
ATOM     89  H45 non d ame     -11.259  10.179  68.368  0.00  0.00     0.212 HD
ENDBRANCH  83  88
ENDBRANCH  72  75
ENDBRANCH  47  72
ENDBRANCH  45  47
ENDBRANCH   1  43
BRANCH   1  90
ATOM     90  C16 non d ame      -6.130   9.639  67.072  0.00  0.00    -0.035 C 
ATOM     91  H21 non d ame      -5.957   9.889  68.120  0.00  0.00     0.037 H 
ATOM     92  H22 non d ame      -5.500   8.901  66.577  0.00  0.00     0.037 H 
BRANCH  90  93
ATOM     93  C17 non d ame      -5.966  10.969  66.270  0.00  0.00    -0.059 C 
ATOM     94  H23 non d ame      -6.958  11.290  65.954  0.00  0.00     0.038 H 
BRANCH  93  95
ATOM     95  C18 non d ame      -5.351  12.111  67.141  0.00  0.00    -0.073 C 
ATOM     96  H24 non d ame      -4.503  12.552  66.616  0.00  0.00     0.028 H 
ATOM     97  H25 non d ame      -6.106  12.878  67.320  0.00  0.00     0.028 H 
ATOM     98  H26 non d ame      -5.017  11.701  68.094  0.00  0.00     0.028 H 
ENDBRANCH  93  95
BRANCH  93  99
ATOM     99  C19 non d ame      -5.136  10.744  65.003  0.00  0.00    -0.073 C 
ATOM    100  H27 non d ame      -4.117  11.094  65.169  0.00  0.00     0.028 H 
ATOM    101  H28 non d ame      -5.121   9.681  64.763  0.00  0.00     0.028 H 
ATOM    102  H29 non d ame      -5.580  11.297  64.175  0.00  0.00     0.028 H 
ENDBRANCH  93  99
ENDBRANCH  90  93
ENDBRANCH   1  90
TORSDOF 26
ENDMDL
MODEL 5
REMARK VINA RESULT:      -7.3      2.750      4.256
REMARK  26 active torsions:
REMARK  status: ('A' for Active; 'I' for Inactive)
REMARK    1  A    between atoms: C2_2  and  C3_3 
REMARK    2  A    between atoms: C4_6  and  C5_7 
REMARK       I    between atoms: C5_7  and  N2_9 
REMARK    3  A    between atoms: N2_9  and  C6_10 
REMARK    4  A    between atoms: C6_10  and  C7_11 
REMARK    5  A    between atoms: C6_10  and  C8_13 
REMARK       I    between atoms: C7_11  and  N3_14 
REMARK    6  A    between atoms: N3_14  and  C9_15 
REMARK    7  A    between atoms: C9_15  and  C10_16 
REMARK    8  A    between atoms: C9_15  and  C11_18 
REMARK       I    between atoms: C10_16  and  N4_21 
REMARK    9  A    between atoms: C11_18  and  C12_19 
REMARK   10  A    between atoms: C11_18  and  C13_20 
REMARK   11  A    between atoms: N4_21  and  C14_22 
REMARK   12  A    between atoms: C14_22  and  C15_23 
REMARK   13  A    between atoms: C14_22  and  C16_25 
REMARK       I    between atoms: C15_23  and  N6_40 
REMARK   14  A    between atoms: C16_25  and  C17_26 
REMARK   15  A    between atoms: C17_26  and  C18_27 
REMARK   16  A    between atoms: C17_26  and  C19_28 
REMARK   17  A    between atoms: C20_29  and  C21_30 
REMARK   18  A    between atoms: C20_29  and  C24_33 
REMARK   19  A    between atoms: C20_29  and  N6_40 
REMARK   20  A    between atoms: C21_30  and  C22_31 
REMARK   21  A    between atoms: C22_31  and  C23_32 
REMARK   22  A    between atoms: C23_32  and  O8_43 
REMARK   23  A    between atoms: C24_33  and  C25_34 
REMARK   24  A    between atoms: C28_38  and  O6_39 
REMARK   25  A    between atoms: C29_42  and  O8_43 
REMARK   26  A    between atoms: C29_42  and  C35_49 
ROOT
ATOM      1  C14 non d ame     -11.744  14.451  70.075  0.00  0.00     0.089 C 
ATOM      2  H20 non d ame     -12.750  14.529  69.662  0.00  0.00     0.087 H 
ENDROOT
BRANCH   1   3
ATOM      3  N4  non d ame     -11.443  13.035  70.231  0.00  0.00    -0.346 N 
ATOM      4  C10 non d ame     -11.724  12.069  69.108  0.00  0.00     0.241 C 
ATOM      5  O4  non d ame     -12.194  12.454  68.088  0.00  0.00    -0.271 OA
ATOM      6  H19 non d ame     -11.045  12.728  71.107  0.00  0.00     0.163 HD
BRANCH   4   7
ATOM      7  C9  non d ame     -11.401  10.608  69.284  0.00  0.00     0.092 C 
ATOM      8  H11 non d ame     -12.083  10.015  68.676  0.00  0.00     0.088 H 
BRANCH   7   9
ATOM      9  N3  non d ame     -10.044  10.345  68.797  0.00  0.00    -0.346 N 
ATOM     10  C7  non d ame      -9.834   9.398  67.728  0.00  0.00     0.240 C 
ATOM     11  O3  non d ame     -10.745   8.839  67.251  0.00  0.00    -0.271 OA
ATOM     12  H10 non d ame      -9.248  10.818  69.199  0.00  0.00     0.163 HD
BRANCH  10  13
ATOM     13  C6  non d ame      -8.387   9.120  67.216  0.00  0.00     0.086 C 
ATOM     14  H6  non d ame      -8.327   9.068  66.129  0.00  0.00     0.086 H 
BRANCH  13  15
ATOM     15  N2  non d ame      -7.522  10.213  67.628  0.00  0.00    -0.343 N 
ATOM     16  C5  non d ame      -6.701  10.899  66.628  0.00  0.00     0.273 C 
ATOM     17  O2  non d ame      -6.741  10.562  65.496  0.00  0.00    -0.266 OA
ATOM     18  H5  non d ame      -7.491  10.492  68.598  0.00  0.00     0.163 HD
BRANCH  16  19
ATOM     19  C4  non d ame      -5.783  12.057  67.049  0.00  0.00     0.154 A 
ATOM     20  C1  non d ame      -6.089  13.115  67.963  0.00  0.00    -0.017 A 
ATOM     21  C2  non d ame      -4.922  13.909  68.004  0.00  0.00     0.077 A 
ATOM     22  H1  non d ame      -7.016  13.281  68.512  0.00  0.00     0.091 H 
ATOM     23  O1  non d ame      -4.053  13.362  67.206  0.00  0.00    -0.218 OA
ATOM     24  N1  non d ame      -4.532  12.281  66.637  0.00  0.00    -0.123 NA
BRANCH  21  25
ATOM     25  C3  non d ame      -4.719  15.172  68.832  0.00  0.00    -0.029 C 
ATOM     26  H2  non d ame      -5.679  15.667  68.982  0.00  0.00     0.036 H 
ATOM     27  H3  non d ame      -4.291  14.907  69.799  0.00  0.00     0.036 H 
ATOM     28  H4  non d ame      -4.041  15.846  68.307  0.00  0.00     0.036 H 
ENDBRANCH  21  25
ENDBRANCH  16  19
ENDBRANCH  13  15
BRANCH  13  29
ATOM     29  C8  non d ame      -7.887   7.820  67.793  0.00  0.00    -0.049 C 
ATOM     30  H7  non d ame      -7.639   7.134  66.984  0.00  0.00     0.030 H 
ATOM     31  H8  non d ame      -6.999   8.007  68.396  0.00  0.00     0.030 H 
ATOM     32  H9  non d ame      -8.664   7.378  68.417  0.00  0.00     0.030 H 
ENDBRANCH  13  29
ENDBRANCH  10  13
ENDBRANCH   7   9
BRANCH   7  33
ATOM     33  C11 non d ame     -11.488  10.237  70.794  0.00  0.00    -0.033 C 
ATOM     34  H12 non d ame     -11.252  11.133  71.367  0.00  0.00     0.042 H 
BRANCH  33  35
ATOM     35  C12 non d ame     -12.932   9.795  71.188  0.00  0.00    -0.071 C 
ATOM     36  H13 non d ame     -13.658  10.374  70.617  0.00  0.00     0.028 H 
ATOM     37  H14 non d ame     -13.060   8.735  70.969  0.00  0.00     0.028 H 
ATOM     38  H15 non d ame     -13.086   9.968  72.253  0.00  0.00     0.028 H 
ENDBRANCH  33  35
BRANCH  33  39
ATOM     39  C13 non d ame     -10.439   9.138  71.161  0.00  0.00    -0.071 C 
ATOM     40  H16 non d ame     -10.928   8.343  71.723  0.00  0.00     0.028 H 
ATOM     41  H17 non d ame     -10.010   8.726  70.247  0.00  0.00     0.028 H 
ATOM     42  H18 non d ame      -9.648   9.580  71.767  0.00  0.00     0.028 H 
ENDBRANCH  33  39
ENDBRANCH   7  33
ENDBRANCH   4   7
ENDBRANCH   1   3
BRANCH   1  43
ATOM     43  C15 non d ame     -10.674  15.084  69.141  0.00  0.00     0.240 C 
ATOM     44  O5  non d ame      -9.561  15.232  69.531  0.00  0.00    -0.271 OA
ATOM     45  N6  non d ame     -11.034  15.500  67.755  0.00  0.00    -0.355 N 
ATOM     46  H46 non d ame     -11.975  15.375  67.411  0.00  0.00     0.162 HD
BRANCH  45  47
ATOM     47  C20 non d ame     -10.005  16.099  66.878  0.00  0.00     0.013 C 
ATOM     48  H30 non d ame      -9.033  15.943  67.346  0.00  0.00     0.072 H 
BRANCH  47  49
ATOM     49  C21 non d ame     -10.275  17.580  66.731  0.00  0.00    -0.038 C 
ATOM     50  H31 non d ame      -9.662  17.909  65.892  0.00  0.00     0.036 H 
ATOM     51  H32 non d ame     -11.360  17.678  66.685  0.00  0.00     0.036 H 
BRANCH  49  52
ATOM     52  C22 non d ame      -9.814  18.398  67.956  0.00  0.00     0.018 C 
ATOM     53  H33 non d ame     -10.716  18.597  68.535  0.00  0.00     0.048 H 
ATOM     54  H34 non d ame      -8.996  17.829  68.400  0.00  0.00     0.048 H 
BRANCH  52  55
ATOM     55  C23 non d ame      -9.222  19.788  67.594  0.00  0.00     0.259 C 
ATOM     56  O7  non d ame      -9.899  20.615  67.075  0.00  0.00    -0.265 OA
BRANCH  55  57
ATOM     57  O8  non d ame      -7.855  20.059  67.879  0.00  0.00    -0.317 OA
BRANCH  57  58
ATOM     58  C29 non d ame      -7.221  19.065  68.690  0.00  0.00     0.052 C 
ATOM     59  H47 non d ame      -7.813  19.009  69.603  0.00  0.00     0.082 H 
ATOM     60  H48 non d ame      -7.117  18.187  68.053  0.00  0.00     0.082 H 
BRANCH  58  61
ATOM     61  C35 non d ame      -5.802  19.578  69.054  0.00  0.00    -0.034 A 
ATOM     62  C30 non d ame      -4.683  19.031  68.434  0.00  0.00    -0.075 A 
ATOM     63  C31 non d ame      -3.409  19.491  68.762  0.00  0.00    -0.082 A 
ATOM     64  H49 non d ame      -4.805  18.242  67.692  0.00  0.00     0.084 H 
ATOM     65  C32 non d ame      -3.255  20.501  69.715  0.00  0.00    -0.083 A 
ATOM     66  H50 non d ame      -2.534  19.062  68.272  0.00  0.00     0.083 H 
ATOM     67  C33 non d ame      -4.374  21.041  70.333  0.00  0.00    -0.082 A 
ATOM     68  H51 non d ame      -2.262  20.867  69.976  0.00  0.00     0.083 H 
ATOM     69  C34 non d ame      -5.650  20.586  70.008  0.00  0.00    -0.075 A 
ATOM     70  H52 non d ame      -4.251  21.828  71.079  0.00  0.00     0.083 H 
ATOM     71  H53 non d ame      -6.524  21.016  70.497  0.00  0.00     0.084 H 
ENDBRANCH  58  61
ENDBRANCH  57  58
ENDBRANCH  55  57
ENDBRANCH  52  55
ENDBRANCH  49  52
ENDBRANCH  47  49
BRANCH  47  72
ATOM     72  C24 non d ame     -10.046  15.434  65.504  0.00  0.00    -0.039 C 
ATOM     73  H35 non d ame     -10.130  16.252  64.788  0.00  0.00     0.036 H 
ATOM     74  H36 non d ame      -9.180  14.773  65.476  0.00  0.00     0.036 H 
BRANCH  72  75
ATOM     75  C25 non d ame     -11.347  14.516  65.329  0.00  0.00    -0.001 C 
ATOM     76  C26 non d ame     -10.902  12.983  64.935  0.00  0.00    -0.035 C 
ATOM     77  C27 non d ame     -11.592  12.597  63.835  0.00  0.00     0.085 C 
ATOM     78  H38 non d ame      -9.864  12.968  64.604  0.00  0.00     0.036 H 
ATOM     79  H39 non d ame     -11.238  12.287  65.704  0.00  0.00     0.036 H 
ATOM     80  N5  non d ame     -12.222  13.838  63.251  0.00  0.00    -0.049 N 
ATOM     81  H40 non d ame     -10.843  12.217  63.140  0.00  0.00     0.075 H 
ATOM     82  H41 non d ame     -12.379  11.938  64.202  0.00  0.00     0.075 H 
ATOM     83  C28 non d ame     -12.117  14.970  64.397  0.00  0.00     0.193 C 
ATOM     84  H42 non d ame     -11.641  14.114  62.472  0.00  0.00     0.280 HD
ATOM     85  H43 non d ame     -13.197  13.621  63.102  0.00  0.00     0.280 HD
ATOM     86  H44 non d ame     -12.994  15.249  64.982  0.00  0.00     0.129 H 
ATOM     87  H37 non d ame     -12.049  14.632  66.155  0.00  0.00     0.046 H 
BRANCH  83  88
ATOM     88  O6  non d ame     -11.627  16.191  63.840  0.00  0.00    -0.369 OA
ATOM     89  H45 non d ame     -11.485  16.829  64.542  0.00  0.00     0.212 HD
ENDBRANCH  83  88
ENDBRANCH  72  75
ENDBRANCH  47  72
ENDBRANCH  45  47
ENDBRANCH   1  43
BRANCH   1  90
ATOM     90  C16 non d ame     -11.693  15.122  71.439  0.00  0.00    -0.035 C 
ATOM     91  H21 non d ame     -10.820  14.698  71.937  0.00  0.00     0.037 H 
ATOM     92  H22 non d ame     -11.739  16.192  71.236  0.00  0.00     0.037 H 
BRANCH  90  93
ATOM     93  C17 non d ame     -12.922  14.792  72.345  0.00  0.00    -0.059 C 
ATOM     94  H23 non d ame     -12.876  13.731  72.590  0.00  0.00     0.038 H 
BRANCH  93  95
ATOM     95  C18 non d ame     -12.896  15.592  73.687  0.00  0.00    -0.073 C 
ATOM     96  H24 non d ame     -12.548  16.607  73.497  0.00  0.00     0.028 H 
ATOM     97  H25 non d ame     -13.900  15.625  74.109  0.00  0.00     0.028 H 
ATOM     98  H26 non d ame     -12.222  15.101  74.389  0.00  0.00     0.028 H 
ENDBRANCH  93  95
BRANCH  93  99
ATOM     99  C19 non d ame     -14.234  15.029  71.594  0.00  0.00    -0.073 C 
ATOM    100  H27 non d ame     -14.769  14.085  71.488  0.00  0.00     0.028 H 
ATOM    101  H28 non d ame     -14.850  15.734  72.154  0.00  0.00     0.028 H 
ATOM    102  H29 non d ame     -14.020  15.439  70.608  0.00  0.00     0.028 H 
ENDBRANCH  93  99
ENDBRANCH  90  93
ENDBRANCH   1  90
TORSDOF 26
ENDMDL
MODEL 6
REMARK VINA RESULT:      -7.3      2.802      9.968
REMARK  26 active torsions:
REMARK  status: ('A' for Active; 'I' for Inactive)
REMARK    1  A    between atoms: C2_2  and  C3_3 
REMARK    2  A    between atoms: C4_6  and  C5_7 
REMARK       I    between atoms: C5_7  and  N2_9 
REMARK    3  A    between atoms: N2_9  and  C6_10 
REMARK    4  A    between atoms: C6_10  and  C7_11 
REMARK    5  A    between atoms: C6_10  and  C8_13 
REMARK       I    between atoms: C7_11  and  N3_14 
REMARK    6  A    between atoms: N3_14  and  C9_15 
REMARK    7  A    between atoms: C9_15  and  C10_16 
REMARK    8  A    between atoms: C9_15  and  C11_18 
REMARK       I    between atoms: C10_16  and  N4_21 
REMARK    9  A    between atoms: C11_18  and  C12_19 
REMARK   10  A    between atoms: C11_18  and  C13_20 
REMARK   11  A    between atoms: N4_21  and  C14_22 
REMARK   12  A    between atoms: C14_22  and  C15_23 
REMARK   13  A    between atoms: C14_22  and  C16_25 
REMARK       I    between atoms: C15_23  and  N6_40 
REMARK   14  A    between atoms: C16_25  and  C17_26 
REMARK   15  A    between atoms: C17_26  and  C18_27 
REMARK   16  A    between atoms: C17_26  and  C19_28 
REMARK   17  A    between atoms: C20_29  and  C21_30 
REMARK   18  A    between atoms: C20_29  and  C24_33 
REMARK   19  A    between atoms: C20_29  and  N6_40 
REMARK   20  A    between atoms: C21_30  and  C22_31 
REMARK   21  A    between atoms: C22_31  and  C23_32 
REMARK   22  A    between atoms: C23_32  and  O8_43 
REMARK   23  A    between atoms: C24_33  and  C25_34 
REMARK   24  A    between atoms: C28_38  and  O6_39 
REMARK   25  A    between atoms: C29_42  and  O8_43 
REMARK   26  A    between atoms: C29_42  and  C35_49 
ROOT
ATOM      1  C14 non d ame      -9.579   6.587  66.804  0.00  0.00     0.089 C 
ATOM      2  H20 non d ame     -10.294   6.280  66.039  0.00  0.00     0.087 H 
ENDROOT
BRANCH   1   3
ATOM      3  N4  non d ame      -9.183   7.956  66.509  0.00  0.00    -0.346 N 
ATOM      4  C10 non d ame      -8.545   8.296  65.185  0.00  0.00     0.241 C 
ATOM      5  O4  non d ame      -8.358   7.450  64.374  0.00  0.00    -0.271 OA
ATOM      6  H19 non d ame      -9.349   8.661  67.213  0.00  0.00     0.163 HD
BRANCH   4   7
ATOM      7  C9  non d ame      -8.146   9.719  64.895  0.00  0.00     0.092 C 
ATOM      8  H11 non d ame      -7.943   9.824  63.829  0.00  0.00     0.088 H 
BRANCH   7   9
ATOM      9  N3  non d ame      -9.262  10.614  65.214  0.00  0.00    -0.346 N 
ATOM     10  C7  non d ame     -10.179  11.021  64.177  0.00  0.00     0.240 C 
ATOM     11  O3  non d ame     -10.032  10.638  63.081  0.00  0.00    -0.271 OA
ATOM     12  H10 non d ame      -9.400  10.954  66.155  0.00  0.00     0.163 HD
BRANCH  10  13
ATOM     13  C6  non d ame     -11.363  11.977  64.523  0.00  0.00     0.086 C 
ATOM     14  H6  non d ame     -11.867  11.705  65.450  0.00  0.00     0.086 H 
BRANCH  13  15
ATOM     15  N2  non d ame     -10.844  13.321  64.710  0.00  0.00    -0.343 N 
ATOM     16  C5  non d ame     -11.378  14.157  65.787  0.00  0.00     0.273 C 
ATOM     17  O2  non d ame     -12.227  13.740  66.496  0.00  0.00    -0.266 OA
ATOM     18  H5  non d ame     -10.120  13.671  64.098  0.00  0.00     0.163 HD
BRANCH  16  19
ATOM     19  C4  non d ame     -10.838  15.580  65.997  0.00  0.00     0.154 A 
ATOM     20  C1  non d ame     -10.542  16.218  67.244  0.00  0.00    -0.017 A 
ATOM     21  C2  non d ame     -10.078  17.505  66.893  0.00  0.00     0.077 A 
ATOM     22  H1  non d ame     -10.648  15.809  68.249  0.00  0.00     0.091 H 
ATOM     23  O1  non d ame     -10.106  17.587  65.595  0.00  0.00    -0.218 OA
ATOM     24  N1  non d ame     -10.546  16.476  65.050  0.00  0.00    -0.123 NA
BRANCH  21  25
ATOM     25  C3  non d ame      -9.627  18.594  67.857  0.00  0.00    -0.029 C 
ATOM     26  H2  non d ame      -9.909  19.570  67.461  0.00  0.00     0.036 H 
ATOM     27  H3  non d ame     -10.105  18.443  68.825  0.00  0.00     0.036 H 
ATOM     28  H4  non d ame      -8.544  18.550  67.976  0.00  0.00     0.036 H 
ENDBRANCH  21  25
ENDBRANCH  16  19
ENDBRANCH  13  15
BRANCH  13  29
ATOM     29  C8  non d ame     -12.368  11.963  63.399  0.00  0.00    -0.049 C 
ATOM     30  H7  non d ame     -13.369  11.827  63.808  0.00  0.00     0.030 H 
ATOM     31  H8  non d ame     -12.321  12.908  62.858  0.00  0.00     0.030 H 
ATOM     32  H9  non d ame     -12.140  11.142  62.719  0.00  0.00     0.030 H 
ENDBRANCH  13  29
ENDBRANCH  10  13
ENDBRANCH   7   9
BRANCH   7  33
ATOM     33  C11 non d ame      -6.913  10.100  65.766  0.00  0.00    -0.033 C 
ATOM     34  H12 non d ame      -6.656   9.230  66.370  0.00  0.00     0.042 H 
BRANCH  33  35
ATOM     35  C12 non d ame      -5.674  10.439  64.880  0.00  0.00    -0.071 C 
ATOM     36  H13 non d ame      -4.794  10.551  65.513  0.00  0.00     0.028 H 
ATOM     37  H14 non d ame      -5.507   9.632  64.166  0.00  0.00     0.028 H 
ATOM     38  H15 non d ame      -5.856  11.369  64.342  0.00  0.00     0.028 H 
ENDBRANCH  33  35
BRANCH  33  39
ATOM     39  C13 non d ame      -7.255  11.277  66.735  0.00  0.00    -0.071 C 
ATOM     40  H16 non d ame      -7.314  10.902  67.756  0.00  0.00     0.028 H 
ATOM     41  H17 non d ame      -6.477  12.038  66.672  0.00  0.00     0.028 H 
ATOM     42  H18 non d ame      -8.213  11.713  66.452  0.00  0.00     0.028 H 
ENDBRANCH  33  39
ENDBRANCH   7  33
ENDBRANCH   4   7
ENDBRANCH   1   3
BRANCH   1  43
ATOM     43  C15 non d ame     -10.194   6.546  68.232  0.00  0.00     0.240 C 
ATOM     44  O5  non d ame     -11.218   5.972  68.419  0.00  0.00    -0.271 OA
ATOM     45  N6  non d ame      -9.501   7.216  69.370  0.00  0.00    -0.355 N 
ATOM     46  H46 non d ame      -8.629   7.702  69.225  0.00  0.00     0.162 HD
BRANCH  45  47
ATOM     47  C20 non d ame     -10.098   7.166  70.722  0.00  0.00     0.013 C 
ATOM     48  H30 non d ame     -10.692   6.256  70.794  0.00  0.00     0.072 H 
BRANCH  47  49
ATOM     49  C21 non d ame     -10.982   8.377  70.923  0.00  0.00    -0.038 C 
ATOM     50  H31 non d ame     -11.841   8.226  70.268  0.00  0.00     0.036 H 
ATOM     51  H32 non d ame     -11.125   8.461  72.000  0.00  0.00     0.036 H 
BRANCH  49  52
ATOM     52  C22 non d ame     -10.311   9.691  70.468  0.00  0.00     0.018 C 
ATOM     53  H33 non d ame     -10.453  10.395  71.288  0.00  0.00     0.048 H 
ATOM     54  H34 non d ame      -9.303   9.415  70.154  0.00  0.00     0.048 H 
BRANCH  52  55
ATOM     55  C23 non d ame     -10.983  10.340  69.226  0.00  0.00     0.259 C 
ATOM     56  O7  non d ame     -10.618  10.063  68.129  0.00  0.00    -0.265 OA
BRANCH  55  57
ATOM     57  O8  non d ame     -12.033  11.281  69.414  0.00  0.00    -0.317 OA
BRANCH  57  58
ATOM     58  C29 non d ame     -12.472  11.400  70.770  0.00  0.00     0.052 C 
ATOM     59  H47 non d ame     -13.423  10.871  70.820  0.00  0.00     0.082 H 
ATOM     60  H48 non d ame     -11.632  11.071  71.382  0.00  0.00     0.082 H 
BRANCH  58  61
ATOM     61  C35 non d ame     -12.729  12.903  71.059  0.00  0.00    -0.034 A 
ATOM     62  C30 non d ame     -12.214  13.875  70.207  0.00  0.00    -0.075 A 
ATOM     63  C31 non d ame     -12.445  15.225  70.466  0.00  0.00    -0.082 A 
ATOM     64  H49 non d ame     -11.630  13.579  69.336  0.00  0.00     0.084 H 
ATOM     65  C32 non d ame     -13.193  15.602  71.585  0.00  0.00    -0.083 A 
ATOM     66  H50 non d ame     -12.042  15.984  69.795  0.00  0.00     0.083 H 
ATOM     67  C33 non d ame     -13.702  14.629  72.434  0.00  0.00    -0.082 A 
ATOM     68  H51 non d ame     -13.379  16.655  71.795  0.00  0.00     0.083 H 
ATOM     69  C34 non d ame     -13.475  13.279  72.178  0.00  0.00    -0.075 A 
ATOM     70  H52 non d ame     -14.283  14.927  73.308  0.00  0.00     0.083 H 
ATOM     71  H53 non d ame     -13.880  12.520  72.849  0.00  0.00     0.084 H 
ENDBRANCH  58  61
ENDBRANCH  57  58
ENDBRANCH  55  57
ENDBRANCH  52  55
ENDBRANCH  49  52
ENDBRANCH  47  49
BRANCH  47  72
ATOM     72  C24 non d ame      -8.992   7.163  71.775  0.00  0.00    -0.039 C 
ATOM     73  H35 non d ame      -8.059   7.081  71.216  0.00  0.00     0.036 H 
ATOM     74  H36 non d ame      -9.180   8.038  72.396  0.00  0.00     0.036 H 
BRANCH  72  75
ATOM     75  C25 non d ame      -9.085   5.878  72.728  0.00  0.00    -0.001 C 
ATOM     76  C26 non d ame     -10.334   4.919  72.254  0.00  0.00    -0.035 C 
ATOM     77  C27 non d ame     -11.110   4.649  73.331  0.00  0.00     0.085 C 
ATOM     78  H38 non d ame     -11.000   5.472  71.593  0.00  0.00     0.036 H 
ATOM     79  H39 non d ame      -9.961   3.939  71.957  0.00  0.00     0.036 H 
ATOM     80  N5  non d ame     -10.691   5.600  74.427  0.00  0.00    -0.049 N 
ATOM     81  H40 non d ame     -12.128   4.888  73.024  0.00  0.00     0.075 H 
ATOM     82  H41 non d ame     -10.854   3.632  73.627  0.00  0.00     0.075 H 
ATOM     83  C28 non d ame      -9.276   6.222  73.958  0.00  0.00     0.193 C 
ATOM     84  H42 non d ame     -11.378   6.340  74.442  0.00  0.00     0.280 HD
ATOM     85  H43 non d ame     -10.537   5.037  75.251  0.00  0.00     0.280 HD
ATOM     86  H44 non d ame      -8.344   5.878  74.407  0.00  0.00     0.129 H 
ATOM     87  H37 non d ame      -8.117   5.398  72.869  0.00  0.00     0.046 H 
BRANCH  83  88
ATOM     88  O6  non d ame      -9.281   7.640  74.127  0.00  0.00    -0.369 OA
ATOM     89  H45 non d ame      -9.038   7.856  75.030  0.00  0.00     0.212 HD
ENDBRANCH  83  88
ENDBRANCH  72  75
ENDBRANCH  47  72
ENDBRANCH  45  47
ENDBRANCH   1  43
BRANCH   1  90
ATOM     90  C16 non d ame      -8.351   5.692  66.750  0.00  0.00    -0.035 C 
ATOM     91  H21 non d ame      -7.669   6.180  66.054  0.00  0.00     0.037 H 
ATOM     92  H22 non d ame      -8.056   5.545  67.789  0.00  0.00     0.037 H 
BRANCH  90  93
ATOM     93  C17 non d ame      -8.636   4.272  66.166  0.00  0.00    -0.059 C 
ATOM     94  H23 non d ame      -7.773   3.982  65.567  0.00  0.00     0.038 H 
BRANCH  93  95
ATOM     95  C18 non d ame      -8.820   3.200  67.287  0.00  0.00    -0.073 C 
ATOM     96  H24 non d ame      -9.861   3.184  67.607  0.00  0.00     0.028 H 
ATOM     97  H25 non d ame      -8.543   2.219  66.900  0.00  0.00     0.028 H 
ATOM     98  H26 non d ame      -8.182   3.449  68.136  0.00  0.00     0.028 H 
ENDBRANCH  93  95
BRANCH  93  99
ATOM     99  C19 non d ame      -9.850   4.298  65.233  0.00  0.00    -0.073 C 
ATOM    100  H27 non d ame     -10.314   3.311  65.214  0.00  0.00     0.028 H 
ATOM    101  H28 non d ame     -10.570   5.032  65.595  0.00  0.00     0.028 H 
ATOM    102  H29 non d ame      -9.529   4.569  64.227  0.00  0.00     0.028 H 
ENDBRANCH  93  99
ENDBRANCH  90  93
ENDBRANCH   1  90
TORSDOF 26
ENDMDL
MODEL 7
REMARK VINA RESULT:      -7.2      3.185      9.507
REMARK  26 active torsions:
REMARK  status: ('A' for Active; 'I' for Inactive)
REMARK    1  A    between atoms: C2_2  and  C3_3 
REMARK    2  A    between atoms: C4_6  and  C5_7 
REMARK       I    between atoms: C5_7  and  N2_9 
REMARK    3  A    between atoms: N2_9  and  C6_10 
REMARK    4  A    between atoms: C6_10  and  C7_11 
REMARK    5  A    between atoms: C6_10  and  C8_13 
REMARK       I    between atoms: C7_11  and  N3_14 
REMARK    6  A    between atoms: N3_14  and  C9_15 
REMARK    7  A    between atoms: C9_15  and  C10_16 
REMARK    8  A    between atoms: C9_15  and  C11_18 
REMARK       I    between atoms: C10_16  and  N4_21 
REMARK    9  A    between atoms: C11_18  and  C12_19 
REMARK   10  A    between atoms: C11_18  and  C13_20 
REMARK   11  A    between atoms: N4_21  and  C14_22 
REMARK   12  A    between atoms: C14_22  and  C15_23 
REMARK   13  A    between atoms: C14_22  and  C16_25 
REMARK       I    between atoms: C15_23  and  N6_40 
REMARK   14  A    between atoms: C16_25  and  C17_26 
REMARK   15  A    between atoms: C17_26  and  C18_27 
REMARK   16  A    between atoms: C17_26  and  C19_28 
REMARK   17  A    between atoms: C20_29  and  C21_30 
REMARK   18  A    between atoms: C20_29  and  C24_33 
REMARK   19  A    between atoms: C20_29  and  N6_40 
REMARK   20  A    between atoms: C21_30  and  C22_31 
REMARK   21  A    between atoms: C22_31  and  C23_32 
REMARK   22  A    between atoms: C23_32  and  O8_43 
REMARK   23  A    between atoms: C24_33  and  C25_34 
REMARK   24  A    between atoms: C28_38  and  O6_39 
REMARK   25  A    between atoms: C29_42  and  O8_43 
REMARK   26  A    between atoms: C29_42  and  C35_49 
ROOT
ATOM      1  C14 non d ame      -9.788   9.849  69.450  0.00  0.00     0.089 C 
ATOM      2  H20 non d ame      -9.375   9.060  70.079  0.00  0.00     0.087 H 
ENDROOT
BRANCH   1   3
ATOM      3  N4  non d ame      -8.801  10.917  69.382  0.00  0.00    -0.346 N 
ATOM      4  C10 non d ame      -7.330  10.603  69.495  0.00  0.00     0.241 C 
ATOM      5  O4  non d ame      -6.965   9.483  69.642  0.00  0.00    -0.271 OA
ATOM      6  H19 non d ame      -9.132  11.863  69.259  0.00  0.00     0.163 HD
BRANCH   4   7
ATOM      7  C9  non d ame      -6.323  11.720  69.417  0.00  0.00     0.092 C 
ATOM      8  H11 non d ame      -5.825  11.686  68.448  0.00  0.00     0.088 H 
BRANCH   7   9
ATOM      9  N3  non d ame      -7.014  13.009  69.504  0.00  0.00    -0.346 N 
ATOM     10  C7  non d ame      -7.024  13.900  68.370  0.00  0.00     0.240 C 
ATOM     11  O3  non d ame      -6.480  13.595  67.379  0.00  0.00    -0.271 OA
ATOM     12  H10 non d ame      -7.487  13.287  70.353  0.00  0.00     0.163 HD
BRANCH  10  13
ATOM     13  C6  non d ame      -7.759  15.273  68.470  0.00  0.00     0.086 C 
ATOM     14  H6  non d ame      -8.193  15.589  67.521  0.00  0.00     0.086 H 
BRANCH  13  15
ATOM     15  N2  non d ame      -8.861  15.150  69.410  0.00  0.00    -0.343 N 
ATOM     16  C5  non d ame     -10.238  15.273  68.928  0.00  0.00     0.273 C 
ATOM     17  O2  non d ame     -10.449  15.474  67.782  0.00  0.00    -0.266 OA
ATOM     18  H5  non d ame      -8.671  14.981  70.388  0.00  0.00     0.163 HD
BRANCH  16  19
ATOM     19  C4  non d ame     -11.412  15.144  69.910  0.00  0.00     0.154 A 
ATOM     20  C1  non d ame     -11.876  13.952  70.552  0.00  0.00    -0.017 A 
ATOM     21  C2  non d ame     -12.967  14.367  71.347  0.00  0.00     0.077 A 
ATOM     22  H1  non d ame     -11.480  12.940  70.456  0.00  0.00     0.091 H 
ATOM     23  O1  non d ame     -13.105  15.649  71.175  0.00  0.00    -0.218 OA
ATOM     24  N1  non d ame     -12.210  16.125  70.341  0.00  0.00    -0.123 NA
BRANCH  21  25
ATOM     25  C3  non d ame     -13.823  13.478  72.240  0.00  0.00    -0.029 C 
ATOM     26  H2  non d ame     -14.582  12.979  71.636  0.00  0.00     0.036 H 
ATOM     27  H3  non d ame     -13.191  12.731  72.720  0.00  0.00     0.036 H 
ATOM     28  H4  non d ame     -14.308  14.088  73.002  0.00  0.00     0.036 H 
ENDBRANCH  21  25
ENDBRANCH  16  19
ENDBRANCH  13  15
BRANCH  13  29
ATOM     29  C8  non d ame      -6.793  16.330  68.941  0.00  0.00    -0.049 C 
ATOM     30  H7  non d ame      -5.828  15.871  69.157  0.00  0.00     0.030 H 
ATOM     31  H8  non d ame      -6.671  17.084  68.163  0.00  0.00     0.030 H 
ATOM     32  H9  non d ame      -7.181  16.799  69.845  0.00  0.00     0.030 H 
ENDBRANCH  13  29
ENDBRANCH  10  13
ENDBRANCH   7   9
BRANCH   7  33
ATOM     33  C11 non d ame      -5.316  11.593  70.597  0.00  0.00    -0.033 C 
ATOM     34  H12 non d ame      -5.682  10.807  71.258  0.00  0.00     0.042 H 
BRANCH  33  35
ATOM     35  C12 non d ame      -3.902  11.163  70.095  0.00  0.00    -0.071 C 
ATOM     36  H13 non d ame      -3.141  11.570  70.761  0.00  0.00     0.028 H 
ATOM     37  H14 non d ame      -3.835  10.075  70.089  0.00  0.00     0.028 H 
ATOM     38  H15 non d ame      -3.744  11.543  69.086  0.00  0.00     0.028 H 
ENDBRANCH  33  35
BRANCH  33  39
ATOM     39  C13 non d ame      -5.245  12.921  71.417  0.00  0.00    -0.071 C 
ATOM     40  H16 non d ame      -5.390  13.769  70.749  0.00  0.00     0.028 H 
ATOM     41  H17 non d ame      -6.027  12.920  72.178  0.00  0.00     0.028 H 
ATOM     42  H18 non d ame      -4.271  12.999  71.899  0.00  0.00     0.028 H 
ENDBRANCH  33  39
ENDBRANCH   7  33
ENDBRANCH   4   7
ENDBRANCH   1   3
BRANCH   1  43
ATOM     43  C15 non d ame     -10.082   9.354  68.005  0.00  0.00     0.240 C 
ATOM     44  O5  non d ame     -10.532   8.268  67.832  0.00  0.00    -0.271 OA
ATOM     45  N6  non d ame      -9.812  10.239  66.836  0.00  0.00    -0.355 N 
ATOM     46  H46 non d ame      -9.435  11.166  66.970  0.00  0.00     0.162 HD
BRANCH  45  47
ATOM     47  C20 non d ame     -10.099   9.755  65.468  0.00  0.00     0.013 C 
ATOM     48  H30 non d ame     -10.840   8.959  65.543  0.00  0.00     0.072 H 
BRANCH  47  49
ATOM     49  C21 non d ame      -8.827   9.220  64.851  0.00  0.00    -0.038 C 
ATOM     50  H31 non d ame      -8.012   9.670  65.418  0.00  0.00     0.036 H 
ATOM     51  H32 non d ame      -8.943   8.136  64.829  0.00  0.00     0.036 H 
BRANCH  49  52
ATOM     52  C22 non d ame      -8.638   9.668  63.385  0.00  0.00     0.018 C 
ATOM     53  H33 non d ame      -9.634   9.927  63.025  0.00  0.00     0.048 H 
ATOM     54  H34 non d ame      -7.853  10.424  63.406  0.00  0.00     0.048 H 
BRANCH  52  55
ATOM     55  C23 non d ame      -8.124   8.541  62.447  0.00  0.00     0.259 C 
ATOM     56  O7  non d ame      -7.896   8.765  61.303  0.00  0.00    -0.265 OA
BRANCH  55  57
ATOM     57  O8  non d ame      -7.939   7.231  62.969  0.00  0.00    -0.317 OA
BRANCH  57  58
ATOM     58  C29 non d ame      -6.568   6.835  63.077  0.00  0.00     0.052 C 
ATOM     59  H47 non d ame      -6.356   6.259  62.176  0.00  0.00     0.082 H 
ATOM     60  H48 non d ame      -6.012   7.749  63.282  0.00  0.00     0.082 H 
BRANCH  58  61
ATOM     61  C35 non d ame      -6.437   5.894  64.304  0.00  0.00    -0.034 A 
ATOM     62  C30 non d ame      -7.566   5.543  65.037  0.00  0.00    -0.075 A 
ATOM     63  C31 non d ame      -7.448   4.699  66.140  0.00  0.00    -0.082 A 
ATOM     64  H49 non d ame      -8.543   5.930  64.748  0.00  0.00     0.084 H 
ATOM     65  C32 non d ame      -6.193   4.206  66.510  0.00  0.00    -0.083 A 
ATOM     66  H50 non d ame      -8.334   4.424  66.711  0.00  0.00     0.083 H 
ATOM     67  C33 non d ame      -5.069   4.561  65.777  0.00  0.00    -0.082 A 
ATOM     68  H51 non d ame      -6.092   3.544  67.371  0.00  0.00     0.083 H 
ATOM     69  C34 non d ame      -5.183   5.403  64.673  0.00  0.00    -0.075 A 
ATOM     70  H52 non d ame      -4.092   4.177  66.070  0.00  0.00     0.083 H 
ATOM     71  H53 non d ame      -4.295   5.677  64.102  0.00  0.00     0.084 H 
ENDBRANCH  58  61
ENDBRANCH  57  58
ENDBRANCH  55  57
ENDBRANCH  52  55
ENDBRANCH  49  52
ENDBRANCH  47  49
BRANCH  47  72
ATOM     72  C24 non d ame     -10.637  10.903  64.616  0.00  0.00    -0.039 C 
ATOM     73  H35 non d ame      -9.913  11.030  63.811  0.00  0.00     0.036 H 
ATOM     74  H36 non d ame     -11.667  10.634  64.384  0.00  0.00     0.036 H 
BRANCH  72  75
ATOM     75  C25 non d ame     -10.680  12.279  65.435  0.00  0.00    -0.001 C 
ATOM     76  C26 non d ame     -12.231  12.638  65.845  0.00  0.00    -0.035 C 
ATOM     77  C27 non d ame     -12.502  13.908  65.461  0.00  0.00     0.085 C 
ATOM     78  H38 non d ame     -12.923  12.039  65.253  0.00  0.00     0.036 H 
ATOM     79  H39 non d ame     -12.332  12.673  66.930  0.00  0.00     0.036 H 
ATOM     80  N5  non d ame     -11.388  14.336  64.535  0.00  0.00    -0.049 N 
ATOM     81  H40 non d ame     -13.432  13.849  64.894  0.00  0.00     0.075 H 
ATOM     82  H41 non d ame     -12.455  14.504  66.372  0.00  0.00     0.075 H 
ATOM     83  C28 non d ame     -10.206  13.255  64.734  0.00  0.00     0.193 C 
ATOM     84  H42 non d ame     -11.748  14.250  63.596  0.00  0.00     0.280 HD
ATOM     85  H43 non d ame     -11.064  15.231  64.872  0.00  0.00     0.280 HD
ATOM     86  H44 non d ame      -9.319  13.505  65.316  0.00  0.00     0.129 H 
ATOM     87  H37 non d ame      -9.936  12.309  66.231  0.00  0.00     0.046 H 
BRANCH  83  88
ATOM     88  O6  non d ame      -9.718  12.819  63.464  0.00  0.00    -0.369 OA
ATOM     89  H45 non d ame      -9.097  12.098  63.590  0.00  0.00     0.212 HD
ENDBRANCH  83  88
ENDBRANCH  72  75
ENDBRANCH  47  72
ENDBRANCH  45  47
ENDBRANCH   1  43
BRANCH   1  90
ATOM     90  C16 non d ame     -11.063  10.391  70.075  0.00  0.00    -0.035 C 
ATOM     91  H21 non d ame     -10.740  11.187  70.747  0.00  0.00     0.037 H 
ATOM     92  H22 non d ame     -11.721  10.621  69.236  0.00  0.00     0.037 H 
BRANCH  90  93
ATOM     93  C17 non d ame     -11.821   9.349  70.957  0.00  0.00    -0.059 C 
ATOM     94  H23 non d ame     -12.216   8.579  70.294  0.00  0.00     0.038 H 
BRANCH  93  95
ATOM     95  C18 non d ame     -10.876   8.651  71.988  0.00  0.00    -0.073 C 
ATOM     96  H24 non d ame     -11.465   8.276  72.824  0.00  0.00     0.028 H 
ATOM     97  H25 non d ame     -10.361   7.821  71.504  0.00  0.00     0.028 H 
ATOM     98  H26 non d ame     -10.143   9.371  72.353  0.00  0.00     0.028 H 
ENDBRANCH  93  95
BRANCH  93  99
ATOM     99  C19 non d ame     -13.015   9.996  71.664  0.00  0.00    -0.073 C 
ATOM    100  H27 non d ame     -13.249  10.947  71.185  0.00  0.00     0.028 H 
ATOM    101  H28 non d ame     -13.878   9.333  71.599  0.00  0.00     0.028 H 
ATOM    102  H29 non d ame     -12.767  10.168  72.711  0.00  0.00     0.028 H 
ENDBRANCH  93  99
ENDBRANCH  90  93
ENDBRANCH   1  90
TORSDOF 26
ENDMDL
MODEL 8
REMARK VINA RESULT:      -7.1      3.111      7.380
REMARK  26 active torsions:
REMARK  status: ('A' for Active; 'I' for Inactive)
REMARK    1  A    between atoms: C2_2  and  C3_3 
REMARK    2  A    between atoms: C4_6  and  C5_7 
REMARK       I    between atoms: C5_7  and  N2_9 
REMARK    3  A    between atoms: N2_9  and  C6_10 
REMARK    4  A    between atoms: C6_10  and  C7_11 
REMARK    5  A    between atoms: C6_10  and  C8_13 
REMARK       I    between atoms: C7_11  and  N3_14 
REMARK    6  A    between atoms: N3_14  and  C9_15 
REMARK    7  A    between atoms: C9_15  and  C10_16 
REMARK    8  A    between atoms: C9_15  and  C11_18 
REMARK       I    between atoms: C10_16  and  N4_21 
REMARK    9  A    between atoms: C11_18  and  C12_19 
REMARK   10  A    between atoms: C11_18  and  C13_20 
REMARK   11  A    between atoms: N4_21  and  C14_22 
REMARK   12  A    between atoms: C14_22  and  C15_23 
REMARK   13  A    between atoms: C14_22  and  C16_25 
REMARK       I    between atoms: C15_23  and  N6_40 
REMARK   14  A    between atoms: C16_25  and  C17_26 
REMARK   15  A    between atoms: C17_26  and  C18_27 
REMARK   16  A    between atoms: C17_26  and  C19_28 
REMARK   17  A    between atoms: C20_29  and  C21_30 
REMARK   18  A    between atoms: C20_29  and  C24_33 
REMARK   19  A    between atoms: C20_29  and  N6_40 
REMARK   20  A    between atoms: C21_30  and  C22_31 
REMARK   21  A    between atoms: C22_31  and  C23_32 
REMARK   22  A    between atoms: C23_32  and  O8_43 
REMARK   23  A    between atoms: C24_33  and  C25_34 
REMARK   24  A    between atoms: C28_38  and  O6_39 
REMARK   25  A    between atoms: C29_42  and  O8_43 
REMARK   26  A    between atoms: C29_42  and  C35_49 
ROOT
ATOM      1  C14 non d ame      -9.982  11.685  65.822  0.00  0.00     0.089 C 
ATOM      2  H20 non d ame      -9.731  12.076  64.835  0.00  0.00     0.087 H 
ENDROOT
BRANCH   1   3
ATOM      3  N4  non d ame      -9.492  10.317  65.890  0.00  0.00    -0.346 N 
ATOM      4  C10 non d ame      -8.597   9.774  64.804  0.00  0.00     0.241 C 
ATOM      5  O4  non d ame      -8.287  10.456  63.884  0.00  0.00    -0.271 OA
ATOM      6  H19 non d ame      -9.769   9.751  66.680  0.00  0.00     0.163 HD
BRANCH   4   7
ATOM      7  C9  non d ame      -8.094   8.357  64.894  0.00  0.00     0.092 C 
ATOM      8  H11 non d ame      -7.178   8.338  65.485  0.00  0.00     0.088 H 
BRANCH   7   9
ATOM      9  N3  non d ame      -9.081   7.531  65.597  0.00  0.00    -0.346 N 
ATOM     10  C7  non d ame      -8.863   7.166  66.975  0.00  0.00     0.240 C 
ATOM     11  O3  non d ame      -7.900   7.527  67.533  0.00  0.00    -0.271 OA
ATOM     12  H10 non d ame      -9.916   7.211  65.128  0.00  0.00     0.163 HD
BRANCH  10  13
ATOM     13  C6  non d ame      -9.915   6.284  67.717  0.00  0.00     0.086 C 
ATOM     14  H6  non d ame      -9.463   5.611  68.445  0.00  0.00     0.086 H 
BRANCH  13  15
ATOM     15  N2  non d ame     -10.819   7.150  68.456  0.00  0.00    -0.343 N 
ATOM     16  C5  non d ame     -10.548   7.439  69.866  0.00  0.00     0.273 C 
ATOM     17  O2  non d ame      -9.603   6.968  70.397  0.00  0.00    -0.266 OA
ATOM     18  H5  non d ame     -11.626   7.546  67.995  0.00  0.00     0.163 HD
BRANCH  16  19
ATOM     19  C4  non d ame     -11.494   8.354  70.660  0.00  0.00     0.154 A 
ATOM     20  C1  non d ame     -11.601   9.778  70.565  0.00  0.00    -0.017 A 
ATOM     21  C2  non d ame     -12.605  10.130  71.494  0.00  0.00     0.077 A 
ATOM     22  H1  non d ame     -11.036  10.453  69.921  0.00  0.00     0.091 H 
ATOM     23  O1  non d ame     -13.021   9.030  72.050  0.00  0.00    -0.218 OA
ATOM     24  N1  non d ame     -12.387   7.980  71.580  0.00  0.00    -0.123 NA
BRANCH  21  25
ATOM     25  C3  non d ame     -13.109  11.537  71.788  0.00  0.00    -0.029 C 
ATOM     26  H2  non d ame     -12.620  11.918  72.685  0.00  0.00     0.036 H 
ATOM     27  H3  non d ame     -12.880  12.188  70.944  0.00  0.00     0.036 H 
ATOM     28  H4  non d ame     -14.188  11.512  71.945  0.00  0.00     0.036 H 
ENDBRANCH  21  25
ENDBRANCH  16  19
ENDBRANCH  13  15
BRANCH  13  29
ATOM     29  C8  non d ame     -10.689   5.468  66.713  0.00  0.00    -0.049 C 
ATOM     30  H7  non d ame     -11.115   6.129  65.958  0.00  0.00     0.030 H 
ATOM     31  H8  non d ame     -10.020   4.753  66.234  0.00  0.00     0.030 H 
ATOM     32  H9  non d ame     -11.490   4.932  67.221  0.00  0.00     0.030 H 
ENDBRANCH  13  29
ENDBRANCH  10  13
ENDBRANCH   7   9
BRANCH   7  33
ATOM     33  C11 non d ame      -7.877   7.792  63.459  0.00  0.00    -0.033 C 
ATOM     34  H12 non d ame      -8.583   8.294  62.798  0.00  0.00     0.042 H 
BRANCH  33  35
ATOM     35  C12 non d ame      -6.441   8.107  62.936  0.00  0.00    -0.071 C 
ATOM     36  H13 non d ame      -6.359   7.800  61.893  0.00  0.00     0.028 H 
ATOM     37  H14 non d ame      -6.252   9.177  63.015  0.00  0.00     0.028 H 
ATOM     38  H15 non d ame      -5.709   7.563  63.534  0.00  0.00     0.028 H 
ENDBRANCH  33  35
BRANCH  33  39
ATOM     39  C13 non d ame      -8.174   6.259  63.411  0.00  0.00    -0.071 C 
ATOM     40  H16 non d ame      -9.215   6.099  63.130  0.00  0.00     0.028 H 
ATOM     41  H17 non d ame      -7.523   5.786  62.675  0.00  0.00     0.028 H 
ATOM     42  H18 non d ame      -7.991   5.822  64.392  0.00  0.00     0.028 H 
ENDBRANCH  33  39
ENDBRANCH   7  33
ENDBRANCH   4   7
ENDBRANCH   1   3
BRANCH   1  43
ATOM     43  C15 non d ame      -9.319  12.506  66.965  0.00  0.00     0.240 C 
ATOM     44  O5  non d ame      -9.400  12.128  68.088  0.00  0.00    -0.271 OA
ATOM     45  N6  non d ame      -8.575  13.761  66.657  0.00  0.00    -0.355 N 
ATOM     46  H46 non d ame      -8.495  14.090  65.706  0.00  0.00     0.162 HD
BRANCH  45  47
ATOM     47  C20 non d ame      -7.949  14.530  67.754  0.00  0.00     0.013 C 
ATOM     48  H30 non d ame      -8.306  14.118  68.698  0.00  0.00     0.072 H 
BRANCH  47  49
ATOM     49  C21 non d ame      -8.351  15.983  67.639  0.00  0.00    -0.038 C 
ATOM     50  H31 non d ame      -8.340  16.373  68.657  0.00  0.00     0.036 H 
ATOM     51  H32 non d ame      -7.692  16.411  66.884  0.00  0.00     0.036 H 
BRANCH  49  52
ATOM     52  C22 non d ame      -9.792  16.166  67.117  0.00  0.00     0.018 C 
ATOM     53  H33 non d ame      -9.692  16.472  66.075  0.00  0.00     0.048 H 
ATOM     54  H34 non d ame     -10.316  15.243  67.366  0.00  0.00     0.048 H 
BRANCH  52  55
ATOM     55  C23 non d ame     -10.574  17.308  67.824  0.00  0.00     0.259 C 
ATOM     56  O7  non d ame     -10.268  18.443  67.656  0.00  0.00    -0.265 OA
BRANCH  55  57
ATOM     57  O8  non d ame     -11.656  16.980  68.688  0.00  0.00    -0.317 OA
BRANCH  57  58
ATOM     58  C29 non d ame     -11.613  15.642  69.193  0.00  0.00     0.052 C 
ATOM     59  H47 non d ame     -12.222  15.050  68.510  0.00  0.00     0.082 H 
ATOM     60  H48 non d ame     -10.556  15.409  69.321  0.00  0.00     0.082 H 
BRANCH  58  61
ATOM     61  C35 non d ame     -12.290  15.635  70.589  0.00  0.00    -0.034 A 
ATOM     62  C30 non d ame     -11.602  16.113  71.700  0.00  0.00    -0.075 A 
ATOM     63  C31 non d ame     -12.211  16.106  72.954  0.00  0.00    -0.082 A 
ATOM     64  H49 non d ame     -10.587  16.493  71.587  0.00  0.00     0.084 H 
ATOM     65  C32 non d ame     -13.512  15.616  73.096  0.00  0.00    -0.083 A 
ATOM     66  H50 non d ame     -11.670  16.484  73.822  0.00  0.00     0.083 H 
ATOM     67  C33 non d ame     -14.193  15.137  71.985  0.00  0.00    -0.082 A 
ATOM     68  H51 non d ame     -13.995  15.608  74.073  0.00  0.00     0.083 H 
ATOM     69  C34 non d ame     -13.590  15.144  70.729  0.00  0.00    -0.075 A 
ATOM     70  H52 non d ame     -15.207  14.754  72.100  0.00  0.00     0.083 H 
ATOM     71  H53 non d ame     -14.132  14.767  69.862  0.00  0.00     0.084 H 
ENDBRANCH  58  61
ENDBRANCH  57  58
ENDBRANCH  55  57
ENDBRANCH  52  55
ENDBRANCH  49  52
ENDBRANCH  47  49
BRANCH  47  72
ATOM     72  C24 non d ame      -6.429  14.412  67.665  0.00  0.00    -0.039 C 
ATOM     73  H35 non d ame      -6.221  14.099  66.642  0.00  0.00     0.036 H 
ATOM     74  H36 non d ame      -6.042  15.363  68.033  0.00  0.00     0.036 H 
BRANCH  72  75
ATOM     75  C25 non d ame      -5.865  13.267  68.634  0.00  0.00    -0.001 C 
ATOM     76  C26 non d ame      -4.550  13.822  69.450  0.00  0.00    -0.035 C 
ATOM     77  C27 non d ame      -3.538  12.933  69.303  0.00  0.00     0.085 C 
ATOM     78  H38 non d ame      -4.167  14.724  68.974  0.00  0.00     0.036 H 
ATOM     79  H39 non d ame      -4.744  13.812  70.523  0.00  0.00     0.036 H 
ATOM     80  N5  non d ame      -3.938  11.988  68.195  0.00  0.00    -0.049 N 
ATOM     81  H40 non d ame      -2.679  13.520  68.976  0.00  0.00     0.075 H 
ATOM     82  H41 non d ame      -3.496  12.382  70.242  0.00  0.00     0.075 H 
ATOM     83  C28 non d ame      -5.520  12.218  67.965  0.00  0.00     0.193 C 
ATOM     84  H42 non d ame      -3.445  12.293  67.368  0.00  0.00     0.280 HD
ATOM     85  H43 non d ame      -3.798  11.054  68.551  0.00  0.00     0.280 HD
ATOM     86  H44 non d ame      -6.244  11.496  68.341  0.00  0.00     0.129 H 
ATOM     87  H37 non d ame      -6.654  12.800  69.223  0.00  0.00     0.046 H 
BRANCH  83  88
ATOM     88  O6  non d ame      -5.801  12.350  66.571  0.00  0.00    -0.369 OA
ATOM     89  H45 non d ame      -6.696  12.052  66.395  0.00  0.00     0.212 HD
ENDBRANCH  83  88
ENDBRANCH  72  75
ENDBRANCH  47  72
ENDBRANCH  45  47
ENDBRANCH   1  43
BRANCH   1  90
ATOM     90  C16 non d ame     -11.491  11.681  66.005  0.00  0.00    -0.035 C 
ATOM     91  H21 non d ame     -11.804  10.656  65.805  0.00  0.00     0.037 H 
ATOM     92  H22 non d ame     -11.664  12.121  66.987  0.00  0.00     0.037 H 
BRANCH  90  93
ATOM     93  C17 non d ame     -12.250  12.581  64.978  0.00  0.00    -0.059 C 
ATOM     94  H23 non d ame     -13.246  12.161  64.842  0.00  0.00     0.038 H 
BRANCH  93  95
ATOM     95  C18 non d ame     -12.417  14.047  65.490  0.00  0.00    -0.073 C 
ATOM     96  H24 non d ame     -13.022  14.048  66.397  0.00  0.00     0.028 H 
ATOM     97  H25 non d ame     -11.436  14.470  65.708  0.00  0.00     0.028 H 
ATOM     98  H26 non d ame     -12.909  14.646  64.723  0.00  0.00     0.028 H 
ENDBRANCH  93  95
BRANCH  93  99
ATOM     99  C19 non d ame     -11.556  12.557  63.613  0.00  0.00    -0.073 C 
ATOM    100  H27 non d ame     -11.589  11.546  63.206  0.00  0.00     0.028 H 
ATOM    101  H28 non d ame     -12.068  13.239  62.934  0.00  0.00     0.028 H 
ATOM    102  H29 non d ame     -10.518  12.869  63.728  0.00  0.00     0.028 H 
ENDBRANCH  93  99
ENDBRANCH  90  93
ENDBRANCH   1  90
TORSDOF 26
ENDMDL
MODEL 9
REMARK VINA RESULT:      -7.1      3.997      6.051
REMARK  26 active torsions:
REMARK  status: ('A' for Active; 'I' for Inactive)
REMARK    1  A    between atoms: C2_2  and  C3_3 
REMARK    2  A    between atoms: C4_6  and  C5_7 
REMARK       I    between atoms: C5_7  and  N2_9 
REMARK    3  A    between atoms: N2_9  and  C6_10 
REMARK    4  A    between atoms: C6_10  and  C7_11 
REMARK    5  A    between atoms: C6_10  and  C8_13 
REMARK       I    between atoms: C7_11  and  N3_14 
REMARK    6  A    between atoms: N3_14  and  C9_15 
REMARK    7  A    between atoms: C9_15  and  C10_16 
REMARK    8  A    between atoms: C9_15  and  C11_18 
REMARK       I    between atoms: C10_16  and  N4_21 
REMARK    9  A    between atoms: C11_18  and  C12_19 
REMARK   10  A    between atoms: C11_18  and  C13_20 
REMARK   11  A    between atoms: N4_21  and  C14_22 
REMARK   12  A    between atoms: C14_22  and  C15_23 
REMARK   13  A    between atoms: C14_22  and  C16_25 
REMARK       I    between atoms: C15_23  and  N6_40 
REMARK   14  A    between atoms: C16_25  and  C17_26 
REMARK   15  A    between atoms: C17_26  and  C18_27 
REMARK   16  A    between atoms: C17_26  and  C19_28 
REMARK   17  A    between atoms: C20_29  and  C21_30 
REMARK   18  A    between atoms: C20_29  and  C24_33 
REMARK   19  A    between atoms: C20_29  and  N6_40 
REMARK   20  A    between atoms: C21_30  and  C22_31 
REMARK   21  A    between atoms: C22_31  and  C23_32 
REMARK   22  A    between atoms: C23_32  and  O8_43 
REMARK   23  A    between atoms: C24_33  and  C25_34 
REMARK   24  A    between atoms: C28_38  and  O6_39 
REMARK   25  A    between atoms: C29_42  and  O8_43 
REMARK   26  A    between atoms: C29_42  and  C35_49 
ROOT
ATOM      1  C14 non d ame     -11.453   8.282  70.508  0.00  0.00     0.089 C 
ATOM      2  H20 non d ame     -12.441   8.075  70.094  0.00  0.00     0.087 H 
ENDROOT
BRANCH   1   3
ATOM      3  N4  non d ame     -10.758   7.011  70.640  0.00  0.00    -0.346 N 
ATOM      4  C10 non d ame     -10.712   6.044  69.484  0.00  0.00     0.241 C 
ATOM      5  O4  non d ame     -11.245   6.310  68.458  0.00  0.00    -0.271 OA
ATOM      6  H19 non d ame     -10.313   6.802  71.523  0.00  0.00     0.163 HD
BRANCH   4   7
ATOM      7  C9  non d ame      -9.983   4.735  69.637  0.00  0.00     0.092 C 
ATOM      8  H11 non d ame     -10.645   3.919  69.344  0.00  0.00     0.088 H 
BRANCH   7   9
ATOM      9  N3  non d ame      -8.833   4.707  68.729  0.00  0.00    -0.346 N 
ATOM     10  C7  non d ame      -8.821   3.797  67.609  0.00  0.00     0.240 C 
ATOM     11  O3  non d ame      -9.727   3.080  67.425  0.00  0.00    -0.271 OA
ATOM     12  H10 non d ame      -8.042   5.318  68.876  0.00  0.00     0.163 HD
BRANCH  10  13
ATOM     13  C6  non d ame      -7.592   3.770  66.648  0.00  0.00     0.086 C 
ATOM     14  H6  non d ame      -7.796   3.238  65.719  0.00  0.00     0.086 H 
BRANCH  13  15
ATOM     15  N2  non d ame      -7.251   5.134  66.280  0.00  0.00    -0.343 N 
ATOM     16  C5  non d ame      -7.827   5.720  65.068  0.00  0.00     0.273 C 
ATOM     17  O2  non d ame      -8.561   5.085  64.394  0.00  0.00    -0.266 OA
ATOM     18  H5  non d ame      -6.620   5.669  66.860  0.00  0.00     0.163 HD
BRANCH  16  19
ATOM     19  C4  non d ame      -7.476   7.162  64.668  0.00  0.00     0.154 A 
ATOM     20  C1  non d ame      -6.859   8.160  65.487  0.00  0.00    -0.017 A 
ATOM     21  C2  non d ame      -6.757   9.299  64.656  0.00  0.00     0.077 A 
ATOM     22  H1  non d ame      -6.536   8.073  66.524  0.00  0.00     0.091 H 
ATOM     23  O1  non d ame      -7.258   8.980  63.499  0.00  0.00    -0.218 OA
ATOM     24  N1  non d ame      -7.684   7.738  63.481  0.00  0.00    -0.123 NA
BRANCH  21  25
ATOM     25  C3  non d ame      -6.168  10.648  65.045  0.00  0.00    -0.029 C 
ATOM     26  H2  non d ame      -6.805  11.447  64.663  0.00  0.00     0.036 H 
ATOM     27  H3  non d ame      -6.108  10.719  66.131  0.00  0.00     0.036 H 
ATOM     28  H4  non d ame      -5.169  10.746  64.619  0.00  0.00     0.036 H 
ENDBRANCH  21  25
ENDBRANCH  16  19
ENDBRANCH  13  15
BRANCH  13  29
ATOM     29  C8  non d ame      -6.424   3.114  67.339  0.00  0.00    -0.049 C 
ATOM     30  H7  non d ame      -6.539   3.211  68.419  0.00  0.00     0.030 H 
ATOM     31  H8  non d ame      -6.390   2.058  67.071  0.00  0.00     0.030 H 
ATOM     32  H9  non d ame      -5.499   3.598  67.028  0.00  0.00     0.030 H 
ENDBRANCH  13  29
ENDBRANCH  10  13
ENDBRANCH   7   9
BRANCH   7  33
ATOM     33  C11 non d ame      -9.486   4.586  71.105  0.00  0.00    -0.033 C 
ATOM     34  H12 non d ame     -10.067   5.273  71.720  0.00  0.00     0.042 H 
BRANCH  33  35
ATOM     35  C12 non d ame      -9.735   3.144  71.646  0.00  0.00    -0.071 C 
ATOM     36  H13 non d ame      -9.633   2.427  70.831  0.00  0.00     0.028 H 
ATOM     37  H14 non d ame      -9.005   2.917  72.423  0.00  0.00     0.028 H 
ATOM     38  H15 non d ame     -10.740   3.081  72.062  0.00  0.00     0.028 H 
ENDBRANCH  33  35
BRANCH  33  39
ATOM     39  C13 non d ame      -7.980   4.985  71.228  0.00  0.00    -0.071 C 
ATOM     40  H16 non d ame      -7.582   5.211  70.239  0.00  0.00     0.028 H 
ATOM     41  H17 non d ame      -7.888   5.865  71.866  0.00  0.00     0.028 H 
ATOM     42  H18 non d ame      -7.420   4.159  71.665  0.00  0.00     0.028 H 
ENDBRANCH  33  39
ENDBRANCH   7  33
ENDBRANCH   4   7
ENDBRANCH   1   3
BRANCH   1  43
ATOM     43  C15 non d ame     -10.614   9.213  69.586  0.00  0.00     0.240 C 
ATOM     44  O5  non d ame      -9.555   9.609  69.954  0.00  0.00    -0.271 OA
ATOM     45  N6  non d ame     -11.125   9.602  68.241  0.00  0.00    -0.355 N 
ATOM     46  H46 non d ame     -12.021   9.267  67.917  0.00  0.00     0.162 HD
BRANCH  45  47
ATOM     47  C20 non d ame     -10.314  10.486  67.377  0.00  0.00     0.013 C 
ATOM     48  H30 non d ame      -9.272  10.389  67.681  0.00  0.00     0.072 H 
BRANCH  47  49
ATOM     49  C21 non d ame     -10.774  11.915  67.553  0.00  0.00    -0.038 C 
ATOM     50  H31 non d ame     -10.937  12.299  66.545  0.00  0.00     0.036 H 
ATOM     51  H32 non d ame     -11.601  11.873  68.261  0.00  0.00     0.036 H 
BRANCH  49  52
ATOM     52  C22 non d ame      -9.696  12.817  68.193  0.00  0.00     0.018 C 
ATOM     53  H33 non d ame      -9.440  12.343  69.141  0.00  0.00     0.048 H 
ATOM     54  H34 non d ame      -8.931  12.952  67.428  0.00  0.00     0.048 H 
BRANCH  52  55
ATOM     55  C23 non d ame     -10.202  14.242  68.549  0.00  0.00     0.259 C 
ATOM     56  O7  non d ame      -9.432  15.133  68.711  0.00  0.00    -0.265 OA
BRANCH  55  57
ATOM     57  O8  non d ame     -11.599  14.470  68.694  0.00  0.00    -0.317 OA
BRANCH  57  58
ATOM     58  C29 non d ame     -11.928  15.766  69.200  0.00  0.00     0.052 C 
ATOM     59  H47 non d ame     -10.990  16.321  69.223  0.00  0.00     0.082 H 
ATOM     60  H48 non d ame     -12.756  16.121  68.587  0.00  0.00     0.082 H 
BRANCH  58  61
ATOM     61  C35 non d ame     -12.434  15.597  70.657  0.00  0.00    -0.034 A 
ATOM     62  C30 non d ame     -11.606  15.928  71.725  0.00  0.00    -0.075 A 
ATOM     63  C31 non d ame     -12.061  15.776  73.034  0.00  0.00    -0.082 A 
ATOM     64  H49 non d ame     -10.602  16.308  71.537  0.00  0.00     0.084 H 
ATOM     65  C32 non d ame     -13.348  15.287  73.274  0.00  0.00    -0.083 A 
ATOM     66  H50 non d ame     -11.411  16.039  73.869  0.00  0.00     0.083 H 
ATOM     67  C33 non d ame     -14.169  14.955  72.205  0.00  0.00    -0.082 A 
ATOM     68  H51 non d ame     -13.711  15.166  74.294  0.00  0.00     0.083 H 
ATOM     69  C34 non d ame     -13.720  15.107  70.895  0.00  0.00    -0.075 A 
ATOM     70  H52 non d ame     -15.172  14.571  72.395  0.00  0.00     0.083 H 
ATOM     71  H53 non d ame     -14.371  14.845  70.061  0.00  0.00     0.084 H 
ENDBRANCH  58  61
ENDBRANCH  57  58
ENDBRANCH  55  57
ENDBRANCH  52  55
ENDBRANCH  49  52
ENDBRANCH  47  49
BRANCH  47  72
ATOM     72  C24 non d ame     -10.481  10.073  65.916  0.00  0.00    -0.039 C 
ATOM     73  H35 non d ame      -9.602   9.471  65.682  0.00  0.00     0.036 H 
ATOM     74  H36 non d ame     -11.476   9.633  65.850  0.00  0.00     0.036 H 
BRANCH  72  75
ATOM     75  C25 non d ame     -10.459  11.340  64.936  0.00  0.00    -0.001 C 
ATOM     76  C26 non d ame     -11.909  12.113  64.987  0.00  0.00    -0.035 C 
ATOM     77  C27 non d ame     -12.359  12.281  63.720  0.00  0.00     0.085 C 
ATOM     78  H38 non d ame     -12.661  11.467  65.440  0.00  0.00     0.036 H 
ATOM     79  H39 non d ame     -11.777  13.133  65.348  0.00  0.00     0.036 H 
ATOM     80  N5  non d ame     -11.509  11.407  62.830  0.00  0.00    -0.049 N 
ATOM     81  H40 non d ame     -13.381  11.901  63.720  0.00  0.00     0.075 H 
ATOM     82  H41 non d ame     -12.166  13.327  63.480  0.00  0.00     0.075 H 
ATOM     83  C28 non d ame     -10.227  10.984  63.716  0.00  0.00     0.193 C 
ATOM     84  H42 non d ame     -12.054  10.579  62.637  0.00  0.00     0.280 HD
ATOM     85  H43 non d ame     -11.194  11.993  62.070  0.00  0.00     0.280 HD
ATOM     86  H44 non d ame      -9.259  11.457  63.551  0.00  0.00     0.129 H 
ATOM     87  H37 non d ame      -9.566  11.951  65.071  0.00  0.00     0.046 H 
BRANCH  83  88
ATOM     88  O6  non d ame      -9.991   9.580  63.600  0.00  0.00    -0.369 OA
ATOM     89  H45 non d ame     -10.719   9.170  63.129  0.00  0.00     0.212 HD
ENDBRANCH  83  88
ENDBRANCH  72  75
ENDBRANCH  47  72
ENDBRANCH  45  47
ENDBRANCH   1  43
BRANCH   1  90
ATOM     90  C16 non d ame     -11.594   8.916  71.883  0.00  0.00    -0.035 C 
ATOM     91  H21 non d ame     -11.496   8.094  72.592  0.00  0.00     0.037 H 
ATOM     92  H22 non d ame     -10.875   9.736  71.897  0.00  0.00     0.037 H 
BRANCH  90  93
ATOM     93  C17 non d ame     -12.997   9.554  72.138  0.00  0.00    -0.059 C 
ATOM     94  H23 non d ame     -13.134   9.631  73.216  0.00  0.00     0.038 H 
BRANCH  93  95
ATOM     95  C18 non d ame     -13.107  10.993  71.540  0.00  0.00    -0.073 C 
ATOM     96  H24 non d ame     -12.212  11.561  71.792  0.00  0.00     0.028 H 
ATOM     97  H25 non d ame     -13.204  10.930  70.456  0.00  0.00     0.028 H 
ATOM     98  H26 non d ame     -13.983  11.493  71.954  0.00  0.00     0.028 H 
ENDBRANCH  93  95
BRANCH  93  99
ATOM     99  C19 non d ame     -14.113   8.654  71.601  0.00  0.00    -0.073 C 
ATOM    100  H27 non d ame     -14.439   9.021  70.627  0.00  0.00     0.028 H 
ATOM    101  H28 non d ame     -13.739   7.635  71.499  0.00  0.00     0.028 H 
ATOM    102  H29 non d ame     -14.953   8.665  72.294  0.00  0.00     0.028 H 
ENDBRANCH  93  99
ENDBRANCH  90  93
ENDBRANCH   1  90
TORSDOF 26
ENDMDL
MODEL 10
REMARK VINA RESULT:      -7.0      2.799     10.533
REMARK  26 active torsions:
REMARK  status: ('A' for Active; 'I' for Inactive)
REMARK    1  A    between atoms: C2_2  and  C3_3 
REMARK    2  A    between atoms: C4_6  and  C5_7 
REMARK       I    between atoms: C5_7  and  N2_9 
REMARK    3  A    between atoms: N2_9  and  C6_10 
REMARK    4  A    between atoms: C6_10  and  C7_11 
REMARK    5  A    between atoms: C6_10  and  C8_13 
REMARK       I    between atoms: C7_11  and  N3_14 
REMARK    6  A    between atoms: N3_14  and  C9_15 
REMARK    7  A    between atoms: C9_15  and  C10_16 
REMARK    8  A    between atoms: C9_15  and  C11_18 
REMARK       I    between atoms: C10_16  and  N4_21 
REMARK    9  A    between atoms: C11_18  and  C12_19 
REMARK   10  A    between atoms: C11_18  and  C13_20 
REMARK   11  A    between atoms: N4_21  and  C14_22 
REMARK   12  A    between atoms: C14_22  and  C15_23 
REMARK   13  A    between atoms: C14_22  and  C16_25 
REMARK       I    between atoms: C15_23  and  N6_40 
REMARK   14  A    between atoms: C16_25  and  C17_26 
REMARK   15  A    between atoms: C17_26  and  C18_27 
REMARK   16  A    between atoms: C17_26  and  C19_28 
REMARK   17  A    between atoms: C20_29  and  C21_30 
REMARK   18  A    between atoms: C20_29  and  C24_33 
REMARK   19  A    between atoms: C20_29  and  N6_40 
REMARK   20  A    between atoms: C21_30  and  C22_31 
REMARK   21  A    between atoms: C22_31  and  C23_32 
REMARK   22  A    between atoms: C23_32  and  O8_43 
REMARK   23  A    between atoms: C24_33  and  C25_34 
REMARK   24  A    between atoms: C28_38  and  O6_39 
REMARK   25  A    between atoms: C29_42  and  O8_43 
REMARK   26  A    between atoms: C29_42  and  C35_49 
ROOT
ATOM      1  C14 non d ame      -7.077  13.101  68.167  0.00  0.00     0.089 C 
ATOM      2  H20 non d ame      -6.365  12.889  67.369  0.00  0.00     0.087 H 
ENDROOT
BRANCH   1   3
ATOM      3  N4  non d ame      -7.257  14.544  68.222  0.00  0.00    -0.346 N 
ATOM      4  C10 non d ame      -6.167  15.467  67.739  0.00  0.00     0.241 C 
ATOM      5  O4  non d ame      -5.151  15.025  67.313  0.00  0.00    -0.271 OA
ATOM      6  H19 non d ame      -8.128  14.901  68.590  0.00  0.00     0.163 HD
BRANCH   4   7
ATOM      7  C9  non d ame      -6.373  16.958  67.798  0.00  0.00     0.092 C 
ATOM      8  H11 non d ame      -6.088  17.397  66.842  0.00  0.00     0.088 H 
BRANCH   7   9
ATOM      9  N3  non d ame      -7.796  17.248  68.000  0.00  0.00    -0.346 N 
ATOM     10  C7  non d ame      -8.607  17.683  66.890  0.00  0.00     0.240 C 
ATOM     11  O3  non d ame      -8.131  17.807  65.828  0.00  0.00    -0.271 OA
ATOM     12  H10 non d ame      -8.220  17.147  68.911  0.00  0.00     0.163 HD
BRANCH  10  13
ATOM     13  C6  non d ame     -10.120  17.993  67.112  0.00  0.00     0.086 C 
ATOM     14  H6  non d ame     -10.760  17.530  66.361  0.00  0.00     0.086 H 
BRANCH  13  15
ATOM     15  N2  non d ame     -10.529  17.451  68.397  0.00  0.00    -0.343 N 
ATOM     16  C5  non d ame     -11.289  16.200  68.444  0.00  0.00     0.273 C 
ATOM     17  O2  non d ame     -11.570  15.639  67.442  0.00  0.00    -0.266 OA
ATOM     18  H5  non d ame     -10.287  17.938  69.249  0.00  0.00     0.163 HD
BRANCH  16  19
ATOM     19  C4  non d ame     -11.726  15.614  69.796  0.00  0.00     0.154 A 
ATOM     20  C1  non d ame     -12.412  14.379  70.022  0.00  0.00    -0.017 A 
ATOM     21  C2  non d ame     -12.576  14.306  71.423  0.00  0.00     0.077 A 
ATOM     22  H1  non d ame     -12.740  13.648  69.283  0.00  0.00     0.091 H 
ATOM     23  O1  non d ame     -12.043  15.377  71.932  0.00  0.00    -0.218 OA
ATOM     24  N1  non d ame     -11.540  16.156  71.003  0.00  0.00    -0.123 NA
BRANCH  21  25
ATOM     25  C3  non d ame     -13.252  13.179  72.194  0.00  0.00    -0.029 C 
ATOM     26  H2  non d ame     -14.220  13.521  72.563  0.00  0.00     0.036 H 
ATOM     27  H3  non d ame     -13.396  12.323  71.535  0.00  0.00     0.036 H 
ATOM     28  H4  non d ame     -12.625  12.887  73.037  0.00  0.00     0.036 H 
ENDBRANCH  21  25
ENDBRANCH  16  19
ENDBRANCH  13  15
BRANCH  13  29
ATOM     29  C8  non d ame     -10.340  19.484  67.087  0.00  0.00    -0.049 C 
ATOM     30  H7  non d ame     -10.519  19.808  66.062  0.00  0.00     0.030 H 
ATOM     31  H8  non d ame     -11.204  19.734  67.703  0.00  0.00     0.030 H 
ATOM     32  H9  non d ame      -9.456  19.987  67.478  0.00  0.00     0.030 H 
ENDBRANCH  13  29
ENDBRANCH  10  13
ENDBRANCH   7   9
BRANCH   7  33
ATOM     33  C11 non d ame      -5.553  17.549  68.982  0.00  0.00    -0.033 C 
ATOM     34  H12 non d ame      -5.408  16.752  69.711  0.00  0.00     0.042 H 
BRANCH  33  35
ATOM     35  C12 non d ame      -4.140  18.020  68.515  0.00  0.00    -0.071 C 
ATOM     36  H13 non d ame      -4.244  18.882  67.856  0.00  0.00     0.028 H 
ATOM     37  H14 non d ame      -3.545  18.298  69.385  0.00  0.00     0.028 H 
ATOM     38  H15 non d ame      -3.646  17.210  67.980  0.00  0.00     0.028 H 
ENDBRANCH  33  35
BRANCH  33  39
ATOM     39  C13 non d ame      -6.334  18.708  69.680  0.00  0.00    -0.071 C 
ATOM     40  H16 non d ame      -6.395  19.563  69.007  0.00  0.00     0.028 H 
ATOM     41  H17 non d ame      -7.341  18.369  69.929  0.00  0.00     0.028 H 
ATOM     42  H18 non d ame      -5.813  18.999  70.592  0.00  0.00     0.028 H 
ENDBRANCH  33  39
ENDBRANCH   7  33
ENDBRANCH   4   7
ENDBRANCH   1   3
BRANCH   1  43
ATOM     43  C15 non d ame      -8.461  12.438  67.912  0.00  0.00     0.240 C 
ATOM     44  O5  non d ame      -9.457  13.028  68.180  0.00  0.00    -0.271 OA
ATOM     45  N6  non d ame      -8.544  11.070  67.326  0.00  0.00    -0.355 N 
ATOM     46  H46 non d ame      -7.705  10.561  67.090  0.00  0.00     0.162 HD
BRANCH  45  47
ATOM     47  C20 non d ame      -9.867  10.454  67.088  0.00  0.00     0.013 C 
ATOM     48  H30 non d ame     -10.623  11.100  67.535  0.00  0.00     0.072 H 
BRANCH  47  49
ATOM     49  C21 non d ame      -9.906   9.088  67.734  0.00  0.00    -0.038 C 
ATOM     50  H31 non d ame      -8.888   8.894  68.074  0.00  0.00     0.036 H 
ATOM     51  H32 non d ame     -10.724   9.126  68.454  0.00  0.00     0.036 H 
BRANCH  49  52
ATOM     52  C22 non d ame     -10.255   7.963  66.736  0.00  0.00     0.018 C 
ATOM     53  H33 non d ame     -11.126   8.317  66.184  0.00  0.00     0.048 H 
ATOM     54  H34 non d ame      -9.328   7.739  66.207  0.00  0.00     0.048 H 
BRANCH  52  55
ATOM     55  C23 non d ame     -10.690   6.635  67.417  0.00  0.00     0.259 C 
ATOM     56  O7  non d ame     -11.231   6.648  68.474  0.00  0.00    -0.265 OA
BRANCH  55  57
ATOM     57  O8  non d ame     -10.421   5.398  66.767  0.00  0.00    -0.317 OA
BRANCH  57  58
ATOM     58  C29 non d ame      -9.050   5.219  66.400  0.00  0.00     0.052 C 
ATOM     59  H47 non d ame      -8.554   6.158  66.646  0.00  0.00     0.082 H 
ATOM     60  H48 non d ame      -8.735   4.294  66.882  0.00  0.00     0.082 H 
BRANCH  58  61
ATOM     61  C35 non d ame      -8.988   5.018  64.862  0.00  0.00    -0.034 A 
ATOM     62  C30 non d ame      -7.982   5.628  64.120  0.00  0.00    -0.075 A 
ATOM     63  C31 non d ame      -7.926   5.448  62.739  0.00  0.00    -0.082 A 
ATOM     64  H49 non d ame      -7.238   6.247  64.621  0.00  0.00     0.084 H 
ATOM     65  C32 non d ame      -8.883   4.655  62.099  0.00  0.00    -0.083 A 
ATOM     66  H50 non d ame      -7.136   5.926  62.160  0.00  0.00     0.083 H 
ATOM     67  C33 non d ame      -9.887   4.051  62.844  0.00  0.00    -0.082 A 
ATOM     68  H51 non d ame      -8.847   4.509  61.020  0.00  0.00     0.083 H 
ATOM     69  C34 non d ame      -9.946   4.227  64.225  0.00  0.00    -0.075 A 
ATOM     70  H52 non d ame     -10.634   3.435  62.342  0.00  0.00     0.083 H 
ATOM     71  H53 non d ame     -10.736   3.748  64.803  0.00  0.00     0.084 H 
ENDBRANCH  58  61
ENDBRANCH  57  58
ENDBRANCH  55  57
ENDBRANCH  52  55
ENDBRANCH  49  52
ENDBRANCH  47  49
BRANCH  47  72
ATOM     72  C24 non d ame     -10.110  10.315  65.586  0.00  0.00    -0.039 C 
ATOM     73  H35 non d ame      -9.189   9.894  65.181  0.00  0.00     0.036 H 
ATOM     74  H36 non d ame     -11.047   9.766  65.493  0.00  0.00     0.036 H 
BRANCH  72  75
ATOM     75  C25 non d ame     -10.326  11.740  64.886  0.00  0.00    -0.001 C 
ATOM     76  C26 non d ame     -11.700  12.441  65.457  0.00  0.00    -0.035 C 
ATOM     77  C27 non d ame     -12.464  12.823  64.405  0.00  0.00     0.085 C 
ATOM     78  H38 non d ame     -12.316  11.699  65.963  0.00  0.00     0.036 H 
ATOM     79  H39 non d ame     -11.461  13.382  65.953  0.00  0.00     0.036 H 
ATOM     80  N5  non d ame     -11.892  12.155  63.178  0.00  0.00    -0.049 N 
ATOM     81  H40 non d ame     -13.456  12.415  64.602  0.00  0.00     0.075 H 
ATOM     82  H41 non d ame     -12.324  13.900  64.320  0.00  0.00     0.075 H 
ATOM     83  C28 non d ame     -10.429  11.620  63.605  0.00  0.00     0.193 C 
ATOM     84  H42 non d ame     -12.482  11.359  62.985  0.00  0.00     0.280 HD
ATOM     85  H43 non d ame     -11.778  12.880  62.484  0.00  0.00     0.280 HD
ATOM     86  H44 non d ame      -9.531  12.148  63.283  0.00  0.00     0.129 H 
ATOM     87  H37 non d ame      -9.420  12.346  64.894  0.00  0.00     0.046 H 
BRANCH  83  88
ATOM     88  O6  non d ame     -10.254  10.269  63.174  0.00  0.00    -0.369 OA
ATOM     89  H45 non d ame     -11.095   9.809  63.212  0.00  0.00     0.212 HD
ENDBRANCH  83  88
ENDBRANCH  72  75
ENDBRANCH  47  72
ENDBRANCH  45  47
ENDBRANCH   1  43
BRANCH   1  90
ATOM     90  C16 non d ame      -6.517  12.621  69.496  0.00  0.00    -0.035 C 
ATOM     91  H21 non d ame      -6.325  13.526  70.073  0.00  0.00     0.037 H 
ATOM     92  H22 non d ame      -7.233  11.884  69.862  0.00  0.00     0.037 H 
BRANCH  90  93
ATOM     93  C17 non d ame      -5.148  11.880  69.369  0.00  0.00    -0.059 C 
ATOM     94  H23 non d ame      -5.114  11.112  70.142  0.00  0.00     0.038 H 
BRANCH  93  95
ATOM     95  C18 non d ame      -4.989  11.171  67.986  0.00  0.00    -0.073 C 
ATOM     96  H24 non d ame      -4.427  10.246  68.115  0.00  0.00     0.028 H 
ATOM     97  H25 non d ame      -5.974  10.944  67.578  0.00  0.00     0.028 H 
ATOM     98  H26 non d ame      -4.454  11.829  67.300  0.00  0.00     0.028 H 
ENDBRANCH  93  95
BRANCH  93  99
ATOM     99  C19 non d ame      -3.982  12.837  69.628  0.00  0.00    -0.073 C 
ATOM    100  H27 non d ame      -3.342  12.427  70.409  0.00  0.00     0.028 H 
ATOM    101  H28 non d ame      -3.404  12.961  68.712  0.00  0.00     0.028 H 
ATOM    102  H29 non d ame      -4.370  13.805  69.945  0.00  0.00     0.028 H 
ENDBRANCH  93  99
ENDBRANCH  90  93
ENDBRANCH   1  90
TORSDOF 26
ENDMDL
MODEL 11
REMARK VINA RESULT:      -7.0      3.474      8.694
REMARK  26 active torsions:
REMARK  status: ('A' for Active; 'I' for Inactive)
REMARK    1  A    between atoms: C2_2  and  C3_3 
REMARK    2  A    between atoms: C4_6  and  C5_7 
REMARK       I    between atoms: C5_7  and  N2_9 
REMARK    3  A    between atoms: N2_9  and  C6_10 
REMARK    4  A    between atoms: C6_10  and  C7_11 
REMARK    5  A    between atoms: C6_10  and  C8_13 
REMARK       I    between atoms: C7_11  and  N3_14 
REMARK    6  A    between atoms: N3_14  and  C9_15 
REMARK    7  A    between atoms: C9_15  and  C10_16 
REMARK    8  A    between atoms: C9_15  and  C11_18 
REMARK       I    between atoms: C10_16  and  N4_21 
REMARK    9  A    between atoms: C11_18  and  C12_19 
REMARK   10  A    between atoms: C11_18  and  C13_20 
REMARK   11  A    between atoms: N4_21  and  C14_22 
REMARK   12  A    between atoms: C14_22  and  C15_23 
REMARK   13  A    between atoms: C14_22  and  C16_25 
REMARK       I    between atoms: C15_23  and  N6_40 
REMARK   14  A    between atoms: C16_25  and  C17_26 
REMARK   15  A    between atoms: C17_26  and  C18_27 
REMARK   16  A    between atoms: C17_26  and  C19_28 
REMARK   17  A    between atoms: C20_29  and  C21_30 
REMARK   18  A    between atoms: C20_29  and  C24_33 
REMARK   19  A    between atoms: C20_29  and  N6_40 
REMARK   20  A    between atoms: C21_30  and  C22_31 
REMARK   21  A    between atoms: C22_31  and  C23_32 
REMARK   22  A    between atoms: C23_32  and  O8_43 
REMARK   23  A    between atoms: C24_33  and  C25_34 
REMARK   24  A    between atoms: C28_38  and  O6_39 
REMARK   25  A    between atoms: C29_42  and  O8_43 
REMARK   26  A    between atoms: C29_42  and  C35_49 
ROOT
ATOM      1  C14 non d ame      -8.165  16.752  66.388  0.00  0.00     0.089 C 
ATOM      2  H20 non d ame      -8.198  17.020  65.331  0.00  0.00     0.087 H 
ENDROOT
BRANCH   1   3
ATOM      3  N4  non d ame      -8.702  15.405  66.515  0.00  0.00    -0.346 N 
ATOM      4  C10 non d ame      -9.931  14.999  65.741  0.00  0.00     0.241 C 
ATOM      5  O4  non d ame     -10.472  15.774  65.024  0.00  0.00    -0.271 OA
ATOM      6  H19 non d ame      -8.228  14.761  67.132  0.00  0.00     0.163 HD
BRANCH   4   7
ATOM      7  C9  non d ame     -10.469  13.599  65.881  0.00  0.00     0.092 C 
ATOM      8  H11 non d ame      -9.666  12.937  66.204  0.00  0.00     0.088 H 
BRANCH   7   9
ATOM      9  N3  non d ame     -11.499  13.573  66.924  0.00  0.00    -0.346 N 
ATOM     10  C7  non d ame     -11.128  13.751  68.307  0.00  0.00     0.240 C 
ATOM     11  O3  non d ame     -10.006  13.915  68.597  0.00  0.00    -0.271 OA
ATOM     12  H10 non d ame     -12.471  13.431  66.689  0.00  0.00     0.163 HD
BRANCH  10  13
ATOM     13  C6  non d ame     -12.228  13.719  69.413  0.00  0.00     0.086 C 
ATOM     14  H6  non d ame     -13.225  13.539  69.011  0.00  0.00     0.086 H 
BRANCH  13  15
ATOM     15  N2  non d ame     -11.945  12.626  70.328  0.00  0.00    -0.343 N 
ATOM     16  C5  non d ame     -12.045  11.244  69.854  0.00  0.00     0.273 C 
ATOM     17  O2  non d ame     -12.357  11.022  68.735  0.00  0.00    -0.266 OA
ATOM     18  H5  non d ame     -11.681  12.825  71.283  0.00  0.00     0.163 HD
BRANCH  16  19
ATOM     19  C4  non d ame     -11.747  10.079  70.810  0.00  0.00     0.154 A 
ATOM     20  C1  non d ame     -10.511   9.370  70.951  0.00  0.00    -0.017 A 
ATOM     21  C2  non d ame     -10.759   8.404  71.951  0.00  0.00     0.077 A 
ATOM     22  H1  non d ame      -9.579   9.533  70.410  0.00  0.00     0.091 H 
ATOM     23  O1  non d ame     -11.993   8.549  72.333  0.00  0.00    -0.218 OA
ATOM     24  N1  non d ame     -12.591   9.520  71.682  0.00  0.00    -0.123 NA
BRANCH  21  25
ATOM     25  C3  non d ame      -9.763   7.381  72.483  0.00  0.00    -0.029 C 
ATOM     26  H2  non d ame     -10.100   7.016  73.453  0.00  0.00     0.036 H 
ATOM     27  H3  non d ame      -9.691   6.547  71.785  0.00  0.00     0.036 H 
ATOM     28  H4  non d ame      -8.784   7.849  72.591  0.00  0.00     0.036 H 
ENDBRANCH  21  25
ENDBRANCH  16  19
ENDBRANCH  13  15
BRANCH  13  29
ATOM     29  C8  non d ame     -12.232  15.029  70.159  0.00  0.00    -0.049 C 
ATOM     30  H7  non d ame     -11.402  15.048  70.865  0.00  0.00     0.030 H 
ATOM     31  H8  non d ame     -12.126  15.851  69.451  0.00  0.00     0.030 H 
ATOM     32  H9  non d ame     -13.172  15.135  70.701  0.00  0.00     0.030 H 
ENDBRANCH  13  29
ENDBRANCH  10  13
ENDBRANCH   7   9
BRANCH   7  33
ATOM     33  C11 non d ame     -11.094  13.147  64.528  0.00  0.00    -0.033 C 
ATOM     34  H12 non d ame     -11.204  14.034  63.904  0.00  0.00     0.042 H 
BRANCH  33  35
ATOM     35  C12 non d ame     -10.155  12.155  63.772  0.00  0.00    -0.071 C 
ATOM     36  H13 non d ame      -9.350  11.840  64.436  0.00  0.00     0.028 H 
ATOM     37  H14 non d ame     -10.727  11.283  63.457  0.00  0.00     0.028 H 
ATOM     38  H15 non d ame      -9.734  12.650  62.898  0.00  0.00     0.028 H 
ENDBRANCH  33  35
BRANCH  33  39
ATOM     39  C13 non d ame     -12.512  12.529  64.746  0.00  0.00    -0.071 C 
ATOM     40  H16 non d ame     -13.074  12.570  63.813  0.00  0.00     0.028 H 
ATOM     41  H17 non d ame     -12.412  11.491  65.064  0.00  0.00     0.028 H 
ATOM     42  H18 non d ame     -13.040  13.095  65.514  0.00  0.00     0.028 H 
ENDBRANCH  33  39
ENDBRANCH   7  33
ENDBRANCH   4   7
ENDBRANCH   1   3
BRANCH   1  43
ATOM     43  C15 non d ame      -6.715  16.763  66.952  0.00  0.00     0.240 C 
ATOM     44  O5  non d ame      -5.794  16.887  66.211  0.00  0.00    -0.271 OA
ATOM     45  N6  non d ame      -6.476  16.627  68.417  0.00  0.00    -0.355 N 
ATOM     46  H46 non d ame      -7.251  16.525  69.056  0.00  0.00     0.162 HD
BRANCH  45  47
ATOM     47  C20 non d ame      -5.092  16.640  68.937  0.00  0.00     0.013 C 
ATOM     48  H30 non d ame      -4.434  16.971  68.134  0.00  0.00     0.072 H 
BRANCH  47  49
ATOM     49  C21 non d ame      -4.710  15.245  69.377  0.00  0.00    -0.038 C 
ATOM     50  H31 non d ame      -4.358  14.739  68.477  0.00  0.00     0.036 H 
ATOM     51  H32 non d ame      -4.039  15.377  70.226  0.00  0.00     0.036 H 
BRANCH  49  52
ATOM     52  C22 non d ame      -5.914  14.429  69.895  0.00  0.00     0.018 C 
ATOM     53  H33 non d ame      -5.767  14.337  70.971  0.00  0.00     0.048 H 
ATOM     54  H34 non d ame      -6.800  14.931  69.507  0.00  0.00     0.048 H 
BRANCH  52  55
ATOM     55  C23 non d ame      -5.969  12.977  69.345  0.00  0.00     0.259 C 
ATOM     56  O7  non d ame      -5.133  12.187  69.641  0.00  0.00    -0.265 OA
BRANCH  55  57
ATOM     57  O8  non d ame      -7.027  12.603  68.469  0.00  0.00    -0.317 OA
BRANCH  57  58
ATOM     58  C29 non d ame      -6.586  12.112  67.200  0.00  0.00     0.052 C 
ATOM     59  H47 non d ame      -6.630  12.964  66.523  0.00  0.00     0.082 H 
ATOM     60  H48 non d ame      -5.635  11.615  67.390  0.00  0.00     0.082 H 
BRANCH  58  61
ATOM     61  C35 non d ame      -7.608  11.048  66.718  0.00  0.00    -0.034 A 
ATOM     62  C30 non d ame      -8.795  10.855  67.417  0.00  0.00    -0.075 A 
ATOM     63  C31 non d ame      -9.713   9.899  66.984  0.00  0.00    -0.082 A 
ATOM     64  H49 non d ame      -9.006  11.452  68.304  0.00  0.00     0.084 H 
ATOM     65  C32 non d ame      -9.438   9.132  65.848  0.00  0.00    -0.083 A 
ATOM     66  H50 non d ame     -10.643   9.752  67.532  0.00  0.00     0.083 H 
ATOM     67  C33 non d ame      -8.251   9.326  65.155  0.00  0.00    -0.082 A 
ATOM     68  H51 non d ame     -10.151   8.384  65.502  0.00  0.00     0.083 H 
ATOM     69  C34 non d ame      -7.332  10.282  65.583  0.00  0.00    -0.075 A 
ATOM     70  H52 non d ame      -8.039   8.725  64.271  0.00  0.00     0.083 H 
ATOM     71  H53 non d ame      -6.402  10.429  65.034  0.00  0.00     0.084 H 
ENDBRANCH  58  61
ENDBRANCH  57  58
ENDBRANCH  55  57
ENDBRANCH  52  55
ENDBRANCH  49  52
ENDBRANCH  47  49
BRANCH  47  72
ATOM     72  C24 non d ame      -4.997  17.593  70.127  0.00  0.00    -0.039 C 
ATOM     73  H35 non d ame      -5.444  17.058  70.965  0.00  0.00     0.036 H 
ATOM     74  H36 non d ame      -3.951  17.898  70.172  0.00  0.00     0.036 H 
BRANCH  72  75
ATOM     75  C25 non d ame      -5.866  18.919  69.895  0.00  0.00    -0.001 C 
ATOM     76  C26 non d ame      -5.209  19.814  68.682  0.00  0.00    -0.035 C 
ATOM     77  C27 non d ame      -5.048  21.087  69.118  0.00  0.00     0.085 C 
ATOM     78  H38 non d ame      -4.191  19.482  68.482  0.00  0.00     0.036 H 
ATOM     79  H39 non d ame      -5.922  19.914  67.863  0.00  0.00     0.036 H 
ATOM     80  N5  non d ame      -5.229  21.067  70.616  0.00  0.00    -0.049 N 
ATOM     81  H40 non d ame      -4.013  21.345  68.888  0.00  0.00     0.075 H 
ATOM     82  H41 non d ame      -5.863  21.654  68.669  0.00  0.00     0.075 H 
ATOM     83  C28 non d ame      -5.907  19.644  70.963  0.00  0.00     0.193 C 
ATOM     84  H42 non d ame      -4.302  21.087  71.017  0.00  0.00     0.280 HD
ATOM     85  H43 non d ame      -5.889  21.799  70.835  0.00  0.00     0.280 HD
ATOM     86  H44 non d ame      -6.968  19.580  71.205  0.00  0.00     0.129 H 
ATOM     87  H37 non d ame      -6.934  18.707  69.833  0.00  0.00     0.046 H 
BRANCH  83  88
ATOM     88  O6  non d ame      -5.228  19.028  72.059  0.00  0.00    -0.369 OA
ATOM     89  H45 non d ame      -5.500  19.445  72.879  0.00  0.00     0.212 HD
ENDBRANCH  83  88
ENDBRANCH  72  75
ENDBRANCH  47  72
ENDBRANCH  45  47
ENDBRANCH   1  43
BRANCH   1  90
ATOM     90  C16 non d ame      -9.032  17.710  67.189  0.00  0.00    -0.035 C 
ATOM     91  H21 non d ame     -10.044  17.308  67.121  0.00  0.00     0.037 H 
ATOM     92  H22 non d ame      -8.545  17.797  68.160  0.00  0.00     0.037 H 
BRANCH  90  93
ATOM     93  C17 non d ame      -9.089  19.152  66.592  0.00  0.00    -0.059 C 
ATOM     94  H23 non d ame      -8.343  19.212  65.800  0.00  0.00     0.038 H 
BRANCH  93  95
ATOM     95  C18 non d ame     -10.481  19.473  65.959  0.00  0.00    -0.073 C 
ATOM     96  H24 non d ame     -11.269  19.222  66.669  0.00  0.00     0.028 H 
ATOM     97  H25 non d ame     -10.534  20.535  65.718  0.00  0.00     0.028 H 
ATOM     98  H26 non d ame     -10.611  18.887  65.049  0.00  0.00     0.028 H 
ENDBRANCH  93  95
BRANCH  93  99
ATOM     99  C19 non d ame      -8.717  20.196  67.648  0.00  0.00    -0.073 C 
ATOM    100  H27 non d ame      -7.906  19.813  68.268  0.00  0.00     0.028 H 
ATOM    101  H28 non d ame      -8.396  21.113  67.154  0.00  0.00     0.028 H 
ATOM    102  H29 non d ame      -9.585  20.405  68.274  0.00  0.00     0.028 H 
ENDBRANCH  93  99
ENDBRANCH  90  93
ENDBRANCH   1  90
TORSDOF 26
ENDMDL
MODEL 12
REMARK VINA RESULT:      -7.0      2.308      4.860
REMARK  26 active torsions:
REMARK  status: ('A' for Active; 'I' for Inactive)
REMARK    1  A    between atoms: C2_2  and  C3_3 
REMARK    2  A    between atoms: C4_6  and  C5_7 
REMARK       I    between atoms: C5_7  and  N2_9 
REMARK    3  A    between atoms: N2_9  and  C6_10 
REMARK    4  A    between atoms: C6_10  and  C7_11 
REMARK    5  A    between atoms: C6_10  and  C8_13 
REMARK       I    between atoms: C7_11  and  N3_14 
REMARK    6  A    between atoms: N3_14  and  C9_15 
REMARK    7  A    between atoms: C9_15  and  C10_16 
REMARK    8  A    between atoms: C9_15  and  C11_18 
REMARK       I    between atoms: C10_16  and  N4_21 
REMARK    9  A    between atoms: C11_18  and  C12_19 
REMARK   10  A    between atoms: C11_18  and  C13_20 
REMARK   11  A    between atoms: N4_21  and  C14_22 
REMARK   12  A    between atoms: C14_22  and  C15_23 
REMARK   13  A    between atoms: C14_22  and  C16_25 
REMARK       I    between atoms: C15_23  and  N6_40 
REMARK   14  A    between atoms: C16_25  and  C17_26 
REMARK   15  A    between atoms: C17_26  and  C18_27 
REMARK   16  A    between atoms: C17_26  and  C19_28 
REMARK   17  A    between atoms: C20_29  and  C21_30 
REMARK   18  A    between atoms: C20_29  and  C24_33 
REMARK   19  A    between atoms: C20_29  and  N6_40 
REMARK   20  A    between atoms: C21_30  and  C22_31 
REMARK   21  A    between atoms: C22_31  and  C23_32 
REMARK   22  A    between atoms: C23_32  and  O8_43 
REMARK   23  A    between atoms: C24_33  and  C25_34 
REMARK   24  A    between atoms: C28_38  and  O6_39 
REMARK   25  A    between atoms: C29_42  and  O8_43 
REMARK   26  A    between atoms: C29_42  and  C35_49 
ROOT
ATOM      1  C14 non d ame     -10.201  10.425  67.110  0.00  0.00     0.089 C 
ATOM      2  H20 non d ame      -9.165  10.481  67.447  0.00  0.00     0.087 H 
ENDROOT
BRANCH   1   3
ATOM      3  N4  non d ame     -10.872   9.420  67.922  0.00  0.00    -0.346 N 
ATOM      4  C10 non d ame     -10.727   9.432  69.422  0.00  0.00     0.241 C 
ATOM      5  O4  non d ame     -10.062  10.258  69.955  0.00  0.00    -0.271 OA
ATOM      6  H19 non d ame     -11.431   8.724  67.449  0.00  0.00     0.163 HD
BRANCH   4   7
ATOM      7  C9  non d ame     -11.433   8.388  70.247  0.00  0.00     0.092 C 
ATOM      8  H11 non d ame     -12.379   8.132  69.768  0.00  0.00     0.088 H 
BRANCH   7   9
ATOM      9  N3  non d ame     -10.624   7.166  70.287  0.00  0.00    -0.346 N 
ATOM     10  C7  non d ame     -10.788   6.159  69.268  0.00  0.00     0.240 C 
ATOM     11  O3  non d ame     -11.568   6.314  68.409  0.00  0.00    -0.271 OA
ATOM     12  H10 non d ame      -9.948   7.017  71.023  0.00  0.00     0.163 HD
BRANCH  10  13
ATOM     13  C6  non d ame      -9.926   4.859  69.318  0.00  0.00     0.086 C 
ATOM     14  H6  non d ame     -10.436   3.998  68.887  0.00  0.00     0.086 H 
BRANCH  13  15
ATOM     15  N2  non d ame      -8.719   5.064  68.534  0.00  0.00    -0.343 N 
ATOM     16  C5  non d ame      -8.675   4.601  67.145  0.00  0.00     0.273 C 
ATOM     17  O2  non d ame      -9.613   4.063  66.669  0.00  0.00    -0.266 OA
ATOM     18  H5  non d ame      -7.921   5.522  68.950  0.00  0.00     0.163 HD
BRANCH  16  19
ATOM     19  C4  non d ame      -7.406   4.812  66.304  0.00  0.00     0.154 A 
ATOM     20  C1  non d ame      -7.266   5.637  65.143  0.00  0.00    -0.017 A 
ATOM     21  C2  non d ame      -5.917   5.485  64.750  0.00  0.00     0.077 A 
ATOM     22  H1  non d ame      -8.026   6.251  64.660  0.00  0.00     0.091 H 
ATOM     23  O1  non d ame      -5.357   4.668  65.594  0.00  0.00    -0.218 OA
ATOM     24  N1  non d ame      -6.206   4.262  66.510  0.00  0.00    -0.123 NA
BRANCH  21  25
ATOM     25  C3  non d ame      -5.244   6.155  63.560  0.00  0.00    -0.029 C 
ATOM     26  H2  non d ame      -4.215   6.406  63.818  0.00  0.00     0.036 H 
ATOM     27  H3  non d ame      -5.249   5.474  62.709  0.00  0.00     0.036 H 
ATOM     28  H4  non d ame      -5.786   7.065  63.300  0.00  0.00     0.036 H 
ENDBRANCH  21  25
ENDBRANCH  16  19
ENDBRANCH  13  15
BRANCH  13  29
ATOM     29  C8  non d ame      -9.566   4.547  70.748  0.00  0.00    -0.049 C 
ATOM     30  H7  non d ame      -8.838   5.274  71.107  0.00  0.00     0.030 H 
ATOM     31  H8  non d ame     -10.462   4.593  71.367  0.00  0.00     0.030 H 
ATOM     32  H9  non d ame      -9.136   3.547  70.804  0.00  0.00     0.030 H 
ENDBRANCH  13  29
ENDBRANCH  10  13
ENDBRANCH   7   9
BRANCH   7  33
ATOM     33  C11 non d ame     -11.636   8.921  71.696  0.00  0.00    -0.033 C 
ATOM     34  H12 non d ame     -10.990   9.790  71.819  0.00  0.00     0.042 H 
BRANCH  33  35
ATOM     35  C12 non d ame     -13.105   9.390  71.928  0.00  0.00    -0.071 C 
ATOM     36  H13 non d ame     -13.126  10.141  72.719  0.00  0.00     0.028 H 
ATOM     37  H14 non d ame     -13.498   9.823  71.008  0.00  0.00     0.028 H 
ATOM     38  H15 non d ame     -13.717   8.537  72.220  0.00  0.00     0.028 H 
ENDBRANCH  33  35
BRANCH  33  39
ATOM     39  C13 non d ame     -11.210   7.849  72.750  0.00  0.00    -0.071 C 
ATOM     40  H16 non d ame     -12.008   7.721  73.481  0.00  0.00     0.028 H 
ATOM     41  H17 non d ame     -11.021   6.900  72.248  0.00  0.00     0.028 H 
ATOM     42  H18 non d ame     -10.303   8.179  73.257  0.00  0.00     0.028 H 
ENDBRANCH  33  39
ENDBRANCH   7  33
ENDBRANCH   4   7
ENDBRANCH   1   3
BRANCH   1  43
ATOM     43  C15 non d ame     -10.948  11.779  67.280  0.00  0.00     0.240 C 
ATOM     44  O5  non d ame     -11.985  11.955  66.727  0.00  0.00    -0.271 OA
ATOM     45  N6  non d ame     -10.374  12.853  68.140  0.00  0.00    -0.355 N 
ATOM     46  H46 non d ame      -9.496  12.713  68.619  0.00  0.00     0.162 HD
BRANCH  45  47
ATOM     47  C20 non d ame     -11.097  14.134  68.293  0.00  0.00     0.013 C 
ATOM     48  H30 non d ame     -12.112  13.992  67.923  0.00  0.00     0.072 H 
BRANCH  47  49
ATOM     49  C21 non d ame     -10.397  15.202  67.484  0.00  0.00    -0.038 C 
ATOM     50  H31 non d ame      -9.344  15.137  67.758  0.00  0.00     0.036 H 
ATOM     51  H32 non d ame     -10.703  15.037  66.451  0.00  0.00     0.036 H 
BRANCH  49  52
ATOM     52  C22 non d ame     -10.856  16.630  67.852  0.00  0.00     0.018 C 
ATOM     53  H33 non d ame     -11.945  16.608  67.816  0.00  0.00     0.048 H 
ATOM     54  H34 non d ame     -10.346  16.873  68.784  0.00  0.00     0.048 H 
BRANCH  52  55
ATOM     55  C23 non d ame     -10.415  17.713  66.828  0.00  0.00     0.259 C 
ATOM     56  O7  non d ame     -10.469  17.497  65.661  0.00  0.00    -0.265 OA
BRANCH  55  57
ATOM     57  O8  non d ame      -9.933  18.964  67.302  0.00  0.00    -0.317 OA
BRANCH  57  58
ATOM     58  C29 non d ame      -8.889  19.527  66.501  0.00  0.00     0.052 C 
ATOM     59  H47 non d ame      -8.558  18.724  65.843  0.00  0.00     0.082 H 
ATOM     60  H48 non d ame      -9.302  20.443  66.079  0.00  0.00     0.082 H 
BRANCH  58  61
ATOM     61  C35 non d ame      -7.716  19.907  67.443  0.00  0.00    -0.034 A 
ATOM     62  C30 non d ame      -6.746  20.810  67.019  0.00  0.00    -0.075 A 
ATOM     63  C31 non d ame      -5.692  21.151  67.864  0.00  0.00    -0.082 A 
ATOM     64  H49 non d ame      -6.813  21.250  66.024  0.00  0.00     0.084 H 
ATOM     65  C32 non d ame      -5.607  20.583  69.138  0.00  0.00    -0.083 A 
ATOM     66  H50 non d ame      -4.935  21.861  67.530  0.00  0.00     0.083 H 
ATOM     67  C33 non d ame      -6.575  19.680  69.556  0.00  0.00    -0.082 A 
ATOM     68  H51 non d ame      -4.786  20.845  69.806  0.00  0.00     0.083 H 
ATOM     69  C34 non d ame      -7.632  19.338  68.715  0.00  0.00    -0.075 A 
ATOM     70  H52 non d ame      -6.505  19.237  70.550  0.00  0.00     0.083 H 
ATOM     71  H53 non d ame      -8.389  18.628  69.051  0.00  0.00     0.084 H 
ENDBRANCH  58  61
ENDBRANCH  57  58
ENDBRANCH  55  57
ENDBRANCH  52  55
ENDBRANCH  49  52
ENDBRANCH  47  49
BRANCH  47  72
ATOM     72  C24 non d ame     -11.120  14.542  69.764  0.00  0.00    -0.039 C 
ATOM     73  H35 non d ame     -10.618  13.734  70.297  0.00  0.00     0.036 H 
ATOM     74  H36 non d ame     -10.709  15.551  69.792  0.00  0.00     0.036 H 
BRANCH  72  75
ATOM     75  C25 non d ame     -12.616  14.625  70.333  0.00  0.00    -0.001 C 
ATOM     76  C26 non d ame     -12.711  15.789  71.490  0.00  0.00    -0.035 C 
ATOM     77  C27 non d ame     -13.287  15.259  72.596  0.00  0.00     0.085 C 
ATOM     78  H38 non d ame     -11.712  16.062  71.829  0.00  0.00     0.036 H 
ATOM     79  H39 non d ame     -13.413  16.565  71.184  0.00  0.00     0.036 H 
ATOM     80  N5  non d ame     -13.295  13.761  72.414  0.00  0.00    -0.049 N 
ATOM     81  H40 non d ame     -12.622  15.514  73.422  0.00  0.00     0.075 H 
ATOM     82  H41 non d ame     -14.314  15.623  72.591  0.00  0.00     0.075 H 
ATOM     83  C28 non d ame     -12.982  13.501  70.852  0.00  0.00     0.193 C 
ATOM     84  H42 non d ame     -12.525  13.402  72.960  0.00  0.00     0.280 HD
ATOM     85  H43 non d ame     -14.237  13.454  72.608  0.00  0.00     0.280 HD
ATOM     86  H44 non d ame     -13.782  13.218  70.167  0.00  0.00     0.129 H 
ATOM     87  H37 non d ame     -13.359  14.657  69.536  0.00  0.00     0.046 H 
BRANCH  83  88
ATOM     88  O6  non d ame     -11.982  12.491  70.710  0.00  0.00    -0.369 OA
ATOM     89  H45 non d ame     -12.391  11.675  70.412  0.00  0.00     0.212 HD
ENDBRANCH  83  88
ENDBRANCH  72  75
ENDBRANCH  47  72
ENDBRANCH  45  47
ENDBRANCH   1  43
BRANCH   1  90
ATOM     90  C16 non d ame     -10.245   9.996  65.652  0.00  0.00    -0.035 C 
ATOM     91  H21 non d ame      -9.818   8.993  65.633  0.00  0.00     0.037 H 
ATOM     92  H22 non d ame     -11.276  10.155  65.336  0.00  0.00     0.037 H 
BRANCH  90  93
ATOM     93  C17 non d ame      -9.356  10.872  64.714  0.00  0.00    -0.059 C 
ATOM     94  H23 non d ame      -8.968  11.702  65.305  0.00  0.00     0.038 H 
BRANCH  93  95
ATOM     95  C18 non d ame      -8.134  10.078  64.150  0.00  0.00    -0.073 C 
ATOM     96  H24 non d ame      -7.312  10.767  63.957  0.00  0.00     0.028 H 
ATOM     97  H25 non d ame      -7.819   9.331  64.878  0.00  0.00     0.028 H 
ATOM     98  H26 non d ame      -8.420   9.583  63.222  0.00  0.00     0.028 H 
ENDBRANCH  93  95
BRANCH  93  99
ATOM     99  C19 non d ame     -10.187  11.473  63.577  0.00  0.00    -0.073 C 
ATOM    100  H27 non d ame     -10.620  12.419  63.904  0.00  0.00     0.028 H 
ATOM    101  H28 non d ame      -9.546  11.646  62.712  0.00  0.00     0.028 H 
ATOM    102  H29 non d ame     -10.984  10.782  63.306  0.00  0.00     0.028 H 
ENDBRANCH  93  99
ENDBRANCH  90  93
ENDBRANCH   1  90
TORSDOF 26
ENDMDL
MODEL 13
REMARK VINA RESULT:      -7.0      3.790      8.649
REMARK  26 active torsions:
REMARK  status: ('A' for Active; 'I' for Inactive)
REMARK    1  A    between atoms: C2_2  and  C3_3 
REMARK    2  A    between atoms: C4_6  and  C5_7 
REMARK       I    between atoms: C5_7  and  N2_9 
REMARK    3  A    between atoms: N2_9  and  C6_10 
REMARK    4  A    between atoms: C6_10  and  C7_11 
REMARK    5  A    between atoms: C6_10  and  C8_13 
REMARK       I    between atoms: C7_11  and  N3_14 
REMARK    6  A    between atoms: N3_14  and  C9_15 
REMARK    7  A    between atoms: C9_15  and  C10_16 
REMARK    8  A    between atoms: C9_15  and  C11_18 
REMARK       I    between atoms: C10_16  and  N4_21 
REMARK    9  A    between atoms: C11_18  and  C12_19 
REMARK   10  A    between atoms: C11_18  and  C13_20 
REMARK   11  A    between atoms: N4_21  and  C14_22 
REMARK   12  A    between atoms: C14_22  and  C15_23 
REMARK   13  A    between atoms: C14_22  and  C16_25 
REMARK       I    between atoms: C15_23  and  N6_40 
REMARK   14  A    between atoms: C16_25  and  C17_26 
REMARK   15  A    between atoms: C17_26  and  C18_27 
REMARK   16  A    between atoms: C17_26  and  C19_28 
REMARK   17  A    between atoms: C20_29  and  C21_30 
REMARK   18  A    between atoms: C20_29  and  C24_33 
REMARK   19  A    between atoms: C20_29  and  N6_40 
REMARK   20  A    between atoms: C21_30  and  C22_31 
REMARK   21  A    between atoms: C22_31  and  C23_32 
REMARK   22  A    between atoms: C23_32  and  O8_43 
REMARK   23  A    between atoms: C24_33  and  C25_34 
REMARK   24  A    between atoms: C28_38  and  O6_39 
REMARK   25  A    between atoms: C29_42  and  O8_43 
REMARK   26  A    between atoms: C29_42  and  C35_49 
ROOT
ATOM      1  C14 non d ame      -6.300  11.286  69.024  0.00  0.00     0.089 C 
ATOM      2  H20 non d ame      -5.506  11.077  68.305  0.00  0.00     0.087 H 
ENDROOT
BRANCH   1   3
ATOM      3  N4  non d ame      -6.383  12.731  69.178  0.00  0.00    -0.346 N 
ATOM      4  C10 non d ame      -5.393  13.629  68.480  0.00  0.00     0.241 C 
ATOM      5  O4  non d ame      -4.536  13.166  67.801  0.00  0.00    -0.271 OA
ATOM      6  H19 non d ame      -7.118  13.105  69.761  0.00  0.00     0.163 HD
BRANCH   4   7
ATOM      7  C9  non d ame      -5.498  15.122  68.645  0.00  0.00     0.092 C 
ATOM      8  H11 non d ame      -4.787  15.608  67.976  0.00  0.00     0.088 H 
BRANCH   7   9
ATOM      9  N3  non d ame      -6.838  15.566  68.249  0.00  0.00    -0.346 N 
ATOM     10  C7  non d ame      -6.995  16.500  67.162  0.00  0.00     0.240 C 
ATOM     11  O3  non d ame      -6.055  16.906  66.595  0.00  0.00    -0.271 OA
ATOM     12  H10 non d ame      -7.658  15.226  68.730  0.00  0.00     0.163 HD
BRANCH  10  13
ATOM     13  C6  non d ame      -8.424  16.971  66.747  0.00  0.00     0.086 C 
ATOM     14  H6  non d ame      -8.418  17.607  65.862  0.00  0.00     0.086 H 
BRANCH  13  15
ATOM     15  N2  non d ame      -9.227  15.805  66.416  0.00  0.00    -0.343 N 
ATOM     16  C5  non d ame     -10.377  15.952  65.521  0.00  0.00     0.273 C 
ATOM     17  O2  non d ame     -10.649  17.012  65.075  0.00  0.00    -0.266 OA
ATOM     18  H5  non d ame      -8.988  14.903  66.803  0.00  0.00     0.163 HD
BRANCH  16  19
ATOM     19  C4  non d ame     -11.233  14.728  65.161  0.00  0.00     0.154 A 
ATOM     20  C1  non d ame     -10.865  13.634  64.315  0.00  0.00    -0.017 A 
ATOM     21  C2  non d ame     -11.993  12.782  64.311  0.00  0.00     0.077 A 
ATOM     22  H1  non d ame      -9.925  13.481  63.785  0.00  0.00     0.091 H 
ATOM     23  O1  non d ame     -12.896  13.332  65.070  0.00  0.00    -0.218 OA
ATOM     24  N1  non d ame     -12.476  14.468  65.576  0.00  0.00    -0.123 NA
BRANCH  21  25
ATOM     25  C3  non d ame     -12.125  11.465  63.558  0.00  0.00    -0.029 C 
ATOM     26  H2  non d ame     -11.309  10.801  63.841  0.00  0.00     0.036 H 
ATOM     27  H3  non d ame     -13.078  10.998  63.809  0.00  0.00     0.036 H 
ATOM     28  H4  non d ame     -12.085  11.654  62.485  0.00  0.00     0.036 H 
ENDBRANCH  21  25
ENDBRANCH  16  19
ENDBRANCH  13  15
BRANCH  13  29
ATOM     29  C8  non d ame      -9.058  17.727  67.887  0.00  0.00    -0.049 C 
ATOM     30  H7  non d ame      -9.916  18.288  67.518  0.00  0.00     0.030 H 
ATOM     31  H8  non d ame      -9.385  17.023  68.652  0.00  0.00     0.030 H 
ATOM     32  H9  non d ame      -8.330  18.417  68.314  0.00  0.00     0.030 H 
ENDBRANCH  13  29
ENDBRANCH  10  13
ENDBRANCH   7   9
BRANCH   7  33
ATOM     33  C11 non d ame      -5.249  15.497  70.136  0.00  0.00    -0.033 C 
ATOM     34  H12 non d ame      -6.045  15.043  70.726  0.00  0.00     0.042 H 
BRANCH  33  35
ATOM     35  C12 non d ame      -3.894  14.919  70.649  0.00  0.00    -0.071 C 
ATOM     36  H13 non d ame      -3.195  15.736  70.830  0.00  0.00     0.028 H 
ATOM     37  H14 non d ame      -4.061  14.373  71.578  0.00  0.00     0.028 H 
ATOM     38  H15 non d ame      -3.480  14.245  69.900  0.00  0.00     0.028 H 
ENDBRANCH  33  35
BRANCH  33  39
ATOM     39  C13 non d ame      -5.319  17.045  70.342  0.00  0.00    -0.071 C 
ATOM     40  H16 non d ame      -6.230  17.431  69.887  0.00  0.00     0.028 H 
ATOM     41  H17 non d ame      -5.322  17.269  71.409  0.00  0.00     0.028 H 
ATOM     42  H18 non d ame      -4.452  17.512  69.875  0.00  0.00     0.028 H 
ENDBRANCH  33  39
ENDBRANCH   7  33
ENDBRANCH   4   7
ENDBRANCH   1   3
BRANCH   1  43
ATOM     43  C15 non d ame      -7.682  10.758  68.543  0.00  0.00     0.240 C 
ATOM     44  O5  non d ame      -7.870  10.564  67.386  0.00  0.00    -0.271 OA
ATOM     45  N6  non d ame      -8.768  10.487  69.527  0.00  0.00    -0.355 N 
ATOM     46  H46 non d ame      -8.619  10.644  70.513  0.00  0.00     0.162 HD
BRANCH  45  47
ATOM     47  C20 non d ame     -10.076   9.985  69.053  0.00  0.00     0.013 C 
ATOM     48  H30 non d ame      -9.978   9.737  67.996  0.00  0.00     0.072 H 
BRANCH  47  49
ATOM     49  C21 non d ame     -11.122  11.062  69.237  0.00  0.00    -0.038 C 
ATOM     50  H31 non d ame     -12.083  10.547  69.211  0.00  0.00     0.036 H 
ATOM     51  H32 non d ame     -10.822  11.613  70.128  0.00  0.00     0.036 H 
BRANCH  49  52
ATOM     52  C22 non d ame     -11.141  12.082  68.078  0.00  0.00     0.018 C 
ATOM     53  H33 non d ame     -10.559  11.628  67.275  0.00  0.00     0.048 H 
ATOM     54  H34 non d ame     -12.191  12.328  67.918  0.00  0.00     0.048 H 
BRANCH  52  55
ATOM     55  C23 non d ame     -10.433  13.424  68.413  0.00  0.00     0.259 C 
ATOM     56  O7  non d ame      -9.247  13.495  68.422  0.00  0.00    -0.265 OA
BRANCH  55  57
ATOM     57  O8  non d ame     -11.220  14.568  68.724  0.00  0.00    -0.317 OA
BRANCH  57  58
ATOM     58  C29 non d ame     -10.731  15.327  69.833  0.00  0.00     0.052 C 
ATOM     59  H47 non d ame      -9.778  14.872  70.105  0.00  0.00     0.082 H 
ATOM     60  H48 non d ame     -10.765  16.369  69.516  0.00  0.00     0.082 H 
BRANCH  58  61
ATOM     61  C35 non d ame     -11.719  15.141  71.015  0.00  0.00    -0.034 A 
ATOM     62  C30 non d ame     -11.756  16.073  72.046  0.00  0.00    -0.075 A 
ATOM     63  C31 non d ame     -12.644  15.906  73.108  0.00  0.00    -0.082 A 
ATOM     64  H49 non d ame     -11.090  16.935  72.023  0.00  0.00     0.084 H 
ATOM     65  C32 non d ame     -13.496  14.798  73.137  0.00  0.00    -0.083 A 
ATOM     66  H50 non d ame     -12.672  16.639  73.914  0.00  0.00     0.083 H 
ATOM     67  C33 non d ame     -13.454  13.869  72.107  0.00  0.00    -0.082 A 
ATOM     68  H51 non d ame     -14.194  14.660  73.963  0.00  0.00     0.083 H 
ATOM     69  C34 non d ame     -12.569  14.033  71.043  0.00  0.00    -0.075 A 
ATOM     70  H52 non d ame     -14.118  13.004  72.133  0.00  0.00     0.083 H 
ATOM     71  H53 non d ame     -12.542  13.299  70.237  0.00  0.00     0.084 H 
ENDBRANCH  58  61
ENDBRANCH  57  58
ENDBRANCH  55  57
ENDBRANCH  52  55
ENDBRANCH  49  52
ENDBRANCH  47  49
BRANCH  47  72
ATOM     72  C24 non d ame     -10.474   8.746  69.854  0.00  0.00    -0.039 C 
ATOM     73  H35 non d ame     -11.437   8.435  69.447  0.00  0.00     0.036 H 
ATOM     74  H36 non d ame      -9.616   8.076  69.797  0.00  0.00     0.036 H 
BRANCH  72  75
ATOM     75  C25 non d ame     -10.704   9.089  71.401  0.00  0.00    -0.001 C 
ATOM     76  C26 non d ame      -9.573   8.324  72.318  0.00  0.00    -0.035 C 
ATOM     77  C27 non d ame     -10.201   7.647  73.309  0.00  0.00     0.085 C 
ATOM     78  H38 non d ame      -9.091   7.539  71.738  0.00  0.00     0.036 H 
ATOM     79  H39 non d ame      -8.969   9.056  72.854  0.00  0.00     0.036 H 
ATOM     80  N5  non d ame     -11.669   7.612  72.959  0.00  0.00    -0.049 N 
ATOM     81  H40 non d ame      -9.801   6.633  73.267  0.00  0.00     0.075 H 
ATOM     82  H41 non d ame     -10.064   8.250  74.206  0.00  0.00     0.075 H 
ATOM     83  C28 non d ame     -11.874   8.711  71.795  0.00  0.00     0.193 C 
ATOM     84  H42 non d ame     -11.849   6.696  72.572  0.00  0.00     0.280 HD
ATOM     85  H43 non d ame     -12.167   7.919  73.783  0.00  0.00     0.280 HD
ATOM     86  H44 non d ame     -12.329   9.676  72.019  0.00  0.00     0.129 H 
ATOM     87  H37 non d ame     -10.841  10.157  71.572  0.00  0.00     0.046 H 
BRANCH  83  88
ATOM     88  O6  non d ame     -12.650   8.162  70.729  0.00  0.00    -0.369 OA
ATOM     89  H45 non d ame     -13.562   8.448  70.817  0.00  0.00     0.212 HD
ENDBRANCH  83  88
ENDBRANCH  72  75
ENDBRANCH  47  72
ENDBRANCH  45  47
ENDBRANCH   1  43
BRANCH   1  90
ATOM     90  C16 non d ame      -5.954  10.663  70.367  0.00  0.00    -0.035 C 
ATOM     91  H21 non d ame      -6.595  11.166  71.092  0.00  0.00     0.037 H 
ATOM     92  H22 non d ame      -6.042   9.587  70.218  0.00  0.00     0.037 H 
BRANCH  90  93
ATOM     93  C17 non d ame      -4.483  10.927  70.821  0.00  0.00    -0.059 C 
ATOM     94  H23 non d ame      -4.007  11.541  70.056  0.00  0.00     0.038 H 
BRANCH  93  95
ATOM     95  C18 non d ame      -4.415  11.711  72.171  0.00  0.00    -0.073 C 
ATOM     96  H24 non d ame      -3.506  12.311  72.196  0.00  0.00     0.028 H 
ATOM     97  H25 non d ame      -5.284  12.363  72.257  0.00  0.00     0.028 H 
ATOM     98  H26 non d ame      -4.407  11.004  73.001  0.00  0.00     0.028 H 
ENDBRANCH  93  95
BRANCH  93  99
ATOM     99  C19 non d ame      -3.695   9.618  70.910  0.00  0.00    -0.073 C 
ATOM    100  H27 non d ame      -3.702   9.259  71.940  0.00  0.00     0.028 H 
ATOM    101  H28 non d ame      -4.156   8.872  70.262  0.00  0.00     0.028 H 
ATOM    102  H29 non d ame      -2.667   9.790  70.591  0.00  0.00     0.028 H 
ENDBRANCH  93  99
ENDBRANCH  90  93
ENDBRANCH   1  90
TORSDOF 26
ENDMDL
MODEL 14
REMARK VINA RESULT:      -7.0      4.265      8.207
REMARK  26 active torsions:
REMARK  status: ('A' for Active; 'I' for Inactive)
REMARK    1  A    between atoms: C2_2  and  C3_3 
REMARK    2  A    between atoms: C4_6  and  C5_7 
REMARK       I    between atoms: C5_7  and  N2_9 
REMARK    3  A    between atoms: N2_9  and  C6_10 
REMARK    4  A    between atoms: C6_10  and  C7_11 
REMARK    5  A    between atoms: C6_10  and  C8_13 
REMARK       I    between atoms: C7_11  and  N3_14 
REMARK    6  A    between atoms: N3_14  and  C9_15 
REMARK    7  A    between atoms: C9_15  and  C10_16 
REMARK    8  A    between atoms: C9_15  and  C11_18 
REMARK       I    between atoms: C10_16  and  N4_21 
REMARK    9  A    between atoms: C11_18  and  C12_19 
REMARK   10  A    between atoms: C11_18  and  C13_20 
REMARK   11  A    between atoms: N4_21  and  C14_22 
REMARK   12  A    between atoms: C14_22  and  C15_23 
REMARK   13  A    between atoms: C14_22  and  C16_25 
REMARK       I    between atoms: C15_23  and  N6_40 
REMARK   14  A    between atoms: C16_25  and  C17_26 
REMARK   15  A    between atoms: C17_26  and  C18_27 
REMARK   16  A    between atoms: C17_26  and  C19_28 
REMARK   17  A    between atoms: C20_29  and  C21_30 
REMARK   18  A    between atoms: C20_29  and  C24_33 
REMARK   19  A    between atoms: C20_29  and  N6_40 
REMARK   20  A    between atoms: C21_30  and  C22_31 
REMARK   21  A    between atoms: C22_31  and  C23_32 
REMARK   22  A    between atoms: C23_32  and  O8_43 
REMARK   23  A    between atoms: C24_33  and  C25_34 
REMARK   24  A    between atoms: C28_38  and  O6_39 
REMARK   25  A    between atoms: C29_42  and  O8_43 
REMARK   26  A    between atoms: C29_42  and  C35_49 
ROOT
ATOM      1  C14 non d ame      -7.522   7.131  65.743  0.00  0.00     0.089 C 
ATOM      2  H20 non d ame      -6.451   6.949  65.649  0.00  0.00     0.087 H 
ENDROOT
BRANCH   1   3
ATOM      3  N4  non d ame      -7.919   6.730  67.085  0.00  0.00    -0.346 N 
ATOM      4  C10 non d ame      -7.190   5.616  67.794  0.00  0.00     0.241 C 
ATOM      5  O4  non d ame      -6.290   5.055  67.263  0.00  0.00    -0.271 OA
ATOM      6  H19 non d ame      -8.689   7.219  67.519  0.00  0.00     0.163 HD
BRANCH   4   7
ATOM      7  C9  non d ame      -7.610   5.218  69.185  0.00  0.00     0.092 C 
ATOM      8  H11 non d ame      -6.794   4.679  69.665  0.00  0.00     0.088 H 
BRANCH   7   9
ATOM      9  N3  non d ame      -7.862   6.422  69.982  0.00  0.00    -0.346 N 
ATOM     10  C7  non d ame      -7.460   6.466  71.367  0.00  0.00     0.240 C 
ATOM     11  O3  non d ame      -6.934   5.542  71.855  0.00  0.00    -0.271 OA
ATOM     12  H10 non d ame      -8.317   7.227  69.575  0.00  0.00     0.163 HD
BRANCH  10  13
ATOM     13  C6  non d ame      -7.734   7.749  72.212  0.00  0.00     0.086 C 
ATOM     14  H6  non d ame      -7.349   8.654  71.742  0.00  0.00     0.086 H 
BRANCH  13  15
ATOM     15  N2  non d ame      -9.170   7.929  72.344  0.00  0.00    -0.343 N 
ATOM     16  C5  non d ame      -9.885   8.765  71.378  0.00  0.00     0.273 C 
ATOM     17  O2  non d ame      -9.295   9.292  70.500  0.00  0.00    -0.266 OA
ATOM     18  H5  non d ame      -9.666   7.477  73.100  0.00  0.00     0.163 HD
BRANCH  16  19
ATOM     19  C4  non d ame     -11.403   8.963  71.505  0.00  0.00     0.154 A 
ATOM     20  C1  non d ame     -12.393   7.949  71.704  0.00  0.00    -0.017 A 
ATOM     21  C2  non d ame     -13.622   8.645  71.753  0.00  0.00     0.077 A 
ATOM     22  H1  non d ame     -12.243   6.873  71.798  0.00  0.00     0.091 H 
ATOM     23  O1  non d ame     -13.357   9.909  71.601  0.00  0.00    -0.218 OA
ATOM     24  N1  non d ame     -12.069  10.120  71.454  0.00  0.00    -0.123 NA
BRANCH  21  25
ATOM     25  C3  non d ame     -15.000   8.028  71.949  0.00  0.00    -0.029 C 
ATOM     26  H2  non d ame     -15.129   7.750  72.995  0.00  0.00     0.036 H 
ATOM     27  H3  non d ame     -15.765   8.752  71.668  0.00  0.00     0.036 H 
ATOM     28  H4  non d ame     -15.094   7.140  71.323  0.00  0.00     0.036 H 
ENDBRANCH  21  25
ENDBRANCH  16  19
ENDBRANCH  13  15
BRANCH  13  29
ATOM     29  C8  non d ame      -7.104   7.601  73.573  0.00  0.00    -0.049 C 
ATOM     30  H7  non d ame      -7.866   7.311  74.297  0.00  0.00     0.030 H 
ATOM     31  H8  non d ame      -6.329   6.835  73.534  0.00  0.00     0.030 H 
ATOM     32  H9  non d ame      -6.662   8.551  73.874  0.00  0.00     0.030 H 
ENDBRANCH  13  29
ENDBRANCH  10  13
ENDBRANCH   7   9
BRANCH   7  33
ATOM     33  C11 non d ame      -8.911   4.367  69.110  0.00  0.00    -0.033 C 
ATOM     34  H12 non d ame      -9.025   4.031  68.079  0.00  0.00     0.042 H 
BRANCH  33  35
ATOM     35  C12 non d ame      -8.812   3.096  70.010  0.00  0.00    -0.071 C 
ATOM     36  H13 non d ame      -8.425   3.375  70.990  0.00  0.00     0.028 H 
ATOM     37  H14 non d ame      -9.801   2.653  70.123  0.00  0.00     0.028 H 
ATOM     38  H15 non d ame      -8.140   2.375  69.546  0.00  0.00     0.028 H 
ENDBRANCH  33  35
BRANCH  33  39
ATOM     39  C13 non d ame     -10.164   5.226  69.479  0.00  0.00    -0.071 C 
ATOM     40  H16 non d ame     -10.379   5.922  68.668  0.00  0.00     0.028 H 
ATOM     41  H17 non d ame     -11.021   4.571  69.633  0.00  0.00     0.028 H 
ATOM     42  H18 non d ame      -9.964   5.784  70.394  0.00  0.00     0.028 H 
ENDBRANCH  33  39
ENDBRANCH   7  33
ENDBRANCH   4   7
ENDBRANCH   1   3
BRANCH   1  43
ATOM     43  C15 non d ame      -7.882   8.632  65.548  0.00  0.00     0.240 C 
ATOM     44  O5  non d ame      -7.604   9.178  64.530  0.00  0.00    -0.271 OA
ATOM     45  N6  non d ame      -8.582   9.385  66.627  0.00  0.00    -0.355 N 
ATOM     46  H46 non d ame      -8.827   8.930  67.494  0.00  0.00     0.162 HD
BRANCH  45  47
ATOM     47  C20 non d ame      -8.918  10.811  66.425  0.00  0.00     0.013 C 
ATOM     48  H30 non d ame      -8.175  11.239  65.753  0.00  0.00     0.072 H 
BRANCH  47  49
ATOM     49  C21 non d ame      -8.883  11.526  67.757  0.00  0.00    -0.038 C 
ATOM     50  H31 non d ame      -8.421  10.827  68.455  0.00  0.00     0.036 H 
ATOM     51  H32 non d ame      -8.414  12.491  67.560  0.00  0.00     0.036 H 
BRANCH  49  52
ATOM     52  C22 non d ame     -10.292  11.831  68.311  0.00  0.00     0.018 C 
ATOM     53  H33 non d ame     -10.990  11.486  67.549  0.00  0.00     0.048 H 
ATOM     54  H34 non d ame     -10.316  11.394  69.310  0.00  0.00     0.048 H 
BRANCH  52  55
ATOM     55  C23 non d ame     -10.576  13.347  68.499  0.00  0.00     0.259 C 
ATOM     56  O7  non d ame      -9.690  14.137  68.454  0.00  0.00    -0.265 OA
BRANCH  55  57
ATOM     57  O8  non d ame     -11.909  13.781  68.740  0.00  0.00    -0.317 OA
BRANCH  57  58
ATOM     58  C29 non d ame     -12.008  15.130  69.205  0.00  0.00     0.052 C 
ATOM     59  H47 non d ame     -11.009  15.553  69.094  0.00  0.00     0.082 H 
ATOM     60  H48 non d ame     -12.848  15.567  68.666  0.00  0.00     0.082 H 
BRANCH  58  61
ATOM     61  C35 non d ame     -12.360  15.092  70.716  0.00  0.00    -0.034 A 
ATOM     62  C30 non d ame     -11.871  16.074  71.571  0.00  0.00    -0.075 A 
ATOM     63  C31 non d ame     -12.187  16.040  72.928  0.00  0.00    -0.082 A 
ATOM     64  H49 non d ame     -11.240  16.871  71.177  0.00  0.00     0.084 H 
ATOM     65  C32 non d ame     -12.994  15.016  73.430  0.00  0.00    -0.083 A 
ATOM     66  H50 non d ame     -11.804  16.813  73.594  0.00  0.00     0.083 H 
ATOM     67  C33 non d ame     -13.477  14.035  72.574  0.00  0.00    -0.082 A 
ATOM     68  H51 non d ame     -13.247  14.982  74.490  0.00  0.00     0.083 H 
ATOM     69  C34 non d ame     -13.166  14.067  71.217  0.00  0.00    -0.075 A 
ATOM     70  H52 non d ame     -14.105  13.236  72.970  0.00  0.00     0.083 H 
ATOM     71  H53 non d ame     -13.550  13.294  70.550  0.00  0.00     0.084 H 
ENDBRANCH  58  61
ENDBRANCH  57  58
ENDBRANCH  55  57
ENDBRANCH  52  55
ENDBRANCH  49  52
ENDBRANCH  47  49
BRANCH  47  72
ATOM     72  C24 non d ame     -10.315  10.931  65.819  0.00  0.00    -0.039 C 
ATOM     73  H35 non d ame     -10.517   9.963  65.361  0.00  0.00     0.036 H 
ATOM     74  H36 non d ame     -10.951  11.295  66.626  0.00  0.00     0.036 H 
BRANCH  72  75
ATOM     75  C25 non d ame     -10.361  12.026  64.650  0.00  0.00    -0.001 C 
ATOM     76  C26 non d ame     -11.652  13.022  64.866  0.00  0.00    -0.035 C 
ATOM     77  C27 non d ame     -12.357  13.079  63.711  0.00  0.00     0.085 C 
ATOM     78  H38 non d ame     -12.353  12.577  65.571  0.00  0.00     0.036 H 
ATOM     79  H39 non d ame     -11.312  14.048  65.008  0.00  0.00     0.036 H 
ATOM     80  N5  non d ame     -11.853  11.961  62.830  0.00  0.00    -0.049 N 
ATOM     81  H40 non d ame     -13.391  12.873  63.990  0.00  0.00     0.075 H 
ATOM     82  H41 non d ame     -12.095  14.034  63.257  0.00  0.00     0.075 H 
ATOM     83  C28 non d ame     -10.465  11.467  63.490  0.00  0.00     0.193 C 
ATOM     84  H42 non d ame     -12.528  11.213  62.903  0.00  0.00     0.280 HD
ATOM     85  H43 non d ame     -11.652  12.374  61.931  0.00  0.00     0.280 HD
ATOM     86  H44 non d ame      -9.510  11.749  63.048  0.00  0.00     0.129 H 
ATOM     87  H37 non d ame      -9.392  12.498  64.487  0.00  0.00     0.046 H 
BRANCH  83  88
ATOM     88  O6  non d ame     -10.440  10.041  63.575  0.00  0.00    -0.369 OA
ATOM     89  H45 non d ame      -9.956   9.776  64.360  0.00  0.00     0.212 HD
ENDBRANCH  83  88
ENDBRANCH  72  75
ENDBRANCH  47  72
ENDBRANCH  45  47
ENDBRANCH   1  43
BRANCH   1  90
ATOM     90  C16 non d ame      -8.279   6.287  64.730  0.00  0.00    -0.035 C 
ATOM     91  H21 non d ame      -8.332   5.290  65.166  0.00  0.00     0.037 H 
ATOM     92  H22 non d ame      -9.196   6.840  64.521  0.00  0.00     0.037 H 
BRANCH  90  93
ATOM     93  C17 non d ame      -7.537   6.133  63.364  0.00  0.00    -0.059 C 
ATOM     94  H23 non d ame      -7.592   7.091  62.848  0.00  0.00     0.038 H 
BRANCH  93  95
ATOM     95  C18 non d ame      -6.027   5.778  63.551  0.00  0.00    -0.073 C 
ATOM     96  H24 non d ame      -5.416   6.643  63.292  0.00  0.00     0.028 H 
ATOM     97  H25 non d ame      -5.844   5.503  64.590  0.00  0.00     0.028 H 
ATOM     98  H26 non d ame      -5.767   4.942  62.903  0.00  0.00     0.028 H 
ENDBRANCH  93  95
BRANCH  93  99
ATOM     99  C19 non d ame      -8.233   5.097  62.478  0.00  0.00    -0.073 C 
ATOM    100  H27 non d ame      -9.130   4.733  62.980  0.00  0.00     0.028 H 
ATOM    101  H28 non d ame      -8.510   5.558  61.529  0.00  0.00     0.028 H 
ATOM    102  H29 non d ame      -7.557   4.263  62.292  0.00  0.00     0.028 H 
ENDBRANCH  93  99
ENDBRANCH  90  93
ENDBRANCH   1  90
TORSDOF 26
ENDMDL
MODEL 15
REMARK VINA RESULT:      -7.0      2.713      4.191
REMARK  26 active torsions:
REMARK  status: ('A' for Active; 'I' for Inactive)
REMARK    1  A    between atoms: C2_2  and  C3_3 
REMARK    2  A    between atoms: C4_6  and  C5_7 
REMARK       I    between atoms: C5_7  and  N2_9 
REMARK    3  A    between atoms: N2_9  and  C6_10 
REMARK    4  A    between atoms: C6_10  and  C7_11 
REMARK    5  A    between atoms: C6_10  and  C8_13 
REMARK       I    between atoms: C7_11  and  N3_14 
REMARK    6  A    between atoms: N3_14  and  C9_15 
REMARK    7  A    between atoms: C9_15  and  C10_16 
REMARK    8  A    between atoms: C9_15  and  C11_18 
REMARK       I    between atoms: C10_16  and  N4_21 
REMARK    9  A    between atoms: C11_18  and  C12_19 
REMARK   10  A    between atoms: C11_18  and  C13_20 
REMARK   11  A    between atoms: N4_21  and  C14_22 
REMARK   12  A    between atoms: C14_22  and  C15_23 
REMARK   13  A    between atoms: C14_22  and  C16_25 
REMARK       I    between atoms: C15_23  and  N6_40 
REMARK   14  A    between atoms: C16_25  and  C17_26 
REMARK   15  A    between atoms: C17_26  and  C18_27 
REMARK   16  A    between atoms: C17_26  and  C19_28 
REMARK   17  A    between atoms: C20_29  and  C21_30 
REMARK   18  A    between atoms: C20_29  and  C24_33 
REMARK   19  A    between atoms: C20_29  and  N6_40 
REMARK   20  A    between atoms: C21_30  and  C22_31 
REMARK   21  A    between atoms: C22_31  and  C23_32 
REMARK   22  A    between atoms: C23_32  and  O8_43 
REMARK   23  A    between atoms: C24_33  and  C25_34 
REMARK   24  A    between atoms: C28_38  and  O6_39 
REMARK   25  A    between atoms: C29_42  and  O8_43 
REMARK   26  A    between atoms: C29_42  and  C35_49 
ROOT
ATOM      1  C14 non d ame     -12.144  13.876  69.371  0.00  0.00     0.089 C 
ATOM      2  H20 non d ame     -13.091  13.641  68.885  0.00  0.00     0.087 H 
ENDROOT
BRANCH   1   3
ATOM      3  N4  non d ame     -11.642  12.647  69.969  0.00  0.00    -0.346 N 
ATOM      4  C10 non d ame     -11.805  11.330  69.254  0.00  0.00     0.241 C 
ATOM      5  O4  non d ame     -12.347  11.283  68.199  0.00  0.00    -0.271 OA
ATOM      6  H19 non d ame     -11.187  12.709  70.869  0.00  0.00     0.163 HD
BRANCH   4   7
ATOM      7  C9  non d ame     -11.275  10.069  69.885  0.00  0.00     0.092 C 
ATOM      8  H11 non d ame     -11.525   9.218  69.252  0.00  0.00     0.088 H 
BRANCH   7   9
ATOM      9  N3  non d ame      -9.812  10.138  69.960  0.00  0.00    -0.346 N 
ATOM     10  C7  non d ame      -9.007   9.307  69.099  0.00  0.00     0.240 C 
ATOM     11  O3  non d ame      -9.519   8.577  68.341  0.00  0.00    -0.271 OA
ATOM     12  H10 non d ame      -9.356  10.762  70.610  0.00  0.00     0.163 HD
BRANCH  10  13
ATOM     13  C6  non d ame      -7.451   9.382  69.185  0.00  0.00     0.086 C 
ATOM     14  H6  non d ame      -7.100  10.270  69.711  0.00  0.00     0.086 H 
BRANCH  13  15
ATOM     15  N2  non d ame      -6.965   8.236  69.935  0.00  0.00    -0.343 N 
ATOM     16  C5  non d ame      -7.088   8.224  71.395  0.00  0.00     0.273 C 
ATOM     17  O2  non d ame      -7.577   9.143  71.956  0.00  0.00    -0.266 OA
ATOM     18  H5  non d ame      -6.545   7.457  69.448  0.00  0.00     0.163 HD
BRANCH  16  19
ATOM     19  C4  non d ame      -6.579   7.019  72.200  0.00  0.00     0.154 A 
ATOM     20  C1  non d ame      -7.258   6.340  73.262  0.00  0.00    -0.017 A 
ATOM     21  C2  non d ame      -6.373   5.314  73.661  0.00  0.00     0.077 A 
ATOM     22  H1  non d ame      -8.242   6.558  73.678  0.00  0.00     0.091 H 
ATOM     23  O1  non d ame      -5.314   5.401  72.910  0.00  0.00    -0.218 OA
ATOM     24  N1  non d ame      -5.411   6.389  72.050  0.00  0.00    -0.123 NA
BRANCH  21  25
ATOM     25  C3  non d ame      -6.615   4.294  74.766  0.00  0.00    -0.029 C 
ATOM     26  H2  non d ame      -6.985   4.803  75.657  0.00  0.00     0.036 H 
ATOM     27  H3  non d ame      -7.352   3.564  74.432  0.00  0.00     0.036 H 
ATOM     28  H4  non d ame      -5.680   3.784  75.002  0.00  0.00     0.036 H 
ENDBRANCH  21  25
ENDBRANCH  16  19
ENDBRANCH  13  15
BRANCH  13  29
ATOM     29  C8  non d ame      -6.867   9.376  67.795  0.00  0.00    -0.049 C 
ATOM     30  H7  non d ame      -6.568   8.361  67.531  0.00  0.00     0.030 H 
ATOM     31  H8  non d ame      -7.614   9.731  67.086  0.00  0.00     0.030 H 
ATOM     32  H9  non d ame      -5.995  10.029  67.765  0.00  0.00     0.030 H 
ENDBRANCH  13  29
ENDBRANCH  10  13
ENDBRANCH   7   9
BRANCH   7  33
ATOM     33  C11 non d ame     -11.859   9.923  71.321  0.00  0.00    -0.033 C 
ATOM     34  H12 non d ame     -11.549  10.798  71.892  0.00  0.00     0.042 H 
BRANCH  33  35
ATOM     35  C12 non d ame     -13.419   9.904  71.301  0.00  0.00    -0.071 C 
ATOM     36  H13 non d ame     -13.799  10.224  72.271  0.00  0.00     0.028 H 
ATOM     37  H14 non d ame     -13.780  10.582  70.528  0.00  0.00     0.028 H 
ATOM     38  H15 non d ame     -13.766   8.893  71.089  0.00  0.00     0.028 H 
ENDBRANCH  33  35
BRANCH  33  39
ATOM     39  C13 non d ame     -11.285   8.655  72.031  0.00  0.00    -0.071 C 
ATOM     40  H16 non d ame     -11.435   8.742  73.107  0.00  0.00     0.028 H 
ATOM     41  H17 non d ame     -11.802   7.768  71.663  0.00  0.00     0.028 H 
ATOM     42  H18 non d ame     -10.220   8.570  71.818  0.00  0.00     0.028 H 
ENDBRANCH  33  39
ENDBRANCH   7  33
ENDBRANCH   4   7
ENDBRANCH   1   3
BRANCH   1  43
ATOM     43  C15 non d ame     -11.083  14.406  68.364  0.00  0.00     0.240 C 
ATOM     44  O5  non d ame      -9.973  14.617  68.732  0.00  0.00    -0.271 OA
ATOM     45  N6  non d ame     -11.449  14.642  66.938  0.00  0.00    -0.355 N 
ATOM     46  H46 non d ame     -12.388  14.461  66.613  0.00  0.00     0.162 HD
BRANCH  45  47
ATOM     47  C20 non d ame     -10.429  15.144  65.993  0.00  0.00     0.013 C 
ATOM     48  H30 non d ame      -9.454  15.052  66.472  0.00  0.00     0.072 H 
BRANCH  47  49
ATOM     49  C21 non d ame     -10.713  16.595  65.676  0.00  0.00    -0.038 C 
ATOM     50  H31 non d ame     -10.550  16.700  64.604  0.00  0.00     0.036 H 
ATOM     51  H32 non d ame     -11.696  16.802  66.101  0.00  0.00     0.036 H 
BRANCH  49  52
ATOM     52  C22 non d ame      -9.727  17.564  66.365  0.00  0.00     0.018 C 
ATOM     53  H33 non d ame      -8.848  16.967  66.609  0.00  0.00     0.048 H 
ATOM     54  H34 non d ame      -9.636  18.419  65.694  0.00  0.00     0.048 H 
BRANCH  52  55
ATOM     55  C23 non d ame     -10.247  18.131  67.715  0.00  0.00     0.259 C 
ATOM     56  O7  non d ame     -11.221  17.680  68.224  0.00  0.00    -0.265 OA
BRANCH  55  57
ATOM     57  O8  non d ame      -9.552  19.208  68.332  0.00  0.00    -0.317 OA
BRANCH  57  58
ATOM     58  C29 non d ame      -8.841  20.044  67.414  0.00  0.00     0.052 C 
ATOM     59  H47 non d ame      -8.787  19.481  66.483  0.00  0.00     0.082 H 
ATOM     60  H48 non d ame      -9.349  21.008  67.439  0.00  0.00     0.082 H 
BRANCH  58  61
ATOM     61  C35 non d ame      -7.400  20.235  67.957  0.00  0.00    -0.034 A 
ATOM     62  C30 non d ame      -7.038  19.680  69.181  0.00  0.00    -0.075 A 
ATOM     63  C31 non d ame      -5.743  19.852  69.669  0.00  0.00    -0.082 A 
ATOM     64  H49 non d ame      -7.767  19.111  69.756  0.00  0.00     0.084 H 
ATOM     65  C32 non d ame      -4.810  20.584  68.930  0.00  0.00    -0.083 A 
ATOM     66  H50 non d ame      -5.462  19.414  70.627  0.00  0.00     0.083 H 
ATOM     67  C33 non d ame      -5.177  21.139  67.712  0.00  0.00    -0.082 A 
ATOM     68  H51 non d ame      -3.796  20.723  69.304  0.00  0.00     0.083 H 
ATOM     69  C34 non d ame      -6.469  20.968  67.219  0.00  0.00    -0.075 A 
ATOM     70  H52 non d ame      -4.447  21.711  67.139  0.00  0.00     0.083 H 
ATOM     71  H53 non d ame      -6.750  21.406  66.260  0.00  0.00     0.084 H 
ENDBRANCH  58  61
ENDBRANCH  57  58
ENDBRANCH  55  57
ENDBRANCH  52  55
ENDBRANCH  49  52
ENDBRANCH  47  49
BRANCH  47  72
ATOM     72  C24 non d ame     -10.468  14.324  64.706  0.00  0.00    -0.039 C 
ATOM     73  H35 non d ame     -11.109  14.884  64.024  0.00  0.00     0.036 H 
ATOM     74  H36 non d ame      -9.425  14.141  64.447  0.00  0.00     0.036 H 
BRANCH  72  75
ATOM     75  C25 non d ame     -11.156  12.895  64.935  0.00  0.00    -0.001 C 
ATOM     76  C26 non d ame     -10.033  11.703  64.783  0.00  0.00    -0.035 C 
ATOM     77  C27 non d ame     -10.498  10.775  63.911  0.00  0.00     0.085 C 
ATOM     78  H38 non d ame      -9.141  12.090  64.291  0.00  0.00     0.036 H 
ATOM     79  H39 non d ame      -9.944  11.151  65.719  0.00  0.00     0.036 H 
ATOM     80  N5  non d ame     -11.685  11.386  63.208  0.00  0.00    -0.049 N 
ATOM     81  H40 non d ame      -9.694  10.626  63.189  0.00  0.00     0.075 H 
ATOM     82  H41 non d ame     -10.839   9.943  64.527  0.00  0.00     0.075 H 
ATOM     83  C28 non d ame     -12.095  12.685  64.074  0.00  0.00     0.193 C 
ATOM     84  H42 non d ame     -11.356  11.693  62.304  0.00  0.00     0.280 HD
ATOM     85  H43 non d ame     -12.433  10.710  63.270  0.00  0.00     0.280 HD
ATOM     86  H44 non d ame     -12.964  12.661  64.731  0.00  0.00     0.129 H 
ATOM     87  H37 non d ame     -11.781  12.876  65.827  0.00  0.00     0.046 H 
BRANCH  83  88
ATOM     88  O6  non d ame     -12.298  13.807  63.213  0.00  0.00    -0.369 OA
ATOM     89  H45 non d ame     -11.499  14.338  63.186  0.00  0.00     0.212 HD
ENDBRANCH  83  88
ENDBRANCH  72  75
ENDBRANCH  47  72
ENDBRANCH  45  47
ENDBRANCH   1  43
BRANCH   1  90
ATOM     90  C16 non d ame     -12.368  14.905  70.467  0.00  0.00    -0.035 C 
ATOM     91  H21 non d ame     -11.384  15.084  70.901  0.00  0.00     0.037 H 
ATOM     92  H22 non d ame     -12.910  15.722  69.988  0.00  0.00     0.037 H 
BRANCH  90  93
ATOM     93  C17 non d ame     -13.277  14.395  71.630  0.00  0.00    -0.059 C 
ATOM     94  H23 non d ame     -13.319  13.308  71.564  0.00  0.00     0.038 H 
BRANCH  93  95
ATOM     95  C18 non d ame     -12.702  14.765  73.034  0.00  0.00    -0.073 C 
ATOM     96  H24 non d ame     -12.355  15.798  73.023  0.00  0.00     0.028 H 
ATOM     97  H25 non d ame     -13.481  14.652  73.788  0.00  0.00     0.028 H 
ATOM     98  H26 non d ame     -11.868  14.104  73.271  0.00  0.00     0.028 H 
ENDBRANCH  93  95
BRANCH  93  99
ATOM     99  C19 non d ame     -14.709  14.915  71.473  0.00  0.00    -0.073 C 
ATOM    100  H27 non d ame     -15.238  14.307  70.739  0.00  0.00     0.028 H 
ATOM    101  H28 non d ame     -15.223  14.856  72.433  0.00  0.00     0.028 H 
ATOM    102  H29 non d ame     -14.684  15.951  71.138  0.00  0.00     0.028 H 
ENDBRANCH  93  99
ENDBRANCH  90  93
ENDBRANCH   1  90
TORSDOF 26
ENDMDL
MODEL 16
REMARK VINA RESULT:      -6.9      3.375     10.524
REMARK  26 active torsions:
REMARK  status: ('A' for Active; 'I' for Inactive)
REMARK    1  A    between atoms: C2_2  and  C3_3 
REMARK    2  A    between atoms: C4_6  and  C5_7 
REMARK       I    between atoms: C5_7  and  N2_9 
REMARK    3  A    between atoms: N2_9  and  C6_10 
REMARK    4  A    between atoms: C6_10  and  C7_11 
REMARK    5  A    between atoms: C6_10  and  C8_13 
REMARK       I    between atoms: C7_11  and  N3_14 
REMARK    6  A    between atoms: N3_14  and  C9_15 
REMARK    7  A    between atoms: C9_15  and  C10_16 
REMARK    8  A    between atoms: C9_15  and  C11_18 
REMARK       I    between atoms: C10_16  and  N4_21 
REMARK    9  A    between atoms: C11_18  and  C12_19 
REMARK   10  A    between atoms: C11_18  and  C13_20 
REMARK   11  A    between atoms: N4_21  and  C14_22 
REMARK   12  A    between atoms: C14_22  and  C15_23 
REMARK   13  A    between atoms: C14_22  and  C16_25 
REMARK       I    between atoms: C15_23  and  N6_40 
REMARK   14  A    between atoms: C16_25  and  C17_26 
REMARK   15  A    between atoms: C17_26  and  C18_27 
REMARK   16  A    between atoms: C17_26  and  C19_28 
REMARK   17  A    between atoms: C20_29  and  C21_30 
REMARK   18  A    between atoms: C20_29  and  C24_33 
REMARK   19  A    between atoms: C20_29  and  N6_40 
REMARK   20  A    between atoms: C21_30  and  C22_31 
REMARK   21  A    between atoms: C22_31  and  C23_32 
REMARK   22  A    between atoms: C23_32  and  O8_43 
REMARK   23  A    between atoms: C24_33  and  C25_34 
REMARK   24  A    between atoms: C28_38  and  O6_39 
REMARK   25  A    between atoms: C29_42  and  O8_43 
REMARK   26  A    between atoms: C29_42  and  C35_49 
ROOT
ATOM      1  C14 non d ame      -8.141   9.216  69.750  0.00  0.00     0.089 C 
ATOM      2  H20 non d ame      -7.194   8.674  69.741  0.00  0.00     0.087 H 
ENDROOT
BRANCH   1   3
ATOM      3  N4  non d ame      -7.833  10.633  69.870  0.00  0.00    -0.346 N 
ATOM      4  C10 non d ame      -6.720  11.243  69.056  0.00  0.00     0.241 C 
ATOM      5  O4  non d ame      -6.084  10.572  68.312  0.00  0.00    -0.271 OA
ATOM      6  H19 non d ame      -8.385  11.187  70.510  0.00  0.00     0.163 HD
BRANCH   4   7
ATOM      7  C9  non d ame      -6.420  12.713  69.189  0.00  0.00     0.092 C 
ATOM      8  H11 non d ame      -5.839  13.040  68.326  0.00  0.00     0.088 H 
BRANCH   7   9
ATOM      9  N3  non d ame      -7.674  13.472  69.179  0.00  0.00    -0.346 N 
ATOM     10  C7  non d ame      -8.018  14.281  68.035  0.00  0.00     0.240 C 
ATOM     11  O3  non d ame      -7.295  14.335  67.116  0.00  0.00    -0.271 OA
ATOM     12  H10 non d ame      -8.307  13.437  69.965  0.00  0.00     0.163 HD
BRANCH  10  13
ATOM     13  C6  non d ame      -9.353  15.089  68.032  0.00  0.00     0.086 C 
ATOM     14  H6  non d ame     -10.108  14.652  67.378  0.00  0.00     0.086 H 
BRANCH  13  15
ATOM     15  N2  non d ame      -9.911  15.083  69.374  0.00  0.00    -0.343 N 
ATOM     16  C5  non d ame     -11.313  14.708  69.570  0.00  0.00     0.273 C 
ATOM     17  O2  non d ame     -11.984  14.416  68.641  0.00  0.00    -0.266 OA
ATOM     18  H5  non d ame      -9.331  15.336  70.161  0.00  0.00     0.163 HD
BRANCH  16  19
ATOM     19  C4  non d ame     -11.916  14.695  70.983  0.00  0.00     0.154 A 
ATOM     20  C1  non d ame     -11.607  15.582  72.063  0.00  0.00    -0.017 A 
ATOM     21  C2  non d ame     -12.425  15.152  73.132  0.00  0.00     0.077 A 
ATOM     22  H1  non d ame     -10.898  16.411  72.070  0.00  0.00     0.091 H 
ATOM     23  O1  non d ame     -13.119  14.138  72.705  0.00  0.00    -0.218 OA
ATOM     24  N1  non d ame     -12.839  13.853  71.454  0.00  0.00    -0.123 NA
BRANCH  21  25
ATOM     25  C3  non d ame     -12.483  15.764  74.525  0.00  0.00    -0.029 C 
ATOM     26  H2  non d ame     -11.886  15.163  75.212  0.00  0.00     0.036 H 
ATOM     27  H3  non d ame     -12.087  16.780  74.493  0.00  0.00     0.036 H 
ATOM     28  H4  non d ame     -13.517  15.789  74.869  0.00  0.00     0.036 H 
ENDBRANCH  21  25
ENDBRANCH  16  19
ENDBRANCH  13  15
BRANCH  13  29
ATOM     29  C8  non d ame      -9.085  16.505  67.590  0.00  0.00    -0.049 C 
ATOM     30  H7  non d ame      -8.652  16.499  66.590  0.00  0.00     0.030 H 
ATOM     31  H8  non d ame     -10.021  17.064  67.577  0.00  0.00     0.030 H 
ATOM     32  H9  non d ame      -8.389  16.976  68.284  0.00  0.00     0.030 H 
ENDBRANCH  13  29
ENDBRANCH  10  13
ENDBRANCH   7   9
BRANCH   7  33
ATOM     33  C11 non d ame      -5.672  12.970  70.530  0.00  0.00    -0.033 C 
ATOM     34  H12 non d ame      -6.217  12.447  71.315  0.00  0.00     0.042 H 
BRANCH  33  35
ATOM     35  C12 non d ame      -4.225  12.388  70.494  0.00  0.00    -0.071 C 
ATOM     36  H13 non d ame      -3.606  12.993  69.832  0.00  0.00     0.028 H 
ATOM     37  H14 non d ame      -3.803  12.403  71.499  0.00  0.00     0.028 H 
ATOM     38  H15 non d ame      -4.255  11.363  70.127  0.00  0.00     0.028 H 
ENDBRANCH  33  35
BRANCH  33  39
ATOM     39  C13 non d ame      -5.662  14.493  70.881  0.00  0.00    -0.071 C 
ATOM     40  H16 non d ame      -5.048  15.029  70.157  0.00  0.00     0.028 H 
ATOM     41  H17 non d ame      -6.680  14.880  70.850  0.00  0.00     0.028 H 
ATOM     42  H18 non d ame      -5.250  14.632  71.880  0.00  0.00     0.028 H 
ENDBRANCH  33  39
ENDBRANCH   7  33
ENDBRANCH   4   7
ENDBRANCH   1   3
BRANCH   1  43
ATOM     43  C15 non d ame      -8.956   8.995  68.444  0.00  0.00     0.240 C 
ATOM     44  O5  non d ame     -10.124   9.218  68.432  0.00  0.00    -0.271 OA
ATOM     45  N6  non d ame      -8.280   8.513  67.206  0.00  0.00    -0.355 N 
ATOM     46  H46 non d ame      -7.288   8.325  67.203  0.00  0.00     0.162 HD
BRANCH  45  47
ATOM     47  C20 non d ame      -9.070   8.310  65.972  0.00  0.00     0.013 C 
ATOM     48  H30 non d ame     -10.117   8.206  66.257  0.00  0.00     0.072 H 
BRANCH  47  49
ATOM     49  C21 non d ame      -8.596   7.052  65.278  0.00  0.00    -0.038 C 
ATOM     50  H31 non d ame      -9.420   6.743  64.634  0.00  0.00     0.036 H 
ATOM     51  H32 non d ame      -7.629   7.303  64.843  0.00  0.00     0.036 H 
BRANCH  49  52
ATOM     52  C22 non d ame      -8.346   5.885  66.257  0.00  0.00     0.018 C 
ATOM     53  H33 non d ame      -7.499   5.333  65.849  0.00  0.00     0.048 H 
ATOM     54  H34 non d ame      -8.275   6.339  67.246  0.00  0.00     0.048 H 
BRANCH  52  55
ATOM     55  C23 non d ame      -9.520   4.871  66.336  0.00  0.00     0.259 C 
ATOM     56  O7  non d ame      -9.933   4.348  65.352  0.00  0.00    -0.265 OA
BRANCH  55  57
ATOM     57  O8  non d ame     -10.107   4.581  67.599  0.00  0.00    -0.317 OA
BRANCH  57  58
ATOM     58  C29 non d ame      -9.281   4.920  68.716  0.00  0.00     0.052 C 
ATOM     59  H47 non d ame      -8.781   3.996  69.005  0.00  0.00     0.082 H 
ATOM     60  H48 non d ame      -8.694   5.782  68.399  0.00  0.00     0.082 H 
BRANCH  58  61
ATOM     61  C35 non d ame     -10.209   5.361  69.880  0.00  0.00    -0.034 A 
ATOM     62  C30 non d ame     -10.021   4.839  71.156  0.00  0.00    -0.075 A 
ATOM     63  C31 non d ame     -10.853   5.234  72.202  0.00  0.00    -0.082 A 
ATOM     64  H49 non d ame      -9.221   4.121  71.337  0.00  0.00     0.084 H 
ATOM     65  C32 non d ame     -11.880   6.154  71.967  0.00  0.00    -0.083 A 
ATOM     66  H50 non d ame     -10.702   4.826  73.201  0.00  0.00     0.083 H 
ATOM     67  C33 non d ame     -12.065   6.669  70.692  0.00  0.00    -0.082 A 
ATOM     68  H51 non d ame     -12.535   6.469  72.780  0.00  0.00     0.083 H 
ATOM     69  C34 non d ame     -11.234   6.278  69.644  0.00  0.00    -0.075 A 
ATOM     70  H52 non d ame     -12.868   7.384  70.512  0.00  0.00     0.083 H 
ATOM     71  H53 non d ame     -11.386   6.689  68.645  0.00  0.00     0.084 H 
ENDBRANCH  58  61
ENDBRANCH  57  58
ENDBRANCH  55  57
ENDBRANCH  52  55
ENDBRANCH  49  52
ENDBRANCH  47  49
BRANCH  47  72
ATOM     72  C24 non d ame      -8.889   9.506  65.040  0.00  0.00    -0.039 C 
ATOM     73  H35 non d ame      -7.926   9.941  65.309  0.00  0.00     0.036 H 
ATOM     74  H36 non d ame      -9.049   9.116  64.034  0.00  0.00     0.036 H 
BRANCH  72  75
ATOM     75  C25 non d ame     -10.003  10.629  65.294  0.00  0.00    -0.001 C 
ATOM     76  C26 non d ame     -10.728  11.030  63.874  0.00  0.00    -0.035 C 
ATOM     77  C27 non d ame     -10.700  12.377  63.734  0.00  0.00     0.085 C 
ATOM     78  H38 non d ame     -10.131  10.674  63.035  0.00  0.00     0.036 H 
ATOM     79  H39 non d ame     -11.793  10.801  63.920  0.00  0.00     0.036 H 
ATOM     80  N5  non d ame      -9.734  12.907  64.767  0.00  0.00    -0.049 N 
ATOM     81  H40 non d ame     -10.291  12.558  62.739  0.00  0.00     0.075 H 
ATOM     82  H41 non d ame     -11.705  12.716  63.981  0.00  0.00     0.075 H 
ATOM     83  C28 non d ame      -9.483  11.696  65.804  0.00  0.00     0.193 C 
ATOM     84  H42 non d ame      -8.871  13.098  64.279  0.00  0.00     0.280 HD
ATOM     85  H43 non d ame     -10.215  13.651  65.252  0.00  0.00     0.280 HD
ATOM     86  H44 non d ame      -9.959  11.699  66.784  0.00  0.00     0.129 H 
ATOM     87  H37 non d ame     -10.655  10.381  66.132  0.00  0.00     0.046 H 
BRANCH  83  88
ATOM     88  O6  non d ame      -8.085  11.546  66.057  0.00  0.00    -0.369 OA
ATOM     89  H45 non d ame      -7.675  12.412  66.110  0.00  0.00     0.212 HD
ENDBRANCH  83  88
ENDBRANCH  72  75
ENDBRANCH  47  72
ENDBRANCH  45  47
ENDBRANCH   1  43
BRANCH   1  90
ATOM     90  C16 non d ame      -8.969   8.784  70.950  0.00  0.00    -0.035 C 
ATOM     91  H21 non d ame      -9.493   9.683  71.277  0.00  0.00     0.037 H 
ATOM     92  H22 non d ame      -9.535   7.916  70.612  0.00  0.00     0.037 H 
BRANCH  90  93
ATOM     93  C17 non d ame      -8.111   8.306  72.164  0.00  0.00    -0.059 C 
ATOM     94  H23 non d ame      -7.413   9.106  72.411  0.00  0.00     0.038 H 
BRANCH  93  95
ATOM     95  C18 non d ame      -8.984   8.029  73.430  0.00  0.00    -0.073 C 
ATOM     96  H24 non d ame     -10.036   7.997  73.145  0.00  0.00     0.028 H 
ATOM     97  H25 non d ame      -8.697   7.072  73.866  0.00  0.00     0.028 H 
ATOM     98  H26 non d ame      -8.829   8.823  74.160  0.00  0.00     0.028 H 
ENDBRANCH  93  95
BRANCH  93  99
ATOM     99  C19 non d ame      -7.280   7.075  71.795  0.00  0.00    -0.073 C 
ATOM    100  H27 non d ame      -7.243   6.393  72.645  0.00  0.00     0.028 H 
ATOM    101  H28 non d ame      -7.736   6.570  70.944  0.00  0.00     0.028 H 
ATOM    102  H29 non d ame      -6.268   7.385  71.534  0.00  0.00     0.028 H 
ENDBRANCH  93  99
ENDBRANCH  90  93
ENDBRANCH   1  90
TORSDOF 26
ENDMDL
MODEL 17
REMARK VINA RESULT:      -6.9      2.784      4.633
REMARK  26 active torsions:
REMARK  status: ('A' for Active; 'I' for Inactive)
REMARK    1  A    between atoms: C2_2  and  C3_3 
REMARK    2  A    between atoms: C4_6  and  C5_7 
REMARK       I    between atoms: C5_7  and  N2_9 
REMARK    3  A    between atoms: N2_9  and  C6_10 
REMARK    4  A    between atoms: C6_10  and  C7_11 
REMARK    5  A    between atoms: C6_10  and  C8_13 
REMARK       I    between atoms: C7_11  and  N3_14 
REMARK    6  A    between atoms: N3_14  and  C9_15 
REMARK    7  A    between atoms: C9_15  and  C10_16 
REMARK    8  A    between atoms: C9_15  and  C11_18 
REMARK       I    between atoms: C10_16  and  N4_21 
REMARK    9  A    between atoms: C11_18  and  C12_19 
REMARK   10  A    between atoms: C11_18  and  C13_20 
REMARK   11  A    between atoms: N4_21  and  C14_22 
REMARK   12  A    between atoms: C14_22  and  C15_23 
REMARK   13  A    between atoms: C14_22  and  C16_25 
REMARK       I    between atoms: C15_23  and  N6_40 
REMARK   14  A    between atoms: C16_25  and  C17_26 
REMARK   15  A    between atoms: C17_26  and  C18_27 
REMARK   16  A    between atoms: C17_26  and  C19_28 
REMARK   17  A    between atoms: C20_29  and  C21_30 
REMARK   18  A    between atoms: C20_29  and  C24_33 
REMARK   19  A    between atoms: C20_29  and  N6_40 
REMARK   20  A    between atoms: C21_30  and  C22_31 
REMARK   21  A    between atoms: C22_31  and  C23_32 
REMARK   22  A    between atoms: C23_32  and  O8_43 
REMARK   23  A    between atoms: C24_33  and  C25_34 
REMARK   24  A    between atoms: C28_38  and  O6_39 
REMARK   25  A    between atoms: C29_42  and  O8_43 
REMARK   26  A    between atoms: C29_42  and  C35_49 
ROOT
ATOM      1  C14 non d ame     -11.877  13.959  69.692  0.00  0.00     0.089 C 
ATOM      2  H20 non d ame     -12.931  13.978  69.412  0.00  0.00     0.087 H 
ENDROOT
BRANCH   1   3
ATOM      3  N4  non d ame     -11.573  12.617  70.165  0.00  0.00    -0.346 N 
ATOM      4  C10 non d ame     -11.870  11.418  69.300  0.00  0.00     0.241 C 
ATOM      5  O4  non d ame     -12.357  11.559  68.226  0.00  0.00    -0.271 OA
ATOM      6  H19 non d ame     -11.162  12.518  71.083  0.00  0.00     0.163 HD
BRANCH   4   7
ATOM      7  C9  non d ame     -11.544  10.037  69.803  0.00  0.00     0.092 C 
ATOM      8  H11 non d ame     -11.622   9.327  68.980  0.00  0.00     0.088 H 
BRANCH   7   9
ATOM      9  N3  non d ame     -10.157  10.003  70.276  0.00  0.00    -0.346 N 
ATOM     10  C7  non d ame      -9.089   9.706  69.353  0.00  0.00     0.240 C 
ATOM     11  O3  non d ame      -9.328   9.489  68.228  0.00  0.00    -0.271 OA
ATOM     12  H10 non d ame      -9.935  10.186  71.244  0.00  0.00     0.163 HD
BRANCH  10  13
ATOM     13  C6  non d ame      -7.614   9.668  69.862  0.00  0.00     0.086 C 
ATOM     14  H6  non d ame      -6.948   9.136  69.184  0.00  0.00     0.086 H 
BRANCH  13  15
ATOM     15  N2  non d ame      -7.113  11.029  69.955  0.00  0.00    -0.343 N 
ATOM     16  C5  non d ame      -6.283  11.567  68.875  0.00  0.00     0.273 C 
ATOM     17  O2  non d ame      -6.021  10.896  67.938  0.00  0.00    -0.266 OA
ATOM     18  H5  non d ame      -7.339  11.595  70.761  0.00  0.00     0.163 HD
BRANCH  16  19
ATOM     19  C4  non d ame      -5.747  13.005  68.959  0.00  0.00     0.154 A 
ATOM     20  C1  non d ame      -6.342  14.183  68.406  0.00  0.00    -0.017 A 
ATOM     21  C2  non d ame      -5.466  15.233  68.760  0.00  0.00     0.077 A 
ATOM     22  H1  non d ame      -7.267  14.263  67.834  0.00  0.00     0.091 H 
ATOM     23  O1  non d ame      -4.487  14.709  69.438  0.00  0.00    -0.218 OA
ATOM     24  N1  non d ame      -4.629  13.411  69.568  0.00  0.00    -0.123 NA
BRANCH  21  25
ATOM     25  C3  non d ame      -5.637  16.706  68.412  0.00  0.00    -0.029 C 
ATOM     26  H2  non d ame      -4.686  17.111  68.066  0.00  0.00     0.036 H 
ATOM     27  H3  non d ame      -6.384  16.809  67.625  0.00  0.00     0.036 H 
ATOM     28  H4  non d ame      -5.964  17.253  69.297  0.00  0.00     0.036 H 
ENDBRANCH  21  25
ENDBRANCH  16  19
ENDBRANCH  13  15
BRANCH  13  29
ATOM     29  C8  non d ame      -7.564   9.006  71.215  0.00  0.00    -0.049 C 
ATOM     30  H7  non d ame      -7.043   9.655  71.919  0.00  0.00     0.030 H 
ATOM     31  H8  non d ame      -8.579   8.826  71.570  0.00  0.00     0.030 H 
ATOM     32  H9  non d ame      -7.033   8.057  71.136  0.00  0.00     0.030 H 
ENDBRANCH  13  29
ENDBRANCH  10  13
ENDBRANCH   7   9
BRANCH   7  33
ATOM     33  C11 non d ame     -12.498   9.675  70.979  0.00  0.00    -0.033 C 
ATOM     34  H12 non d ame     -13.321   9.091  70.567  0.00  0.00     0.042 H 
BRANCH  33  35
ATOM     35  C12 non d ame     -11.779   8.787  72.043  0.00  0.00    -0.071 C 
ATOM     36  H13 non d ame     -12.383   7.903  72.246  0.00  0.00     0.028 H 
ATOM     37  H14 non d ame     -10.805   8.482  71.661  0.00  0.00     0.028 H 
ATOM     38  H15 non d ame     -11.648   9.357  72.962  0.00  0.00     0.028 H 
ENDBRANCH  33  35
BRANCH  33  39
ATOM     39  C13 non d ame     -13.099  10.963  71.629  0.00  0.00    -0.071 C 
ATOM     40  H16 non d ame     -13.931  10.689  72.277  0.00  0.00     0.028 H 
ATOM     41  H17 non d ame     -12.330  11.465  72.218  0.00  0.00     0.028 H 
ATOM     42  H18 non d ame     -13.452  11.633  70.846  0.00  0.00     0.028 H 
ENDBRANCH  33  39
ENDBRANCH   7  33
ENDBRANCH   4   7
ENDBRANCH   1   3
BRANCH   1  43
ATOM     43  C15 non d ame     -10.945  14.283  68.489  0.00  0.00     0.240 C 
ATOM     44  O5  non d ame      -9.765  14.271  68.636  0.00  0.00    -0.271 OA
ATOM     45  N6  non d ame     -11.522  14.598  67.152  0.00  0.00    -0.355 N 
ATOM     46  H46 non d ame     -12.522  14.606  67.014  0.00  0.00     0.162 HD
BRANCH  45  47
ATOM     47  C20 non d ame     -10.622  14.902  66.018  0.00  0.00     0.013 C 
ATOM     48  H30 non d ame      -9.639  14.497  66.253  0.00  0.00     0.072 H 
BRANCH  47  49
ATOM     49  C21 non d ame     -10.534  16.401  65.839  0.00  0.00    -0.038 C 
ATOM     50  H31 non d ame     -10.326  16.560  64.781  0.00  0.00     0.036 H 
ATOM     51  H32 non d ame     -11.444  16.805  66.283  0.00  0.00     0.036 H 
BRANCH  49  52
ATOM     52  C22 non d ame      -9.355  17.029  66.614  0.00  0.00     0.018 C 
ATOM     53  H33 non d ame      -8.755  16.190  66.969  0.00  0.00     0.048 H 
ATOM     54  H34 non d ame      -8.917  17.765  65.940  0.00  0.00     0.048 H 
BRANCH  52  55
ATOM     55  C23 non d ame      -9.787  17.814  67.883  0.00  0.00     0.259 C 
ATOM     56  O7  non d ame     -10.857  17.634  68.369  0.00  0.00    -0.265 OA
BRANCH  55  57
ATOM     57  O8  non d ame      -8.894  18.763  68.453  0.00  0.00    -0.317 OA
BRANCH  57  58
ATOM     58  C29 non d ame      -8.762  19.968  67.694  0.00  0.00     0.052 C 
ATOM     59  H47 non d ame      -9.195  19.750  66.718  0.00  0.00     0.082 H 
ATOM     60  H48 non d ame      -9.189  20.756  68.315  0.00  0.00     0.082 H 
BRANCH  58  61
ATOM     61  C35 non d ame      -7.249  20.255  67.509  0.00  0.00    -0.034 A 
ATOM     62  C30 non d ame      -6.426  20.404  68.621  0.00  0.00    -0.075 A 
ATOM     63  C31 non d ame      -5.066  20.661  68.455  0.00  0.00    -0.082 A 
ATOM     64  H49 non d ame      -6.847  20.318  69.623  0.00  0.00     0.084 H 
ATOM     65  C32 non d ame      -4.529  20.772  67.170  0.00  0.00    -0.083 A 
ATOM     66  H50 non d ame      -4.424  20.775  69.329  0.00  0.00     0.083 H 
ATOM     67  C33 non d ame      -5.354  20.626  66.063  0.00  0.00    -0.082 A 
ATOM     68  H51 non d ame      -3.467  20.973  67.031  0.00  0.00     0.083 H 
ATOM     69  C34 non d ame      -6.714  20.367  66.224  0.00  0.00    -0.075 A 
ATOM     70  H52 non d ame      -4.933  20.716  65.061  0.00  0.00     0.083 H 
ATOM     71  H53 non d ame      -7.355  20.252  65.350  0.00  0.00     0.084 H 
ENDBRANCH  58  61
ENDBRANCH  57  58
ENDBRANCH  55  57
ENDBRANCH  52  55
ENDBRANCH  49  52
ENDBRANCH  47  49
BRANCH  47  72
ATOM     72  C24 non d ame     -11.168  14.267  64.741  0.00  0.00    -0.039 C 
ATOM     73  H35 non d ame     -12.114  14.774  64.546  0.00  0.00     0.036 H 
ATOM     74  H36 non d ame     -10.356  14.331  64.016  0.00  0.00     0.036 H 
BRANCH  72  75
ATOM     75  C25 non d ame     -11.498  12.713  64.946  0.00  0.00    -0.001 C 
ATOM     76  C26 non d ame     -10.127  11.898  65.347  0.00  0.00    -0.035 C 
ATOM     77  C27 non d ame      -9.996  10.831  64.522  0.00  0.00     0.085 C 
ATOM     78  H38 non d ame      -9.251  12.505  65.119  0.00  0.00     0.036 H 
ATOM     79  H39 non d ame     -10.236  11.446  66.333  0.00  0.00     0.036 H 
ATOM     80  N5  non d ame     -10.973  11.028  63.388  0.00  0.00    -0.049 N 
ATOM     81  H40 non d ame      -8.980  10.889  64.130  0.00  0.00     0.075 H 
ATOM     82  H41 non d ame     -10.306   9.969  65.111  0.00  0.00     0.075 H 
ATOM     83  C28 non d ame     -11.983  12.192  63.869  0.00  0.00     0.193 C 
ATOM     84  H42 non d ame     -10.436  11.372  62.604  0.00  0.00     0.280 HD
ATOM     85  H43 non d ame     -11.493  10.166  63.304  0.00  0.00     0.280 HD
ATOM     86  H44 non d ame     -12.991  11.947  64.204  0.00  0.00     0.129 H 
ATOM     87  H37 non d ame     -12.371  12.556  65.579  0.00  0.00     0.046 H 
BRANCH  83  88
ATOM     88  O6  non d ame     -12.151  13.159  62.831  0.00  0.00    -0.369 OA
ATOM     89  H45 non d ame     -11.708  13.974  63.078  0.00  0.00     0.212 HD
ENDBRANCH  83  88
ENDBRANCH  72  75
ENDBRANCH  47  72
ENDBRANCH  45  47
ENDBRANCH   1  43
BRANCH   1  90
ATOM     90  C16 non d ame     -11.624  14.950  70.816  0.00  0.00    -0.035 C 
ATOM     91  H21 non d ame     -11.108  14.383  71.591  0.00  0.00     0.037 H 
ATOM     92  H22 non d ame     -11.132  15.802  70.345  0.00  0.00     0.037 H 
BRANCH  90  93
ATOM     93  C17 non d ame     -12.931  15.502  71.470  0.00  0.00    -0.059 C 
ATOM     94  H23 non d ame     -13.215  16.405  70.930  0.00  0.00     0.038 H 
BRANCH  93  95
ATOM     95  C18 non d ame     -14.116  14.490  71.363  0.00  0.00    -0.073 C 
ATOM     96  H24 non d ame     -14.700  14.517  72.283  0.00  0.00     0.028 H 
ATOM     97  H25 non d ame     -14.752  14.763  70.521  0.00  0.00     0.028 H 
ATOM     98  H26 non d ame     -13.723  13.485  71.211  0.00  0.00     0.028 H 
ENDBRANCH  93  95
BRANCH  93  99
ATOM     99  C19 non d ame     -12.686  15.902  72.927  0.00  0.00    -0.073 C 
ATOM    100  H27 non d ame     -12.006  15.187  73.391  0.00  0.00     0.028 H 
ATOM    101  H28 non d ame     -12.244  16.898  72.961  0.00  0.00     0.028 H 
ATOM    102  H29 non d ame     -13.633  15.907  73.467  0.00  0.00     0.028 H 
ENDBRANCH  93  99
ENDBRANCH  90  93
ENDBRANCH   1  90
TORSDOF 26
ENDMDL
MODEL 18
REMARK VINA RESULT:      -6.9      3.202      8.780
REMARK  26 active torsions:
REMARK  status: ('A' for Active; 'I' for Inactive)
REMARK    1  A    between atoms: C2_2  and  C3_3 
REMARK    2  A    between atoms: C4_6  and  C5_7 
REMARK       I    between atoms: C5_7  and  N2_9 
REMARK    3  A    between atoms: N2_9  and  C6_10 
REMARK    4  A    between atoms: C6_10  and  C7_11 
REMARK    5  A    between atoms: C6_10  and  C8_13 
REMARK       I    between atoms: C7_11  and  N3_14 
REMARK    6  A    between atoms: N3_14  and  C9_15 
REMARK    7  A    between atoms: C9_15  and  C10_16 
REMARK    8  A    between atoms: C9_15  and  C11_18 
REMARK       I    between atoms: C10_16  and  N4_21 
REMARK    9  A    between atoms: C11_18  and  C12_19 
REMARK   10  A    between atoms: C11_18  and  C13_20 
REMARK   11  A    between atoms: N4_21  and  C14_22 
REMARK   12  A    between atoms: C14_22  and  C15_23 
REMARK   13  A    between atoms: C14_22  and  C16_25 
REMARK       I    between atoms: C15_23  and  N6_40 
REMARK   14  A    between atoms: C16_25  and  C17_26 
REMARK   15  A    between atoms: C17_26  and  C18_27 
REMARK   16  A    between atoms: C17_26  and  C19_28 
REMARK   17  A    between atoms: C20_29  and  C21_30 
REMARK   18  A    between atoms: C20_29  and  C24_33 
REMARK   19  A    between atoms: C20_29  and  N6_40 
REMARK   20  A    between atoms: C21_30  and  C22_31 
REMARK   21  A    between atoms: C22_31  and  C23_32 
REMARK   22  A    between atoms: C23_32  and  O8_43 
REMARK   23  A    between atoms: C24_33  and  C25_34 
REMARK   24  A    between atoms: C28_38  and  O6_39 
REMARK   25  A    between atoms: C29_42  and  O8_43 
REMARK   26  A    between atoms: C29_42  and  C35_49 
ROOT
ATOM      1  C14 non d ame      -9.886   9.419  70.075  0.00  0.00     0.089 C 
ATOM      2  H20 non d ame      -9.950   8.576  69.386  0.00  0.00     0.087 H 
ENDROOT
BRANCH   1   3
ATOM      3  N4  non d ame      -8.573  10.022  69.909  0.00  0.00    -0.346 N 
ATOM      4  C10 non d ame      -7.805   9.835  68.624  0.00  0.00     0.241 C 
ATOM      5  O4  non d ame      -8.265   9.192  67.739  0.00  0.00    -0.271 OA
ATOM      6  H19 non d ame      -8.198  10.564  70.675  0.00  0.00     0.163 HD
BRANCH   4   7
ATOM      7  C9  non d ame      -6.449  10.472  68.467  0.00  0.00     0.092 C 
ATOM      8  H11 non d ame      -6.269  10.675  67.412  0.00  0.00     0.088 H 
BRANCH   7   9
ATOM      9  N3  non d ame      -6.430  11.760  69.166  0.00  0.00    -0.346 N 
ATOM     10  C7  non d ame      -6.042  12.957  68.461  0.00  0.00     0.240 C 
ATOM     11  O3  non d ame      -5.742  12.901  67.331  0.00  0.00    -0.271 OA
ATOM     12  H10 non d ame      -6.685  11.824  70.141  0.00  0.00     0.163 HD
BRANCH  10  13
ATOM     13  C6  non d ame      -6.021  14.325  69.211  0.00  0.00     0.086 C 
ATOM     14  H6  non d ame      -5.165  14.942  68.939  0.00  0.00     0.086 H 
BRANCH  13  15
ATOM     15  N2  non d ame      -7.209  15.080  68.850  0.00  0.00    -0.343 N 
ATOM     16  C5  non d ame      -7.097  16.514  68.573  0.00  0.00     0.273 C 
ATOM     17  O2  non d ame      -6.046  17.051  68.648  0.00  0.00    -0.266 OA
ATOM     18  H5  non d ame      -8.103  14.613  68.791  0.00  0.00     0.163 HD
BRANCH  16  19
ATOM     19  C4  non d ame      -8.344  17.324  68.188  0.00  0.00     0.154 A 
ATOM     20  C1  non d ame      -8.492  18.204  67.070  0.00  0.00    -0.017 A 
ATOM     21  C2  non d ame      -9.814  18.694  67.165  0.00  0.00     0.077 A 
ATOM     22  H1  non d ame      -7.754  18.450  66.307  0.00  0.00     0.091 H 
ATOM     23  O1  non d ame     -10.353  18.151  68.217  0.00  0.00    -0.218 OA
ATOM     24  N1  non d ame      -9.515  17.348  68.831  0.00  0.00    -0.123 NA
BRANCH  21  25
ATOM     25  C3  non d ame     -10.483  19.675  66.212  0.00  0.00    -0.029 C 
ATOM     26  H2  non d ame     -10.368  19.322  65.187  0.00  0.00     0.036 H 
ATOM     27  H3  non d ame     -11.544  19.750  66.453  0.00  0.00     0.036 H 
ATOM     28  H4  non d ame     -10.018  20.656  66.313  0.00  0.00     0.036 H 
ENDBRANCH  21  25
ENDBRANCH  16  19
ENDBRANCH  13  15
BRANCH  13  29
ATOM     29  C8  non d ame      -5.995  14.085  70.699  0.00  0.00    -0.049 C 
ATOM     30  H7  non d ame      -6.941  14.405  71.136  0.00  0.00     0.030 H 
ATOM     31  H8  non d ame      -5.846  13.022  70.893  0.00  0.00     0.030 H 
ATOM     32  H9  non d ame      -5.179  14.654  71.144  0.00  0.00     0.030 H 
ENDBRANCH  13  29
ENDBRANCH  10  13
ENDBRANCH   7   9
BRANCH   7  33
ATOM     33  C11 non d ame      -5.364   9.537  69.078  0.00  0.00    -0.033 C 
ATOM     34  H12 non d ame      -5.818   8.558  69.224  0.00  0.00     0.042 H 
BRANCH  33  35
ATOM     35  C12 non d ame      -4.158   9.355  68.104  0.00  0.00    -0.071 C 
ATOM     36  H13 non d ame      -4.217  10.099  67.309  0.00  0.00     0.028 H 
ATOM     37  H14 non d ame      -3.226   9.484  68.652  0.00  0.00     0.028 H 
ATOM     38  H15 non d ame      -4.190   8.356  67.670  0.00  0.00     0.028 H 
ENDBRANCH  33  35
BRANCH  33  39
ATOM     39  C13 non d ame      -4.892  10.064  70.471  0.00  0.00    -0.071 C 
ATOM     40  H16 non d ame      -5.106  11.130  70.548  0.00  0.00     0.028 H 
ATOM     41  H17 non d ame      -5.421   9.529  71.260  0.00  0.00     0.028 H 
ATOM     42  H18 non d ame      -3.820   9.899  70.577  0.00  0.00     0.028 H 
ENDBRANCH  33  39
ENDBRANCH   7  33
ENDBRANCH   4   7
ENDBRANCH   1   3
BRANCH   1  43
ATOM     43  C15 non d ame     -10.968  10.498  69.783  0.00  0.00     0.240 C 
ATOM     44  O5  non d ame     -12.109  10.274  70.030  0.00  0.00    -0.271 OA
ATOM     45  N6  non d ame     -10.580  11.816  69.204  0.00  0.00    -0.355 N 
ATOM     46  H46 non d ame      -9.614  12.020  68.995  0.00  0.00     0.162 HD
BRANCH  45  47
ATOM     47  C20 non d ame     -11.620  12.832  68.934  0.00  0.00     0.013 C 
ATOM     48  H30 non d ame     -12.494  12.587  69.539  0.00  0.00     0.072 H 
BRANCH  47  49
ATOM     49  C21 non d ame     -11.982  12.800  67.467  0.00  0.00    -0.038 C 
ATOM     50  H31 non d ame     -12.401  11.809  67.288  0.00  0.00     0.036 H 
ATOM     51  H32 non d ame     -12.589  13.688  67.293  0.00  0.00     0.036 H 
BRANCH  49  52
ATOM     52  C22 non d ame     -10.751  12.925  66.543  0.00  0.00     0.018 C 
ATOM     53  H33 non d ame     -10.221  13.818  66.877  0.00  0.00     0.048 H 
ATOM     54  H34 non d ame     -10.256  11.954  66.576  0.00  0.00     0.048 H 
BRANCH  52  55
ATOM     55  C23 non d ame     -11.110  13.173  65.051  0.00  0.00     0.259 C 
ATOM     56  O7  non d ame     -11.941  13.969  64.755  0.00  0.00    -0.265 OA
BRANCH  55  57
ATOM     57  O8  non d ame     -10.441  12.428  64.041  0.00  0.00    -0.317 OA
BRANCH  57  58
ATOM     58  C29 non d ame     -10.499  11.011  64.228  0.00  0.00     0.052 C 
ATOM     59  H47 non d ame     -10.302  10.845  65.287  0.00  0.00     0.082 H 
ATOM     60  H48 non d ame     -11.448  10.695  63.794  0.00  0.00     0.082 H 
BRANCH  58  61
ATOM     61  C35 non d ame      -9.348  10.372  63.407  0.00  0.00    -0.034 A 
ATOM     62  C30 non d ame      -8.839  11.029  62.291  0.00  0.00    -0.075 A 
ATOM     63  C31 non d ame      -7.805  10.455  61.554  0.00  0.00    -0.082 A 
ATOM     64  H49 non d ame      -9.251  11.994  61.995  0.00  0.00     0.084 H 
ATOM     65  C32 non d ame      -7.280   9.217  61.935  0.00  0.00    -0.083 A 
ATOM     66  H50 non d ame      -7.407  10.973  60.682  0.00  0.00     0.083 H 
ATOM     67  C33 non d ame      -7.793   8.563  63.047  0.00  0.00    -0.082 A 
ATOM     68  H51 non d ame      -6.471   8.761  61.364  0.00  0.00     0.083 H 
ATOM     69  C34 non d ame      -8.825   9.134  63.788  0.00  0.00    -0.075 A 
ATOM     70  H52 non d ame      -7.383   7.596  63.340  0.00  0.00     0.083 H 
ATOM     71  H53 non d ame      -9.222   8.615  64.661  0.00  0.00     0.084 H 
ENDBRANCH  58  61
ENDBRANCH  57  58
ENDBRANCH  55  57
ENDBRANCH  52  55
ENDBRANCH  49  52
ENDBRANCH  47  49
BRANCH  47  72
ATOM     72  C24 non d ame     -11.094  14.219  69.299  0.00  0.00    -0.039 C 
ATOM     73  H35 non d ame     -10.019  14.097  69.428  0.00  0.00     0.036 H 
ATOM     74  H36 non d ame     -11.478  14.887  68.528  0.00  0.00     0.036 H 
BRANCH  72  75
ATOM     75  C25 non d ame     -11.683  14.726  70.700  0.00  0.00    -0.001 C 
ATOM     76  C26 non d ame     -12.657  13.571  71.349  0.00  0.00    -0.035 C 
ATOM     77  C27 non d ame     -13.844  14.136  71.678  0.00  0.00     0.085 C 
ATOM     78  H38 non d ame     -12.925  12.838  70.589  0.00  0.00     0.036 H 
ATOM     79  H39 non d ame     -12.257  13.242  72.309  0.00  0.00     0.036 H 
ATOM     80  N5  non d ame     -13.887  15.491  71.014  0.00  0.00    -0.049 N 
ATOM     81  H40 non d ame     -14.605  13.496  71.230  0.00  0.00     0.075 H 
ATOM     82  H41 non d ame     -13.813  14.271  72.759  0.00  0.00     0.075 H 
ATOM     83  C28 non d ame     -12.373  15.808  70.553  0.00  0.00     0.193 C 
ATOM     84  H42 non d ame     -14.460  15.387  70.189  0.00  0.00     0.280 HD
ATOM     85  H43 non d ame     -14.150  16.152  71.731  0.00  0.00     0.280 HD
ATOM     86  H44 non d ame     -11.759  16.513  71.114  0.00  0.00     0.129 H 
ATOM     87  H37 non d ame     -10.910  15.144  71.346  0.00  0.00     0.046 H 
BRANCH  83  88
ATOM     88  O6  non d ame     -12.357  16.278  69.204  0.00  0.00    -0.369 OA
ATOM     89  H45 non d ame     -12.953  17.026  69.119  0.00  0.00     0.212 HD
ENDBRANCH  83  88
ENDBRANCH  72  75
ENDBRANCH  47  72
ENDBRANCH  45  47
ENDBRANCH   1  43
BRANCH   1  90
ATOM     90  C16 non d ame     -10.029   8.926  71.506  0.00  0.00    -0.035 C 
ATOM     91  H21 non d ame      -9.071   9.140  71.982  0.00  0.00     0.037 H 
ATOM     92  H22 non d ame     -10.940   9.392  71.882  0.00  0.00     0.037 H 
BRANCH  90  93
ATOM     93  C17 non d ame     -10.242   7.383  71.619  0.00  0.00    -0.059 C 
ATOM     94  H23 non d ame      -9.332   6.897  71.269  0.00  0.00     0.038 H 
BRANCH  93  95
ATOM     95  C18 non d ame     -10.488   6.929  73.094  0.00  0.00    -0.073 C 
ATOM     96  H24 non d ame     -11.556   6.789  73.257  0.00  0.00     0.028 H 
ATOM     97  H25 non d ame      -9.966   5.989  73.276  0.00  0.00     0.028 H 
ATOM     98  H26 non d ame     -10.112   7.691  73.776  0.00  0.00     0.028 H 
ENDBRANCH  93  95
BRANCH  93  99
ATOM     99  C19 non d ame     -11.384   6.921  70.710  0.00  0.00    -0.073 C 
ATOM    100  H27 non d ame     -11.132   5.954  70.273  0.00  0.00     0.028 H 
ATOM    101  H28 non d ame     -12.299   6.829  71.294  0.00  0.00     0.028 H 
ATOM    102  H29 non d ame     -11.533   7.651  69.914  0.00  0.00     0.028 H 
ENDBRANCH  93  99
ENDBRANCH  90  93
ENDBRANCH   1  90
TORSDOF 26
ENDMDL
MODEL 19
REMARK VINA RESULT:      -6.9      3.047     10.269
REMARK  26 active torsions:
REMARK  status: ('A' for Active; 'I' for Inactive)
REMARK    1  A    between atoms: C2_2  and  C3_3 
REMARK    2  A    between atoms: C4_6  and  C5_7 
REMARK       I    between atoms: C5_7  and  N2_9 
REMARK    3  A    between atoms: N2_9  and  C6_10 
REMARK    4  A    between atoms: C6_10  and  C7_11 
REMARK    5  A    between atoms: C6_10  and  C8_13 
REMARK       I    between atoms: C7_11  and  N3_14 
REMARK    6  A    between atoms: N3_14  and  C9_15 
REMARK    7  A    between atoms: C9_15  and  C10_16 
REMARK    8  A    between atoms: C9_15  and  C11_18 
REMARK       I    between atoms: C10_16  and  N4_21 
REMARK    9  A    between atoms: C11_18  and  C12_19 
REMARK   10  A    between atoms: C11_18  and  C13_20 
REMARK   11  A    between atoms: N4_21  and  C14_22 
REMARK   12  A    between atoms: C14_22  and  C15_23 
REMARK   13  A    between atoms: C14_22  and  C16_25 
REMARK       I    between atoms: C15_23  and  N6_40 
REMARK   14  A    between atoms: C16_25  and  C17_26 
REMARK   15  A    between atoms: C17_26  and  C18_27 
REMARK   16  A    between atoms: C17_26  and  C19_28 
REMARK   17  A    between atoms: C20_29  and  C21_30 
REMARK   18  A    between atoms: C20_29  and  C24_33 
REMARK   19  A    between atoms: C20_29  and  N6_40 
REMARK   20  A    between atoms: C21_30  and  C22_31 
REMARK   21  A    between atoms: C22_31  and  C23_32 
REMARK   22  A    between atoms: C23_32  and  O8_43 
REMARK   23  A    between atoms: C24_33  and  C25_34 
REMARK   24  A    between atoms: C28_38  and  O6_39 
REMARK   25  A    between atoms: C29_42  and  O8_43 
REMARK   26  A    between atoms: C29_42  and  C35_49 
ROOT
ATOM      1  C14 non d ame      -6.568  13.725  67.933  0.00  0.00     0.089 C 
ATOM      2  H20 non d ame      -5.932  13.683  67.049  0.00  0.00     0.087 H 
ENDROOT
BRANCH   1   3
ATOM      3  N4  non d ame      -6.872  15.126  68.187  0.00  0.00    -0.346 N 
ATOM      4  C10 non d ame      -5.991  16.211  67.623  0.00  0.00     0.241 C 
ATOM      5  O4  non d ame      -5.040  15.933  66.969  0.00  0.00    -0.271 OA
ATOM      6  H19 non d ame      -7.684  15.341  68.748  0.00  0.00     0.163 HD
BRANCH   4   7
ATOM      7  C9  non d ame      -6.324  17.656  67.891  0.00  0.00     0.092 C 
ATOM      8  H11 non d ame      -6.035  18.256  67.029  0.00  0.00     0.088 H 
BRANCH   7   9
ATOM      9  N3  non d ame      -7.774  17.801  68.054  0.00  0.00    -0.346 N 
ATOM     10  C7  non d ame      -8.610  18.016  66.899  0.00  0.00     0.240 C 
ATOM     11  O3  non d ame      -8.133  18.076  65.831  0.00  0.00    -0.271 OA
ATOM     12  H10 non d ame      -8.199  17.753  68.968  0.00  0.00     0.163 HD
BRANCH  10  13
ATOM     13  C6  non d ame     -10.152  18.173  67.078  0.00  0.00     0.086 C 
ATOM     14  H6  non d ame     -10.721  17.681  66.290  0.00  0.00     0.086 H 
BRANCH  13  15
ATOM     15  N2  non d ame     -10.547  17.547  68.329  0.00  0.00    -0.343 N 
ATOM     16  C5  non d ame     -11.101  16.191  68.313  0.00  0.00     0.273 C 
ATOM     17  O2  non d ame     -11.228  15.615  67.289  0.00  0.00    -0.266 OA
ATOM     18  H5  non d ame     -10.438  18.048  69.199  0.00  0.00     0.163 HD
BRANCH  16  19
ATOM     19  C4  non d ame     -11.522  15.516  69.628  0.00  0.00     0.154 A 
ATOM     20  C1  non d ame     -11.593  16.117  70.924  0.00  0.00    -0.017 A 
ATOM     21  C2  non d ame     -12.029  15.082  71.781  0.00  0.00     0.077 A 
ATOM     22  H1  non d ame     -11.363  17.146  71.201  0.00  0.00     0.091 H 
ATOM     23  O1  non d ame     -12.188  14.017  71.052  0.00  0.00    -0.218 OA
ATOM     24  N1  non d ame     -11.898  14.245  69.792  0.00  0.00    -0.123 NA
BRANCH  21  25
ATOM     25  C3  non d ame     -12.269  15.195  73.281  0.00  0.00    -0.029 C 
ATOM     26  H2  non d ame     -13.331  15.068  73.490  0.00  0.00     0.036 H 
ATOM     27  H3  non d ame     -11.702  14.421  73.799  0.00  0.00     0.036 H 
ATOM     28  H4  non d ame     -11.945  16.176  73.629  0.00  0.00     0.036 H 
ENDBRANCH  21  25
ENDBRANCH  16  19
ENDBRANCH  13  15
BRANCH  13  29
ATOM     29  C8  non d ame     -10.512  19.637  67.098  0.00  0.00    -0.049 C 
ATOM     30  H7  non d ame     -10.072  20.108  67.977  0.00  0.00     0.030 H 
ATOM     31  H8  non d ame     -10.128  20.118  66.198  0.00  0.00     0.030 H 
ATOM     32  H9  non d ame     -11.596  19.744  67.133  0.00  0.00     0.030 H 
ENDBRANCH  13  29
ENDBRANCH  10  13
ENDBRANCH   7   9
BRANCH   7  33
ATOM     33  C11 non d ame      -5.610  18.119  69.195  0.00  0.00    -0.033 C 
ATOM     34  H12 non d ame      -5.714  17.320  69.929  0.00  0.00     0.042 H 
BRANCH  33  35
ATOM     35  C12 non d ame      -4.083  18.341  68.958  0.00  0.00    -0.071 C 
ATOM     36  H13 non d ame      -3.524  17.508  69.385  0.00  0.00     0.028 H 
ATOM     37  H14 non d ame      -3.887  18.399  67.888  0.00  0.00     0.028 H 
ATOM     38  H15 non d ame      -3.773  19.270  69.436  0.00  0.00     0.028 H 
ENDBRANCH  33  35
BRANCH  33  39
ATOM     39  C13 non d ame      -6.285  19.402  69.777  0.00  0.00    -0.071 C 
ATOM     40  H16 non d ame      -7.079  19.731  69.106  0.00  0.00     0.028 H 
ATOM     41  H17 non d ame      -6.708  19.177  70.757  0.00  0.00     0.028 H 
ATOM     42  H18 non d ame      -5.541  20.192  69.874  0.00  0.00     0.028 H 
ENDBRANCH  33  39
ENDBRANCH   7  33
ENDBRANCH   4   7
ENDBRANCH   1   3
BRANCH   1  43
ATOM     43  C15 non d ame      -7.905  12.956  67.732  0.00  0.00     0.240 C 
ATOM     44  O5  non d ame      -8.866  13.268  68.358  0.00  0.00    -0.271 OA
ATOM     45  N6  non d ame      -7.990  11.837  66.751  0.00  0.00    -0.355 N 
ATOM     46  H46 non d ame      -7.182  11.566  66.210  0.00  0.00     0.162 HD
BRANCH  45  47
ATOM     47  C20 non d ame      -9.269  11.116  66.571  0.00  0.00     0.013 C 
ATOM     48  H30 non d ame     -10.055  11.706  67.042  0.00  0.00     0.072 H 
BRANCH  47  49
ATOM     49  C21 non d ame      -9.175   9.759  67.229  0.00  0.00    -0.038 C 
ATOM     50  H31 non d ame      -8.329   9.260  66.757  0.00  0.00     0.036 H 
ATOM     51  H32 non d ame      -9.165   9.952  68.302  0.00  0.00     0.036 H 
BRANCH  49  52
ATOM     52  C22 non d ame     -10.411   8.874  66.956  0.00  0.00     0.018 C 
ATOM     53  H33 non d ame     -11.242   9.363  67.464  0.00  0.00     0.048 H 
ATOM     54  H34 non d ame     -10.440   8.732  65.875  0.00  0.00     0.048 H 
BRANCH  52  55
ATOM     55  C23 non d ame     -10.310   7.450  67.572  0.00  0.00     0.259 C 
ATOM     56  O7  non d ame      -9.937   6.534  66.913  0.00  0.00    -0.265 OA
BRANCH  55  57
ATOM     57  O8  non d ame     -10.680   7.251  68.930  0.00  0.00    -0.317 OA
BRANCH  57  58
ATOM     58  C29 non d ame     -10.383   8.360  69.784  0.00  0.00     0.052 C 
ATOM     59  H47 non d ame      -9.578   8.022  70.436  0.00  0.00     0.082 H 
ATOM     60  H48 non d ame     -10.227   9.209  69.120  0.00  0.00     0.082 H 
BRANCH  58  61
ATOM     61  C35 non d ame     -11.636   8.642  70.655  0.00  0.00    -0.034 A 
ATOM     62  C30 non d ame     -12.461   7.594  71.049  0.00  0.00    -0.075 A 
ATOM     63  C31 non d ame     -13.587   7.848  71.832  0.00  0.00    -0.082 A 
ATOM     64  H49 non d ame     -12.227   6.574  70.745  0.00  0.00     0.084 H 
ATOM     65  C32 non d ame     -13.887   9.157  72.219  0.00  0.00    -0.083 A 
ATOM     66  H50 non d ame     -14.230   7.024  72.141  0.00  0.00     0.083 H 
ATOM     67  C33 non d ame     -13.062  10.200  71.821  0.00  0.00    -0.082 A 
ATOM     68  H51 non d ame     -14.764   9.364  72.832  0.00  0.00     0.083 H 
ATOM     69  C34 non d ame     -11.935   9.950  71.040  0.00  0.00    -0.075 A 
ATOM     70  H52 non d ame     -13.300  11.220  72.123  0.00  0.00     0.083 H 
ATOM     71  H53 non d ame     -11.292  10.775  70.732  0.00  0.00     0.084 H 
ENDBRANCH  58  61
ENDBRANCH  57  58
ENDBRANCH  55  57
ENDBRANCH  52  55
ENDBRANCH  49  52
ENDBRANCH  47  49
BRANCH  47  72
ATOM     72  C24 non d ame      -9.558  10.942  65.081  0.00  0.00    -0.039 C 
ATOM     73  H35 non d ame      -8.581  10.909  64.598  0.00  0.00     0.036 H 
ATOM     74  H36 non d ame     -10.228  10.085  65.014  0.00  0.00     0.036 H 
BRANCH  72  75
ATOM     75  C25 non d ame     -10.341  12.203  64.478  0.00  0.00    -0.001 C 
ATOM     76  C26 non d ame     -11.612  12.588  65.446  0.00  0.00    -0.035 C 
ATOM     77  C27 non d ame     -12.729  12.677  64.686  0.00  0.00     0.085 C 
ATOM     78  H38 non d ame     -11.830  11.763  66.124  0.00  0.00     0.036 H 
ATOM     79  H39 non d ame     -11.491  13.598  65.839  0.00  0.00     0.036 H 
ATOM     80  N5  non d ame     -12.399  12.068  63.344  0.00  0.00    -0.049 N 
ATOM     81  H40 non d ame     -13.473  12.054  65.185  0.00  0.00     0.075 H 
ATOM     82  H41 non d ame     -12.910  13.743  64.557  0.00  0.00     0.075 H 
ATOM     83  C28 non d ame     -10.790  11.951  63.293  0.00  0.00     0.193 C 
ATOM     84  H42 non d ame     -12.789  11.136  63.349  0.00  0.00     0.280 HD
ATOM     85  H43 non d ame     -12.695  12.736  62.646  0.00  0.00     0.280 HD
ATOM     86  H44 non d ame     -10.202  12.655  62.705  0.00  0.00     0.129 H 
ATOM     87  H37 non d ame      -9.666  13.013  64.199  0.00  0.00     0.046 H 
BRANCH  83  88
ATOM     88  O6  non d ame     -10.404  10.654  62.835  0.00  0.00    -0.369 OA
ATOM     89  H45 non d ame     -11.004   9.996  63.195  0.00  0.00     0.212 HD
ENDBRANCH  83  88
ENDBRANCH  72  75
ENDBRANCH  47  72
ENDBRANCH  45  47
ENDBRANCH   1  43
BRANCH   1  90
ATOM     90  C16 non d ame      -5.825  13.154  69.130  0.00  0.00    -0.035 C 
ATOM     91  H21 non d ame      -5.296  13.999  69.572  0.00  0.00     0.037 H 
ATOM     92  H22 non d ame      -6.578  12.620  69.709  0.00  0.00     0.037 H 
BRANCH  90  93
ATOM     93  C17 non d ame      -4.735  12.103  68.747  0.00  0.00    -0.059 C 
ATOM     94  H23 non d ame      -5.214  11.124  68.719  0.00  0.00     0.038 H 
BRANCH  93  95
ATOM     95  C18 non d ame      -4.124  12.374  67.335  0.00  0.00    -0.073 C 
ATOM     96  H24 non d ame      -3.819  13.418  67.266  0.00  0.00     0.028 H 
ATOM     97  H25 non d ame      -3.257  11.731  67.184  0.00  0.00     0.028 H 
ATOM     98  H26 non d ame      -4.871  12.162  66.570  0.00  0.00     0.028 H 
ENDBRANCH  93  95
BRANCH  93  99
ATOM     99  C19 non d ame      -3.637  12.041  69.812  0.00  0.00    -0.073 C 
ATOM    100  H27 non d ame      -3.273  11.017  69.900  0.00  0.00     0.028 H 
ATOM    101  H28 non d ame      -2.814  12.696  69.524  0.00  0.00     0.028 H 
ATOM    102  H29 non d ame      -4.041  12.367  70.770  0.00  0.00     0.028 H 
ENDBRANCH  93  99
ENDBRANCH  90  93
ENDBRANCH   1  90
TORSDOF 26
ENDMDL
MODEL 20
REMARK VINA RESULT:      -6.9      2.274      3.795
REMARK  26 active torsions:
REMARK  status: ('A' for Active; 'I' for Inactive)
REMARK    1  A    between atoms: C2_2  and  C3_3 
REMARK    2  A    between atoms: C4_6  and  C5_7 
REMARK       I    between atoms: C5_7  and  N2_9 
REMARK    3  A    between atoms: N2_9  and  C6_10 
REMARK    4  A    between atoms: C6_10  and  C7_11 
REMARK    5  A    between atoms: C6_10  and  C8_13 
REMARK       I    between atoms: C7_11  and  N3_14 
REMARK    6  A    between atoms: N3_14  and  C9_15 
REMARK    7  A    between atoms: C9_15  and  C10_16 
REMARK    8  A    between atoms: C9_15  and  C11_18 
REMARK       I    between atoms: C10_16  and  N4_21 
REMARK    9  A    between atoms: C11_18  and  C12_19 
REMARK   10  A    between atoms: C11_18  and  C13_20 
REMARK   11  A    between atoms: N4_21  and  C14_22 
REMARK   12  A    between atoms: C14_22  and  C15_23 
REMARK   13  A    between atoms: C14_22  and  C16_25 
REMARK       I    between atoms: C15_23  and  N6_40 
REMARK   14  A    between atoms: C16_25  and  C17_26 
REMARK   15  A    between atoms: C17_26  and  C18_27 
REMARK   16  A    between atoms: C17_26  and  C19_28 
REMARK   17  A    between atoms: C20_29  and  C21_30 
REMARK   18  A    between atoms: C20_29  and  C24_33 
REMARK   19  A    between atoms: C20_29  and  N6_40 
REMARK   20  A    between atoms: C21_30  and  C22_31 
REMARK   21  A    between atoms: C22_31  and  C23_32 
REMARK   22  A    between atoms: C23_32  and  O8_43 
REMARK   23  A    between atoms: C24_33  and  C25_34 
REMARK   24  A    between atoms: C28_38  and  O6_39 
REMARK   25  A    between atoms: C29_42  and  O8_43 
REMARK   26  A    between atoms: C29_42  and  C35_49 
ROOT
ATOM      1  C14 non d ame     -11.127   9.504  69.381  0.00  0.00     0.089 C 
ATOM      2  H20 non d ame     -12.058   8.999  69.119  0.00  0.00     0.087 H 
ENDROOT
BRANCH   1   3
ATOM      3  N4  non d ame     -10.115   8.478  69.583  0.00  0.00    -0.346 N 
ATOM      4  C10 non d ame     -10.520   7.055  69.873  0.00  0.00     0.241 C 
ATOM      5  O4  non d ame     -11.667   6.759  69.943  0.00  0.00    -0.271 OA
ATOM      6  H19 non d ame      -9.144   8.750  69.522  0.00  0.00     0.163 HD
BRANCH   4   7
ATOM      7  C9  non d ame      -9.459   6.005  70.074  0.00  0.00     0.092 C 
ATOM      8  H11 non d ame      -9.934   5.062  70.345  0.00  0.00     0.088 H 
BRANCH   7   9
ATOM      9  N3  non d ame      -8.745   5.784  68.813  0.00  0.00    -0.346 N 
ATOM     10  C7  non d ame      -8.973   4.576  68.058  0.00  0.00     0.240 C 
ATOM     11  O3  non d ame      -9.727   3.772  68.451  0.00  0.00    -0.271 OA
ATOM     12  H10 non d ame      -8.090   6.468  68.462  0.00  0.00     0.163 HD
BRANCH  10  13
ATOM     13  C6  non d ame      -8.208   4.346  66.718  0.00  0.00     0.086 C 
ATOM     14  H6  non d ame      -8.798   3.798  65.984  0.00  0.00     0.086 H 
BRANCH  13  15
ATOM     15  N2  non d ame      -7.898   5.635  66.124  0.00  0.00    -0.343 N 
ATOM     16  C5  non d ame      -8.171   5.859  64.703  0.00  0.00     0.273 C 
ATOM     17  O2  non d ame      -8.638   4.995  64.045  0.00  0.00    -0.266 OA
ATOM     18  H5  non d ame      -7.496   6.368  66.692  0.00  0.00     0.163 HD
BRANCH  16  19
ATOM     19  C4  non d ame      -7.850   7.219  64.062  0.00  0.00     0.154 A 
ATOM     20  C1  non d ame      -7.976   7.575  62.681  0.00  0.00    -0.017 A 
ATOM     21  C2  non d ame      -7.559   8.923  62.615  0.00  0.00     0.077 A 
ATOM     22  H1  non d ame      -8.317   6.951  61.855  0.00  0.00     0.091 H 
ATOM     23  O1  non d ame      -7.236   9.289  63.821  0.00  0.00    -0.218 OA
ATOM     24  N1  non d ame      -7.397   8.311  64.682  0.00  0.00    -0.123 NA
BRANCH  21  25
ATOM     25  C3  non d ame      -7.501   9.788  61.363  0.00  0.00    -0.029 C 
ATOM     26  H2  non d ame      -7.275  10.818  61.641  0.00  0.00     0.036 H 
ATOM     27  H3  non d ame      -6.723   9.413  60.698  0.00  0.00     0.036 H 
ATOM     28  H4  non d ame      -8.464   9.753  60.851  0.00  0.00     0.036 H 
ENDBRANCH  21  25
ENDBRANCH  16  19
ENDBRANCH  13  15
BRANCH  13  29
ATOM     29  C8  non d ame      -6.936   3.582  66.987  0.00  0.00    -0.049 C 
ATOM     30  H7  non d ame      -6.719   2.927  66.143  0.00  0.00     0.030 H 
ATOM     31  H8  non d ame      -6.113   4.284  67.124  0.00  0.00     0.030 H 
ATOM     32  H9  non d ame      -7.057   2.983  67.889  0.00  0.00     0.030 H 
ENDBRANCH  13  29
ENDBRANCH  10  13
ENDBRANCH   7   9
BRANCH   7  33
ATOM     33  C11 non d ame      -8.452   6.486  71.160  0.00  0.00    -0.033 C 
ATOM     34  H12 non d ame      -8.026   7.429  70.818  0.00  0.00     0.042 H 
BRANCH  33  35
ATOM     35  C12 non d ame      -9.169   6.760  72.518  0.00  0.00    -0.071 C 
ATOM     36  H13 non d ame      -9.042   7.808  72.791  0.00  0.00     0.028 H 
ATOM     37  H14 non d ame     -10.232   6.539  72.419  0.00  0.00     0.028 H 
ATOM     38  H15 non d ame      -8.736   6.128  73.292  0.00  0.00     0.028 H 
ENDBRANCH  33  35
BRANCH  33  39
ATOM     39  C13 non d ame      -7.284   5.462  71.333  0.00  0.00    -0.071 C 
ATOM     40  H16 non d ame      -7.546   4.740  72.106  0.00  0.00     0.028 H 
ATOM     41  H17 non d ame      -7.116   4.940  70.390  0.00  0.00     0.028 H 
ATOM     42  H18 non d ame      -6.377   5.992  71.622  0.00  0.00     0.028 H 
ENDBRANCH  33  39
ENDBRANCH   7  33
ENDBRANCH   4   7
ENDBRANCH   1   3
BRANCH   1  43
ATOM     43  C15 non d ame     -10.643  10.463  68.257  0.00  0.00     0.240 C 
ATOM     44  O5  non d ame      -9.688  10.179  67.608  0.00  0.00    -0.271 OA
ATOM     45  N6  non d ame     -11.374  11.733  67.983  0.00  0.00    -0.355 N 
ATOM     46  H46 non d ame     -12.189  11.983  68.525  0.00  0.00     0.162 HD
BRANCH  45  47
ATOM     47  C20 non d ame     -10.901  12.634  66.910  0.00  0.00     0.013 C 
ATOM     48  H30 non d ame     -10.137  12.105  66.340  0.00  0.00     0.072 H 
BRANCH  47  49
ATOM     49  C21 non d ame     -10.314  13.882  67.528  0.00  0.00    -0.038 C 
ATOM     50  H31 non d ame     -11.166  14.480  67.852  0.00  0.00     0.036 H 
ATOM     51  H32 non d ame      -9.583  13.533  68.257  0.00  0.00     0.036 H 
BRANCH  49  52
ATOM     52  C22 non d ame      -9.537  14.746  66.510  0.00  0.00     0.018 C 
ATOM     53  H33 non d ame      -8.583  14.976  66.985  0.00  0.00     0.048 H 
ATOM     54  H34 non d ame      -9.559  14.190  65.573  0.00  0.00     0.048 H 
BRANCH  52  55
ATOM     55  C23 non d ame     -10.208  16.116  66.211  0.00  0.00     0.259 C 
ATOM     56  O7  non d ame     -10.479  16.424  65.096  0.00  0.00    -0.265 OA
BRANCH  55  57
ATOM     57  O8  non d ame     -10.482  17.007  67.285  0.00  0.00    -0.317 OA
BRANCH  57  58
ATOM     58  C29 non d ame     -10.465  18.388  66.915  0.00  0.00     0.052 C 
ATOM     59  H47 non d ame     -10.524  18.403  65.827  0.00  0.00     0.082 H 
ATOM     60  H48 non d ame     -11.246  18.863  67.510  0.00  0.00     0.082 H 
BRANCH  58  61
ATOM     61  C35 non d ame      -9.096  18.981  67.341  0.00  0.00    -0.034 A 
ATOM     62  C30 non d ame      -8.531  20.024  66.613  0.00  0.00    -0.075 A 
ATOM     63  C31 non d ame      -7.301  20.556  66.995  0.00  0.00    -0.082 A 
ATOM     64  H49 non d ame      -9.053  20.424  65.744  0.00  0.00     0.084 H 
ATOM     65  C32 non d ame      -6.633  20.040  68.109  0.00  0.00    -0.083 A 
ATOM     66  H50 non d ame      -6.863  21.375  66.424  0.00  0.00     0.083 H 
ATOM     67  C33 non d ame      -7.198  18.998  68.830  0.00  0.00    -0.082 A 
ATOM     68  H51 non d ame      -5.671  20.451  68.415  0.00  0.00     0.083 H 
ATOM     69  C34 non d ame      -8.429  18.464  68.453  0.00  0.00    -0.075 A 
ATOM     70  H52 non d ame      -6.673  18.596  69.697  0.00  0.00     0.083 H 
ATOM     71  H53 non d ame      -8.867  17.645  69.025  0.00  0.00     0.084 H 
ENDBRANCH  58  61
ENDBRANCH  57  58
ENDBRANCH  55  57
ENDBRANCH  52  55
ENDBRANCH  49  52
ENDBRANCH  47  49
BRANCH  47  72
ATOM     72  C24 non d ame     -12.070  13.015  66.004  0.00  0.00    -0.039 C 
ATOM     73  H35 non d ame     -12.969  12.783  66.576  0.00  0.00     0.036 H 
ATOM     74  H36 non d ame     -11.873  14.041  65.691  0.00  0.00     0.036 H 
BRANCH  72  75
ATOM     75  C25 non d ame     -12.110  12.117  64.678  0.00  0.00    -0.001 C 
ATOM     76  C26 non d ame     -10.854  11.055  64.683  0.00  0.00    -0.035 C 
ATOM     77  C27 non d ame     -10.193  11.156  63.505  0.00  0.00     0.085 C 
ATOM     78  H38 non d ame     -10.111  11.359  65.419  0.00  0.00     0.036 H 
ATOM     79  H39 non d ame     -11.230  10.032  64.678  0.00  0.00     0.036 H 
ATOM     80  N5  non d ame     -10.682  12.414  62.830  0.00  0.00    -0.049 N 
ATOM     81  H40 non d ame      -9.142  11.279  63.770  0.00  0.00     0.075 H 
ATOM     82  H41 non d ame     -10.509  10.293  62.919  0.00  0.00     0.075 H 
ATOM     83  C28 non d ame     -12.024  12.847  63.616  0.00  0.00     0.193 C 
ATOM     84  H42 non d ame      -9.975  13.118  62.990  0.00  0.00     0.280 HD
ATOM     85  H43 non d ame     -10.932  12.154  61.887  0.00  0.00     0.280 HD
ATOM     86  H44 non d ame     -13.005  12.670  63.174  0.00  0.00     0.129 H 
ATOM     87  H37 non d ame     -13.103  11.710  64.484  0.00  0.00     0.046 H 
BRANCH  83  88
ATOM     88  O6  non d ame     -11.988  14.242  63.922  0.00  0.00    -0.369 OA
ATOM     89  H45 non d ame     -12.092  14.364  64.868  0.00  0.00     0.212 HD
ENDBRANCH  83  88
ENDBRANCH  72  75
ENDBRANCH  47  72
ENDBRANCH  45  47
ENDBRANCH   1  43
BRANCH   1  90
ATOM     90  C16 non d ame     -11.309  10.282  70.674  0.00  0.00    -0.035 C 
ATOM     91  H21 non d ame     -10.741   9.732  71.425  0.00  0.00     0.037 H 
ATOM     92  H22 non d ame     -11.040  11.310  70.432  0.00  0.00     0.037 H 
BRANCH  90  93
ATOM     93  C17 non d ame     -12.787  10.321  71.179  0.00  0.00    -0.059 C 
ATOM     94  H23 non d ame     -13.436  10.213  70.311  0.00  0.00     0.038 H 
BRANCH  93  95
ATOM     95  C18 non d ame     -13.105   9.147  72.161  0.00  0.00    -0.073 C 
ATOM     96  H24 non d ame     -13.230   8.224  71.595  0.00  0.00     0.028 H 
ATOM     97  H25 non d ame     -12.282   9.032  72.867  0.00  0.00     0.028 H 
ATOM     98  H26 non d ame     -14.023   9.368  72.705  0.00  0.00     0.028 H 
ENDBRANCH  93  95
BRANCH  93  99
ATOM     99  C19 non d ame     -13.109  11.671  71.823  0.00  0.00    -0.073 C 
ATOM    100  H27 non d ame     -12.186  12.232  71.974  0.00  0.00     0.028 H 
ATOM    101  H28 non d ame     -13.775  12.236  71.169  0.00  0.00     0.028 H 
ATOM    102  H29 non d ame     -13.597  11.509  72.784  0.00  0.00     0.028 H 
ENDBRANCH  93  99
ENDBRANCH  90  93
ENDBRANCH   1  90
TORSDOF 26
ENDMDL
