MODEL 1
REMARK VINA RESULT:      -6.9      0.000      0.000
REMARK  26 active torsions:
REMARK  status: ('A' for Active; 'I' for Inactive)
REMARK    1  A    between atoms: C2_2  and  C3_3 
REMARK    2  A    between atoms: C4_6  and  C5_7 
REMARK       I    between atoms: C5_7  and  N2_9 
REMARK    3  A    between atoms: N2_9  and  C6_10 
REMARK    4  A    between atoms: C6_10  and  C7_11 
REMARK    5  A    between atoms: C6_10  and  C8_13 
REMARK       I    between atoms: C7_11  and  N3_14 
REMARK    6  A    between atoms: N3_14  and  C9_15 
REMARK    7  A    between atoms: C9_15  and  C10_16 
REMARK    8  A    between atoms: C9_15  and  C11_18 
REMARK       I    between atoms: C10_16  and  N4_21 
REMARK    9  A    between atoms: C11_18  and  C12_19 
REMARK   10  A    between atoms: C11_18  and  C13_20 
REMARK   11  A    between atoms: N4_21  and  C14_22 
REMARK   12  A    between atoms: C14_22  and  C15_23 
REMARK   13  A    between atoms: C14_22  and  C16_25 
REMARK       I    between atoms: C15_23  and  N6_40 
REMARK   14  A    between atoms: C16_25  and  C17_26 
REMARK   15  A    between atoms: C17_26  and  C18_27 
REMARK   16  A    between atoms: C17_26  and  C19_28 
REMARK   17  A    between atoms: C20_29  and  C21_30 
REMARK   18  A    between atoms: C20_29  and  C24_33 
REMARK   19  A    between atoms: C20_29  and  N6_40 
REMARK   20  A    between atoms: C21_30  and  C22_31 
REMARK   21  A    between atoms: C22_31  and  C23_32 
REMARK   22  A    between atoms: C23_32  and  O8_43 
REMARK   23  A    between atoms: C24_33  and  C25_34 
REMARK   24  A    between atoms: C28_38  and  O6_39 
REMARK   25  A    between atoms: C29_42  and  O8_43 
REMARK   26  A    between atoms: C29_42  and  C35_49 
ROOT
ATOM      1  C14 non d ame     -11.926  13.994  69.655  0.00  0.00     0.089 C 
ATOM      2  H20 non d ame     -12.908  13.568  69.449  0.00  0.00     0.087 H 
ENDROOT
BRANCH   1   3
ATOM      3  N4  non d ame     -10.937  12.956  69.407  0.00  0.00    -0.346 N 
ATOM      4  C10 non d ame     -11.374  11.554  69.066  0.00  0.00     0.241 C 
ATOM      5  O4  non d ame     -12.528  11.284  69.001  0.00  0.00    -0.271 OA
ATOM      6  H19 non d ame      -9.960  13.206  69.469  0.00  0.00     0.163 HD
BRANCH   4   7
ATOM      7  C9  non d ame     -10.336  10.493  68.806  0.00  0.00     0.092 C 
ATOM      8  H11 non d ame     -10.255  10.327  67.732  0.00  0.00     0.088 H 
BRANCH   7   9
ATOM      9  N3  non d ame      -9.028  10.963  69.273  0.00  0.00    -0.346 N 
ATOM     10  C7  non d ame      -7.892  10.927  68.385  0.00  0.00     0.240 C 
ATOM     11  O3  non d ame      -8.012  10.522  67.294  0.00  0.00    -0.271 OA
ATOM     12  H10 non d ame      -8.909  11.314  70.212  0.00  0.00     0.163 HD
BRANCH  10  13
ATOM     13  C6  non d ame      -6.502  11.427  68.888  0.00  0.00     0.086 C 
ATOM     14  H6  non d ame      -5.687  11.150  68.219  0.00  0.00     0.086 H 
BRANCH  13  15
ATOM     15  N2  non d ame      -6.515  12.879  68.948  0.00  0.00    -0.343 N 
ATOM     16  C5  non d ame      -5.664  13.646  68.036  0.00  0.00     0.273 C 
ATOM     17  O2  non d ame      -4.970  13.086  67.260  0.00  0.00    -0.266 OA
ATOM     18  H5  non d ame      -7.110  13.349  69.615  0.00  0.00     0.163 HD
BRANCH  16  19
ATOM     19  C4  non d ame      -5.670  15.182  68.086  0.00  0.00     0.154 A 
ATOM     20  C1  non d ame      -5.883  16.008  69.235  0.00  0.00    -0.017 A 
ATOM     21  C2  non d ame      -5.789  17.333  68.752  0.00  0.00     0.077 A 
ATOM     22  H1  non d ame      -6.076  15.695  70.261  0.00  0.00     0.091 H 
ATOM     23  O1  non d ame      -5.548  17.264  67.476  0.00  0.00    -0.218 OA
ATOM     24  N1  non d ame      -5.475  16.019  67.064  0.00  0.00    -0.123 NA
BRANCH  21  25
ATOM     25  C3  non d ame      -5.940  18.605  69.575  0.00  0.00    -0.029 C 
ATOM     26  H2  non d ame      -5.132  18.664  70.305  0.00  0.00     0.036 H 
ATOM     27  H3  non d ame      -5.897  19.472  68.915  0.00  0.00     0.036 H 
ATOM     28  H4  non d ame      -6.899  18.591  70.094  0.00  0.00     0.036 H 
ENDBRANCH  21  25
ENDBRANCH  16  19
ENDBRANCH  13  15
BRANCH  13  29
ATOM     29  C8  non d ame      -6.225  10.856  70.256  0.00  0.00    -0.049 C 
ATOM     30  H7  non d ame      -7.166  10.587  70.735  0.00  0.00     0.030 H 
ATOM     31  H8  non d ame      -5.599   9.969  70.160  0.00  0.00     0.030 H 
ATOM     32  H9  non d ame      -5.710  11.601  70.862  0.00  0.00     0.030 H 
ENDBRANCH  13  29
ENDBRANCH  10  13
ENDBRANCH   7   9
BRANCH   7  33
ATOM     33  C11 non d ame     -10.720   9.193  69.573  0.00  0.00    -0.033 C 
ATOM     34  H12 non d ame     -11.802   9.197  69.705  0.00  0.00     0.042 H 
BRANCH  33  35
ATOM     35  C12 non d ame     -10.353   7.919  68.750  0.00  0.00    -0.071 C 
ATOM     36  H13 non d ame      -9.315   7.647  68.946  0.00  0.00     0.028 H 
ATOM     37  H14 non d ame     -11.005   7.097  69.044  0.00  0.00     0.028 H 
ATOM     38  H15 non d ame     -10.481   8.123  67.688  0.00  0.00     0.028 H 
ENDBRANCH  33  35
BRANCH  33  39
ATOM     39  C13 non d ame     -10.061   9.163  70.989  0.00  0.00    -0.071 C 
ATOM     40  H16 non d ame      -9.349   9.984  71.076  0.00  0.00     0.028 H 
ATOM     41  H17 non d ame     -10.833   9.269  71.752  0.00  0.00     0.028 H 
ATOM     42  H18 non d ame      -9.541   8.215  71.127  0.00  0.00     0.028 H 
ENDBRANCH  33  39
ENDBRANCH   7  33
ENDBRANCH   4   7
ENDBRANCH   1   3
BRANCH   1  43
ATOM     43  C15 non d ame     -11.609  15.210  68.739  0.00  0.00     0.240 C 
ATOM     44  O5  non d ame     -12.066  16.277  68.993  0.00  0.00    -0.271 OA
ATOM     45  N6  non d ame     -10.726  15.047  67.548  0.00  0.00    -0.355 N 
ATOM     46  H46 non d ame     -10.328  14.146  67.325  0.00  0.00     0.162 HD
BRANCH  45  47
ATOM     47  C20 non d ame     -10.433  16.213  66.687  0.00  0.00     0.013 C 
ATOM     48  H30 non d ame     -11.182  16.978  66.893  0.00  0.00     0.072 H 
BRANCH  47  49
ATOM     49  C21 non d ame     -10.507  15.794  65.236  0.00  0.00    -0.038 C 
ATOM     50  H31 non d ame     -11.043  16.594  64.726  0.00  0.00     0.036 H 
ATOM     51  H32 non d ame      -9.483  15.553  64.948  0.00  0.00     0.036 H 
BRANCH  49  52
ATOM     52  C22 non d ame     -11.335  14.508  65.025  0.00  0.00     0.018 C 
ATOM     53  H33 non d ame     -11.948  14.401  65.920  0.00  0.00     0.048 H 
ATOM     54  H34 non d ame     -11.809  14.619  64.050  0.00  0.00     0.048 H 
BRANCH  52  55
ATOM     55  C23 non d ame     -10.475  13.217  64.938  0.00  0.00     0.259 C 
ATOM     56  O7  non d ame      -9.906  12.805  65.897  0.00  0.00    -0.265 OA
BRANCH  55  57
ATOM     57  O8  non d ame     -10.363  12.536  63.694  0.00  0.00    -0.317 OA
BRANCH  57  58
ATOM     58  C29 non d ame     -10.547  11.121  63.786  0.00  0.00     0.052 C 
ATOM     59  H47 non d ame     -10.562  10.894  64.852  0.00  0.00     0.082 H 
ATOM     60  H48 non d ame     -11.416  10.895  63.169  0.00  0.00     0.082 H 
BRANCH  58  61
ATOM     61  C35 non d ame      -9.306  10.435  63.155  0.00  0.00    -0.034 A 
ATOM     62  C30 non d ame      -8.677  11.008  62.055  0.00  0.00    -0.075 A 
ATOM     63  C31 non d ame      -7.562  10.392  61.488  0.00  0.00    -0.082 A 
ATOM     64  H49 non d ame      -9.057  11.941  61.637  0.00  0.00     0.084 H 
ATOM     65  C32 non d ame      -7.078   9.196  62.025  0.00  0.00    -0.083 A 
ATOM     66  H50 non d ame      -7.070  10.845  60.628  0.00  0.00     0.083 H 
ATOM     67  C33 non d ame      -7.711   8.626  63.121  0.00  0.00    -0.082 A 
ATOM     68  H51 non d ame      -6.206   8.708  61.588  0.00  0.00     0.083 H 
ATOM     69  C34 non d ame      -8.824   9.239  63.692  0.00  0.00    -0.075 A 
ATOM     70  H52 non d ame      -7.332   7.691  63.536  0.00  0.00     0.083 H 
ATOM     71  H53 non d ame      -9.315   8.786  64.553  0.00  0.00     0.084 H 
ENDBRANCH  58  61
ENDBRANCH  57  58
ENDBRANCH  55  57
ENDBRANCH  52  55
ENDBRANCH  49  52
ENDBRANCH  47  49
BRANCH  47  72
ATOM     72  C24 non d ame      -9.034  16.743  66.995  0.00  0.00    -0.039 C 
ATOM     73  H35 non d ame      -8.702  16.192  67.875  0.00  0.00     0.036 H 
ATOM     74  H36 non d ame      -8.481  16.661  66.060  0.00  0.00     0.036 H 
BRANCH  72  75
ATOM     75  C25 non d ame      -9.063  18.295  67.392  0.00  0.00    -0.001 C 
ATOM     76  C26 non d ame     -10.598  18.874  67.278  0.00  0.00    -0.035 C 
ATOM     77  C27 non d ame     -10.585  19.999  66.523  0.00  0.00     0.085 C 
ATOM     78  H38 non d ame     -11.215  18.186  66.700  0.00  0.00     0.036 H 
ATOM     79  H39 non d ame     -10.939  19.225  68.252  0.00  0.00     0.036 H 
ATOM     80  N5  non d ame      -9.239  20.058  65.842  0.00  0.00    -0.049 N 
ATOM     81  H40 non d ame     -11.359  19.853  65.768  0.00  0.00     0.075 H 
ATOM     82  H41 non d ame     -10.662  20.824  67.230  0.00  0.00     0.075 H 
ATOM     83  C28 non d ame      -8.304  18.991  66.613  0.00  0.00     0.193 C 
ATOM     84  H42 non d ame      -9.382  19.736  64.896  0.00  0.00     0.280 HD
ATOM     85  H43 non d ame      -8.874  20.985  66.010  0.00  0.00     0.280 HD
ATOM     86  H44 non d ame      -7.548  19.328  67.322  0.00  0.00     0.129 H 
ATOM     87  H37 non d ame      -8.526  18.494  68.319  0.00  0.00     0.046 H 
BRANCH  83  88
ATOM     88  O6  non d ame      -7.607  18.175  65.670  0.00  0.00    -0.369 OA
ATOM     89  H45 non d ame      -8.235  17.623  65.199  0.00  0.00     0.212 HD
ENDBRANCH  83  88
ENDBRANCH  72  75
ENDBRANCH  47  72
ENDBRANCH  45  47
ENDBRANCH   1  43
BRANCH   1  90
ATOM     90  C16 non d ame     -11.844  14.418  71.113  0.00  0.00    -0.035 C 
ATOM     91  H21 non d ame     -11.287  13.626  71.613  0.00  0.00     0.037 H 
ATOM     92  H22 non d ame     -11.451  15.434  71.097  0.00  0.00     0.037 H 
BRANCH  90  93
ATOM     93  C17 non d ame     -13.234  14.495  71.822  0.00  0.00    -0.059 C 
ATOM     94  H23 non d ame     -13.954  14.875  71.098  0.00  0.00     0.038 H 
BRANCH  93  95
ATOM     95  C18 non d ame     -13.732  13.092  72.297  0.00  0.00    -0.073 C 
ATOM     96  H24 non d ame     -13.307  12.320  71.655  0.00  0.00     0.028 H 
ATOM     97  H25 non d ame     -13.415  12.923  73.326  0.00  0.00     0.028 H 
ATOM     98  H26 non d ame     -14.820  13.054  72.241  0.00  0.00     0.028 H 
ENDBRANCH  93  95
BRANCH  93  99
ATOM     99  C19 non d ame     -13.198  15.484  72.990  0.00  0.00    -0.073 C 
ATOM    100  H27 non d ame     -14.072  16.134  72.942  0.00  0.00     0.028 H 
ATOM    101  H28 non d ame     -13.205  14.934  73.931  0.00  0.00     0.028 H 
ATOM    102  H29 non d ame     -12.293  16.086  72.928  0.00  0.00     0.028 H 
ENDBRANCH  93  99
ENDBRANCH  90  93
ENDBRANCH   1  90
TORSDOF 26
ENDMDL
MODEL 2
REMARK VINA RESULT:      -6.7      2.846      8.901
REMARK  26 active torsions:
REMARK  status: ('A' for Active; 'I' for Inactive)
REMARK    1  A    between atoms: C2_2  and  C3_3 
REMARK    2  A    between atoms: C4_6  and  C5_7 
REMARK       I    between atoms: C5_7  and  N2_9 
REMARK    3  A    between atoms: N2_9  and  C6_10 
REMARK    4  A    between atoms: C6_10  and  C7_11 
REMARK    5  A    between atoms: C6_10  and  C8_13 
REMARK       I    between atoms: C7_11  and  N3_14 
REMARK    6  A    between atoms: N3_14  and  C9_15 
REMARK    7  A    between atoms: C9_15  and  C10_16 
REMARK    8  A    between atoms: C9_15  and  C11_18 
REMARK       I    between atoms: C10_16  and  N4_21 
REMARK    9  A    between atoms: C11_18  and  C12_19 
REMARK   10  A    between atoms: C11_18  and  C13_20 
REMARK   11  A    between atoms: N4_21  and  C14_22 
REMARK   12  A    between atoms: C14_22  and  C15_23 
REMARK   13  A    between atoms: C14_22  and  C16_25 
REMARK       I    between atoms: C15_23  and  N6_40 
REMARK   14  A    between atoms: C16_25  and  C17_26 
REMARK   15  A    between atoms: C17_26  and  C18_27 
REMARK   16  A    between atoms: C17_26  and  C19_28 
REMARK   17  A    between atoms: C20_29  and  C21_30 
REMARK   18  A    between atoms: C20_29  and  C24_33 
REMARK   19  A    between atoms: C20_29  and  N6_40 
REMARK   20  A    between atoms: C21_30  and  C22_31 
REMARK   21  A    between atoms: C22_31  and  C23_32 
REMARK   22  A    between atoms: C23_32  and  O8_43 
REMARK   23  A    between atoms: C24_33  and  C25_34 
REMARK   24  A    between atoms: C28_38  and  O6_39 
REMARK   25  A    between atoms: C29_42  and  O8_43 
REMARK   26  A    between atoms: C29_42  and  C35_49 
ROOT
ATOM      1  C14 non d ame      -9.113   6.916  66.553  0.00  0.00     0.089 C 
ATOM      2  H20 non d ame      -9.505   6.416  65.667  0.00  0.00     0.087 H 
ENDROOT
BRANCH   1   3
ATOM      3  N4  non d ame      -8.704   8.255  66.155  0.00  0.00    -0.346 N 
ATOM      4  C10 non d ame      -8.250   8.525  64.742  0.00  0.00     0.241 C 
ATOM      5  O4  non d ame      -8.220   7.647  63.944  0.00  0.00    -0.271 OA
ATOM      6  H19 non d ame      -8.734   8.987  66.850  0.00  0.00     0.163 HD
BRANCH   4   7
ATOM      7  C9  non d ame      -7.836   9.918  64.346  0.00  0.00     0.092 C 
ATOM      8  H11 non d ame      -7.788   9.982  63.259  0.00  0.00     0.088 H 
BRANCH   7   9
ATOM      9  N3  non d ame      -8.851  10.876  64.794  0.00  0.00    -0.346 N 
ATOM     10  C7  non d ame      -9.781  11.436  63.844  0.00  0.00     0.240 C 
ATOM     11  O3  non d ame      -9.725  11.128  62.716  0.00  0.00    -0.271 OA
ATOM     12  H10 non d ame      -8.911  11.152  65.763  0.00  0.00     0.163 HD
BRANCH  10  13
ATOM     13  C6  non d ame     -10.857  12.458  64.325  0.00  0.00     0.086 C 
ATOM     14  H6  non d ame     -11.330  12.162  65.262  0.00  0.00     0.086 H 
BRANCH  13  15
ATOM     15  N2  non d ame     -10.216  13.739  64.570  0.00  0.00    -0.343 N 
ATOM     16  C5  non d ame     -10.830  14.688  65.501  0.00  0.00     0.273 C 
ATOM     17  O2  non d ame     -11.842  14.412  66.046  0.00  0.00    -0.266 OA
ATOM     18  H5  non d ame      -9.352  13.967  64.098  0.00  0.00     0.163 HD
BRANCH  16  19
ATOM     19  C4  non d ame     -10.162  16.045  65.770  0.00  0.00     0.154 A 
ATOM     20  C1  non d ame      -8.984  16.290  66.545  0.00  0.00    -0.017 A 
ATOM     21  C2  non d ame      -8.792  17.688  66.481  0.00  0.00     0.077 A 
ATOM     22  H1  non d ame      -8.365  15.565  67.073  0.00  0.00     0.091 H 
ATOM     23  O1  non d ame      -9.751  18.178  65.751  0.00  0.00    -0.218 OA
ATOM     24  N1  non d ame     -10.563  17.239  65.325  0.00  0.00    -0.123 NA
BRANCH  21  25
ATOM     25  C3  non d ame      -7.668  18.475  67.143  0.00  0.00    -0.029 C 
ATOM     26  H2  non d ame      -7.447  19.363  66.550  0.00  0.00     0.036 H 
ATOM     27  H3  non d ame      -7.976  18.775  68.145  0.00  0.00     0.036 H 
ATOM     28  H4  non d ame      -6.777  17.851  67.209  0.00  0.00     0.036 H 
ENDBRANCH  21  25
ENDBRANCH  16  19
ENDBRANCH  13  15
BRANCH  13  29
ATOM     29  C8  non d ame     -11.922  12.607  63.268  0.00  0.00    -0.049 C 
ATOM     30  H7  non d ame     -11.552  13.248  62.468  0.00  0.00     0.030 H 
ATOM     31  H8  non d ame     -12.170  11.626  62.862  0.00  0.00     0.030 H 
ATOM     32  H9  non d ame     -12.812  13.054  63.709  0.00  0.00     0.030 H 
ENDBRANCH  13  29
ENDBRANCH  10  13
ENDBRANCH   7   9
BRANCH   7  33
ATOM     33  C11 non d ame      -6.472  10.262  65.014  0.00  0.00    -0.033 C 
ATOM     34  H12 non d ame      -5.950  10.957  64.356  0.00  0.00     0.042 H 
BRANCH  33  35
ATOM     35  C12 non d ame      -6.675  10.978  66.385  0.00  0.00    -0.071 C 
ATOM     36  H13 non d ame      -5.972  11.807  66.470  0.00  0.00     0.028 H 
ATOM     37  H14 non d ame      -7.694  11.359  66.449  0.00  0.00     0.028 H 
ATOM     38  H15 non d ame      -6.500  10.269  67.194  0.00  0.00     0.028 H 
ENDBRANCH  33  35
BRANCH  33  39
ATOM     39  C13 non d ame      -5.586   8.985  65.167  0.00  0.00    -0.071 C 
ATOM     40  H16 non d ame      -6.137   8.115  64.810  0.00  0.00     0.028 H 
ATOM     41  H17 non d ame      -4.674   9.102  64.581  0.00  0.00     0.028 H 
ATOM     42  H18 non d ame      -5.327   8.846  66.217  0.00  0.00     0.028 H 
ENDBRANCH  33  39
ENDBRANCH   7  33
ENDBRANCH   4   7
ENDBRANCH   1   3
BRANCH   1  43
ATOM     43  C15 non d ame     -10.179   7.038  67.679  0.00  0.00     0.240 C 
ATOM     44  O5  non d ame     -11.212   6.459  67.579  0.00  0.00    -0.271 OA
ATOM     45  N6  non d ame      -9.908   7.870  68.886  0.00  0.00    -0.355 N 
ATOM     46  H46 non d ame      -9.032   8.362  68.984  0.00  0.00     0.162 HD
BRANCH  45  47
ATOM     47  C20 non d ame     -10.932   7.974  69.948  0.00  0.00     0.013 C 
ATOM     48  H30 non d ame     -11.883   7.640  69.532  0.00  0.00     0.072 H 
BRANCH  47  49
ATOM     49  C21 non d ame     -11.042   9.414  70.396  0.00  0.00    -0.038 C 
ATOM     50  H31 non d ame     -12.088   9.687  70.257  0.00  0.00     0.036 H 
ATOM     51  H32 non d ame     -10.597   9.447  71.391  0.00  0.00     0.036 H 
BRANCH  49  52
ATOM     52  C22 non d ame     -10.217  10.380  69.518  0.00  0.00     0.018 C 
ATOM     53  H33 non d ame      -9.988  11.235  70.154  0.00  0.00     0.048 H 
ATOM     54  H34 non d ame      -9.409   9.780  69.099  0.00  0.00     0.048 H 
BRANCH  52  55
ATOM     55  C23 non d ame     -11.003  10.947  68.303  0.00  0.00     0.259 C 
ATOM     56  O7  non d ame     -10.856  10.483  67.219  0.00  0.00    -0.265 OA
BRANCH  55  57
ATOM     57  O8  non d ame     -11.895  12.038  68.498  0.00  0.00    -0.317 OA
BRANCH  57  58
ATOM     58  C29 non d ame     -11.284  13.192  69.081  0.00  0.00     0.052 C 
ATOM     59  H47 non d ame     -10.340  12.845  69.502  0.00  0.00     0.082 H 
ATOM     60  H48 non d ame     -11.286  13.953  68.302  0.00  0.00     0.082 H 
BRANCH  58  61
ATOM     61  C35 non d ame     -12.190  13.678  70.244  0.00  0.00    -0.034 A 
ATOM     62  C30 non d ame     -12.715  12.761  71.148  0.00  0.00    -0.075 A 
ATOM     63  C31 non d ame     -13.530  13.197  72.192  0.00  0.00    -0.082 A 
ATOM     64  H49 non d ame     -12.489  11.700  71.039  0.00  0.00     0.084 H 
ATOM     65  C32 non d ame     -13.821  14.557  72.328  0.00  0.00    -0.083 A 
ATOM     66  H50 non d ame     -13.938  12.476  72.900  0.00  0.00     0.083 H 
ATOM     67  C33 non d ame     -13.297  15.469  71.421  0.00  0.00    -0.082 A 
ATOM     68  H51 non d ame     -14.456  14.907  73.142  0.00  0.00     0.083 H 
ATOM     69  C34 non d ame     -12.481  15.037  70.378  0.00  0.00    -0.075 A 
ATOM     70  H52 non d ame     -13.528  16.529  71.529  0.00  0.00     0.083 H 
ATOM     71  H53 non d ame     -12.072  15.759  69.670  0.00  0.00     0.084 H 
ENDBRANCH  58  61
ENDBRANCH  57  58
ENDBRANCH  55  57
ENDBRANCH  52  55
ENDBRANCH  49  52
ENDBRANCH  47  49
BRANCH  47  72
ATOM     72  C24 non d ame     -10.536   7.099  71.135  0.00  0.00    -0.039 C 
ATOM     73  H35 non d ame     -11.410   6.482  71.345  0.00  0.00     0.036 H 
ATOM     74  H36 non d ame      -9.594   6.630  70.849  0.00  0.00     0.036 H 
BRANCH  72  75
ATOM     75  C25 non d ame     -10.248   7.974  72.446  0.00  0.00    -0.001 C 
ATOM     76  C26 non d ame      -8.628   8.183  72.635  0.00  0.00    -0.035 C 
ATOM     77  C27 non d ame      -8.287   7.831  73.898  0.00  0.00     0.085 C 
ATOM     78  H38 non d ame      -8.084   7.471  72.016  0.00  0.00     0.036 H 
ATOM     79  H39 non d ame      -8.381   9.244  72.591  0.00  0.00     0.036 H 
ATOM     80  N5  non d ame      -9.466   7.092  74.484  0.00  0.00    -0.049 N 
ATOM     81  H40 non d ame      -7.451   7.139  73.792  0.00  0.00     0.075 H 
ATOM     82  H41 non d ame      -8.153   8.769  74.436  0.00  0.00     0.075 H 
ATOM     83  C28 non d ame     -10.712   7.397  73.504  0.00  0.00     0.193 C 
ATOM     84  H42 non d ame      -9.245   6.108  74.427  0.00  0.00     0.280 HD
ATOM     85  H43 non d ame      -9.652   7.517  75.382  0.00  0.00     0.280 HD
ATOM     86  H44 non d ame     -11.485   8.108  73.796  0.00  0.00     0.129 H 
ATOM     87  H37 non d ame     -10.873   8.866  72.493  0.00  0.00     0.046 H 
BRANCH  83  88
ATOM     88  O6  non d ame     -11.405   6.185  73.197  0.00  0.00    -0.369 OA
ATOM     89  H45 non d ame     -11.351   6.016  72.254  0.00  0.00     0.212 HD
ENDBRANCH  83  88
ENDBRANCH  72  75
ENDBRANCH  47  72
ENDBRANCH  45  47
ENDBRANCH   1  43
BRANCH   1  90
ATOM     90  C16 non d ame      -7.901   6.162  67.076  0.00  0.00    -0.035 C 
ATOM     91  H21 non d ame      -7.056   6.836  66.931  0.00  0.00     0.037 H 
ATOM     92  H22 non d ame      -8.173   5.840  68.081  0.00  0.00     0.037 H 
BRANCH  90  93
ATOM     93  C17 non d ame      -7.573   4.865  66.270  0.00  0.00    -0.059 C 
ATOM     94  H23 non d ame      -7.346   4.078  66.988  0.00  0.00     0.038 H 
BRANCH  93  95
ATOM     95  C18 non d ame      -8.784   4.387  65.406  0.00  0.00    -0.073 C 
ATOM     96  H24 non d ame      -8.428   4.068  64.427  0.00  0.00     0.028 H 
ATOM     97  H25 non d ame      -9.278   3.552  65.903  0.00  0.00     0.028 H 
ATOM     98  H26 non d ame      -9.491   5.208  65.286  0.00  0.00     0.028 H 
ENDBRANCH  93  95
BRANCH  93  99
ATOM     99  C19 non d ame      -6.328   5.061  65.401  0.00  0.00    -0.073 C 
ATOM    100  H27 non d ame      -6.252   4.242  64.685  0.00  0.00     0.028 H 
ATOM    101  H28 non d ame      -6.405   6.007  64.865  0.00  0.00     0.028 H 
ATOM    102  H29 non d ame      -5.442   5.073  66.034  0.00  0.00     0.028 H 
ENDBRANCH  93  99
ENDBRANCH  90  93
ENDBRANCH   1  90
TORSDOF 26
ENDMDL
MODEL 3
REMARK VINA RESULT:      -6.6      2.037      5.877
REMARK  26 active torsions:
REMARK  status: ('A' for Active; 'I' for Inactive)
REMARK    1  A    between atoms: C2_2  and  C3_3 
REMARK    2  A    between atoms: C4_6  and  C5_7 
REMARK       I    between atoms: C5_7  and  N2_9 
REMARK    3  A    between atoms: N2_9  and  C6_10 
REMARK    4  A    between atoms: C6_10  and  C7_11 
REMARK    5  A    between atoms: C6_10  and  C8_13 
REMARK       I    between atoms: C7_11  and  N3_14 
REMARK    6  A    between atoms: N3_14  and  C9_15 
REMARK    7  A    between atoms: C9_15  and  C10_16 
REMARK    8  A    between atoms: C9_15  and  C11_18 
REMARK       I    between atoms: C10_16  and  N4_21 
REMARK    9  A    between atoms: C11_18  and  C12_19 
REMARK   10  A    between atoms: C11_18  and  C13_20 
REMARK   11  A    between atoms: N4_21  and  C14_22 
REMARK   12  A    between atoms: C14_22  and  C15_23 
REMARK   13  A    between atoms: C14_22  and  C16_25 
REMARK       I    between atoms: C15_23  and  N6_40 
REMARK   14  A    between atoms: C16_25  and  C17_26 
REMARK   15  A    between atoms: C17_26  and  C18_27 
REMARK   16  A    between atoms: C17_26  and  C19_28 
REMARK   17  A    between atoms: C20_29  and  C21_30 
REMARK   18  A    between atoms: C20_29  and  C24_33 
REMARK   19  A    between atoms: C20_29  and  N6_40 
REMARK   20  A    between atoms: C21_30  and  C22_31 
REMARK   21  A    between atoms: C22_31  and  C23_32 
REMARK   22  A    between atoms: C23_32  and  O8_43 
REMARK   23  A    between atoms: C24_33  and  C25_34 
REMARK   24  A    between atoms: C28_38  and  O6_39 
REMARK   25  A    between atoms: C29_42  and  O8_43 
REMARK   26  A    between atoms: C29_42  and  C35_49 
ROOT
ATOM      1  C14 non d ame     -12.197  13.820  69.508  0.00  0.00     0.089 C 
ATOM      2  H20 non d ame     -13.130  13.570  69.004  0.00  0.00     0.087 H 
ENDROOT
BRANCH   1   3
ATOM      3  N4  non d ame     -11.688  12.601  70.119  0.00  0.00    -0.346 N 
ATOM      4  C10 non d ame     -11.768  11.289  69.382  0.00  0.00     0.241 C 
ATOM      5  O4  non d ame     -12.248  11.238  68.297  0.00  0.00    -0.271 OA
ATOM      6  H19 non d ame     -11.286  12.666  71.044  0.00  0.00     0.163 HD
BRANCH   4   7
ATOM      7  C9  non d ame     -11.232  10.038  70.027  0.00  0.00     0.092 C 
ATOM      8  H11 non d ame     -11.366   9.197  69.346  0.00  0.00     0.088 H 
BRANCH   7   9
ATOM      9  N3  non d ame      -9.792  10.185  70.256  0.00  0.00    -0.346 N 
ATOM     10  C7  non d ame      -8.853   9.491  69.409  0.00  0.00     0.240 C 
ATOM     11  O3  non d ame      -9.240   8.810  68.539  0.00  0.00    -0.271 OA
ATOM     12  H10 non d ame      -9.443  10.767  71.004  0.00  0.00     0.163 HD
BRANCH  10  13
ATOM     13  C6  non d ame      -7.321   9.648  69.660  0.00  0.00     0.086 C 
ATOM     14  H6  non d ame      -6.717   9.109  68.931  0.00  0.00     0.086 H 
BRANCH  13  15
ATOM     15  N2  non d ame      -6.965  11.052  69.537  0.00  0.00    -0.343 N 
ATOM     16  C5  non d ame      -5.916  11.451  68.596  0.00  0.00     0.273 C 
ATOM     17  O2  non d ame      -5.362  10.634  67.945  0.00  0.00    -0.266 OA
ATOM     18  H5  non d ame      -7.441  11.743  70.099  0.00  0.00     0.163 HD
BRANCH  16  19
ATOM     19  C4  non d ame      -5.531  12.931  68.454  0.00  0.00     0.154 A 
ATOM     20  C1  non d ame      -5.042  13.800  69.481  0.00  0.00    -0.017 A 
ATOM     21  C2  non d ame      -4.841  15.043  68.841  0.00  0.00     0.077 A 
ATOM     22  H1  non d ame      -4.861  13.564  70.530  0.00  0.00     0.091 H 
ATOM     23  O1  non d ame      -5.177  14.895  67.593  0.00  0.00    -0.218 OA
ATOM     24  N1  non d ame      -5.583  13.671  67.343  0.00  0.00    -0.123 NA
BRANCH  21  25
ATOM     25  C3  non d ame      -4.326  16.320  69.493  0.00  0.00    -0.029 C 
ATOM     26  H2  non d ame      -5.078  17.104  69.400  0.00  0.00     0.036 H 
ATOM     27  H3  non d ame      -4.123  16.133  70.547  0.00  0.00     0.036 H 
ATOM     28  H4  non d ame      -3.408  16.636  68.997  0.00  0.00     0.036 H 
ENDBRANCH  21  25
ENDBRANCH  16  19
ENDBRANCH  13  15
BRANCH  13  29
ATOM     29  C8  non d ame      -6.981   9.148  71.041  0.00  0.00    -0.049 C 
ATOM     30  H7  non d ame      -6.286   8.312  70.964  0.00  0.00     0.030 H 
ATOM     31  H8  non d ame      -6.520   9.952  71.615  0.00  0.00     0.030 H 
ATOM     32  H9  non d ame      -7.891   8.819  71.541  0.00  0.00     0.030 H 
ENDBRANCH  13  29
ENDBRANCH  10  13
ENDBRANCH   7   9
BRANCH   7  33
ATOM     33  C11 non d ame     -11.950   9.809  71.389  0.00  0.00    -0.033 C 
ATOM     34  H12 non d ame     -11.774  10.690  72.006  0.00  0.00     0.042 H 
BRANCH  33  35
ATOM     35  C12 non d ame     -13.493   9.668  71.201  0.00  0.00    -0.071 C 
ATOM     36  H13 non d ame     -14.005  10.364  71.867  0.00  0.00     0.028 H 
ATOM     37  H14 non d ame     -13.755   9.896  70.168  0.00  0.00     0.028 H 
ATOM     38  H15 non d ame     -13.796   8.649  71.438  0.00  0.00     0.028 H 
ENDBRANCH  33  35
BRANCH  33  39
ATOM     39  C13 non d ame     -11.356   8.570  72.134  0.00  0.00    -0.071 C 
ATOM     40  H16 non d ame     -12.167   7.942  72.499  0.00  0.00     0.028 H 
ATOM     41  H17 non d ame     -10.733   7.997  71.446  0.00  0.00     0.028 H 
ATOM     42  H18 non d ame     -10.751   8.909  72.975  0.00  0.00     0.028 H 
ENDBRANCH  33  39
ENDBRANCH   7  33
ENDBRANCH   4   7
ENDBRANCH   1   3
BRANCH   1  43
ATOM     43  C15 non d ame     -11.124  14.364  68.522  0.00  0.00     0.240 C 
ATOM     44  O5  non d ame     -10.047  14.665  68.926  0.00  0.00    -0.271 OA
ATOM     45  N6  non d ame     -11.435  14.501  67.070  0.00  0.00    -0.355 N 
ATOM     46  H46 non d ame     -12.344  14.244  66.714  0.00  0.00     0.162 HD
BRANCH  45  47
ATOM     47  C20 non d ame     -10.404  15.019  66.145  0.00  0.00     0.013 C 
ATOM     48  H30 non d ame      -9.431  14.880  66.616  0.00  0.00     0.072 H 
BRANCH  47  49
ATOM     49  C21 non d ame     -10.650  16.489  65.894  0.00  0.00    -0.038 C 
ATOM     50  H31 non d ame     -10.444  16.646  64.835  0.00  0.00     0.036 H 
ATOM     51  H32 non d ame     -11.645  16.693  66.292  0.00  0.00     0.036 H 
BRANCH  49  52
ATOM     52  C22 non d ame      -9.674  17.402  66.668  0.00  0.00     0.018 C 
ATOM     53  H33 non d ame      -9.817  17.160  67.722  0.00  0.00     0.048 H 
ATOM     54  H34 non d ame      -8.700  17.254  66.202  0.00  0.00     0.048 H 
BRANCH  52  55
ATOM     55  C23 non d ame      -9.990  18.917  66.530  0.00  0.00     0.259 C 
ATOM     56  O7  non d ame     -10.709  19.307  65.668  0.00  0.00    -0.265 OA
BRANCH  55  57
ATOM     57  O8  non d ame      -9.399  19.838  67.438  0.00  0.00    -0.317 OA
BRANCH  57  58
ATOM     58  C29 non d ame      -8.696  19.219  68.520  0.00  0.00     0.052 C 
ATOM     59  H47 non d ame      -9.217  19.527  69.426  0.00  0.00     0.082 H 
ATOM     60  H48 non d ame      -8.630  18.162  68.262  0.00  0.00     0.082 H 
BRANCH  58  61
ATOM     61  C35 non d ame      -7.259  19.805  68.555  0.00  0.00    -0.034 A 
ATOM     62  C30 non d ame      -6.836  20.673  67.554  0.00  0.00    -0.075 A 
ATOM     63  C31 non d ame      -5.546  21.200  67.585  0.00  0.00    -0.082 A 
ATOM     64  H49 non d ame      -7.516  20.941  66.744  0.00  0.00     0.084 H 
ATOM     65  C32 non d ame      -4.676  20.854  68.623  0.00  0.00    -0.083 A 
ATOM     66  H50 non d ame      -5.219  21.882  66.800  0.00  0.00     0.083 H 
ATOM     67  C33 non d ame      -5.102  19.985  69.618  0.00  0.00    -0.082 A 
ATOM     68  H51 non d ame      -3.666  21.262  68.655  0.00  0.00     0.083 H 
ATOM     69  C34 non d ame      -6.391  19.457  69.592  0.00  0.00    -0.075 A 
ATOM     70  H52 non d ame      -4.420  19.715  70.425  0.00  0.00     0.083 H 
ATOM     71  H53 non d ame      -6.718  18.776  70.378  0.00  0.00     0.084 H 
ENDBRANCH  58  61
ENDBRANCH  57  58
ENDBRANCH  55  57
ENDBRANCH  52  55
ENDBRANCH  49  52
ENDBRANCH  47  49
BRANCH  47  72
ATOM     72  C24 non d ame     -10.467  14.258  64.823  0.00  0.00    -0.039 C 
ATOM     73  H35 non d ame     -11.106  14.857  64.173  0.00  0.00     0.036 H 
ATOM     74  H36 non d ame      -9.430  14.071  64.545  0.00  0.00     0.036 H 
BRANCH  72  75
ATOM     75  C25 non d ame     -11.175  12.831  64.994  0.00  0.00    -0.001 C 
ATOM     76  C26 non d ame     -10.041  11.639  64.984  0.00  0.00    -0.035 C 
ATOM     77  C27 non d ame     -10.405  10.698  64.080  0.00  0.00     0.085 C 
ATOM     78  H38 non d ame      -9.101  12.022  64.589  0.00  0.00     0.036 H 
ATOM     79  H39 non d ame     -10.056  11.101  65.932  0.00  0.00     0.036 H 
ATOM     80  N5  non d ame     -11.508  11.296  63.240  0.00  0.00    -0.049 N 
ATOM     81  H40 non d ame      -9.527  10.541  63.453  0.00  0.00     0.075 H 
ATOM     82  H41 non d ame     -10.812   9.874  64.665  0.00  0.00     0.075 H 
ATOM     83  C28 non d ame     -12.013  12.606  64.037  0.00  0.00     0.193 C 
ATOM     84  H42 non d ame     -11.081  11.591  62.374  0.00  0.00     0.280 HD
ATOM     85  H43 non d ame     -12.258  10.619  63.228  0.00  0.00     0.280 HD
ATOM     86  H44 non d ame     -12.950  12.589  64.594  0.00  0.00     0.129 H 
ATOM     87  H37 non d ame     -11.896  12.822  65.811  0.00  0.00     0.046 H 
BRANCH  83  88
ATOM     88  O6  non d ame     -12.120  13.716  63.143  0.00  0.00    -0.369 OA
ATOM     89  H45 non d ame     -11.686  14.480  63.529  0.00  0.00     0.212 HD
ENDBRANCH  83  88
ENDBRANCH  72  75
ENDBRANCH  47  72
ENDBRANCH  45  47
ENDBRANCH   1  43
BRANCH   1  90
ATOM     90  C16 non d ame     -12.459  14.849  70.596  0.00  0.00    -0.035 C 
ATOM     91  H21 non d ame     -11.493  15.018  71.073  0.00  0.00     0.037 H 
ATOM     92  H22 non d ame     -12.972  15.672  70.098  0.00  0.00     0.037 H 
BRANCH  90  93
ATOM     93  C17 non d ame     -13.421  14.343  71.718  0.00  0.00    -0.059 C 
ATOM     94  H23 non d ame     -13.504  13.261  71.619  0.00  0.00     0.038 H 
BRANCH  93  95
ATOM     95  C18 non d ame     -12.873  14.651  73.148  0.00  0.00    -0.073 C 
ATOM     96  H24 non d ame     -12.231  13.833  73.474  0.00  0.00     0.028 H 
ATOM     97  H25 non d ame     -12.298  15.577  73.125  0.00  0.00     0.028 H 
ATOM     98  H26 non d ame     -13.707  14.757  73.841  0.00  0.00     0.028 H 
ENDBRANCH  93  95
BRANCH  93  99
ATOM     99  C19 non d ame     -14.826  14.925  71.536  0.00  0.00    -0.073 C 
ATOM    100  H27 non d ame     -15.359  14.358  70.773  0.00  0.00     0.028 H 
ATOM    101  H28 non d ame     -15.368  14.865  72.480  0.00  0.00     0.028 H 
ATOM    102  H29 non d ame     -14.750  15.968  71.227  0.00  0.00     0.028 H 
ENDBRANCH  93  99
ENDBRANCH  90  93
ENDBRANCH   1  90
TORSDOF 26
ENDMDL
MODEL 4
REMARK VINA RESULT:      -6.5      2.910      7.795
REMARK  26 active torsions:
REMARK  status: ('A' for Active; 'I' for Inactive)
REMARK    1  A    between atoms: C2_2  and  C3_3 
REMARK    2  A    between atoms: C4_6  and  C5_7 
REMARK       I    between atoms: C5_7  and  N2_9 
REMARK    3  A    between atoms: N2_9  and  C6_10 
REMARK    4  A    between atoms: C6_10  and  C7_11 
REMARK    5  A    between atoms: C6_10  and  C8_13 
REMARK       I    between atoms: C7_11  and  N3_14 
REMARK    6  A    between atoms: N3_14  and  C9_15 
REMARK    7  A    between atoms: C9_15  and  C10_16 
REMARK    8  A    between atoms: C9_15  and  C11_18 
REMARK       I    between atoms: C10_16  and  N4_21 
REMARK    9  A    between atoms: C11_18  and  C12_19 
REMARK   10  A    between atoms: C11_18  and  C13_20 
REMARK   11  A    between atoms: N4_21  and  C14_22 
REMARK   12  A    between atoms: C14_22  and  C15_23 
REMARK   13  A    between atoms: C14_22  and  C16_25 
REMARK       I    between atoms: C15_23  and  N6_40 
REMARK   14  A    between atoms: C16_25  and  C17_26 
REMARK   15  A    between atoms: C17_26  and  C18_27 
REMARK   16  A    between atoms: C17_26  and  C19_28 
REMARK   17  A    between atoms: C20_29  and  C21_30 
REMARK   18  A    between atoms: C20_29  and  C24_33 
REMARK   19  A    between atoms: C20_29  and  N6_40 
REMARK   20  A    between atoms: C21_30  and  C22_31 
REMARK   21  A    between atoms: C22_31  and  C23_32 
REMARK   22  A    between atoms: C23_32  and  O8_43 
REMARK   23  A    between atoms: C24_33  and  C25_34 
REMARK   24  A    between atoms: C28_38  and  O6_39 
REMARK   25  A    between atoms: C29_42  and  O8_43 
REMARK   26  A    between atoms: C29_42  and  C35_49 
ROOT
ATOM      1  C14 non d ame      -8.369   9.192  65.710  0.00  0.00     0.089 C 
ATOM      2  H20 non d ame      -8.297   9.103  64.626  0.00  0.00     0.087 H 
ENDROOT
BRANCH   1   3
ATOM      3  N4  non d ame      -9.534  10.012  66.007  0.00  0.00    -0.346 N 
ATOM      4  C10 non d ame     -10.047  11.002  64.992  0.00  0.00     0.241 C 
ATOM      5  O4  non d ame      -9.503  11.124  63.944  0.00  0.00    -0.271 OA
ATOM      6  H19 non d ame      -9.981   9.895  66.905  0.00  0.00     0.163 HD
BRANCH   4   7
ATOM      7  C9  non d ame     -11.257  11.838  65.314  0.00  0.00     0.092 C 
ATOM      8  H11 non d ame     -12.097  11.181  65.541  0.00  0.00     0.088 H 
BRANCH   7   9
ATOM      9  N3  non d ame     -10.995  12.638  66.514  0.00  0.00    -0.346 N 
ATOM     10  C7  non d ame     -11.446  12.172  67.803  0.00  0.00     0.240 C 
ATOM     11  O3  non d ame     -12.023  11.158  67.891  0.00  0.00    -0.271 OA
ATOM     12  H10 non d ame     -10.499  13.516  66.453  0.00  0.00     0.163 HD
BRANCH  10  13
ATOM     13  C6  non d ame     -11.166  13.029  69.076  0.00  0.00     0.086 C 
ATOM     14  H6  non d ame     -10.150  12.909  69.450  0.00  0.00     0.086 H 
BRANCH  13  15
ATOM     15  N2  non d ame     -11.324  14.435  68.743  0.00  0.00    -0.343 N 
ATOM     16  C5  non d ame     -10.150  15.220  68.353  0.00  0.00     0.273 C 
ATOM     17  O2  non d ame      -9.084  14.712  68.314  0.00  0.00    -0.266 OA
ATOM     18  H5  non d ame     -12.239  14.862  68.781  0.00  0.00     0.163 HD
BRANCH  16  19
ATOM     19  C4  non d ame     -10.303  16.707  67.996  0.00  0.00     0.154 A 
ATOM     20  C1  non d ame     -10.238  17.294  66.693  0.00  0.00    -0.017 A 
ATOM     21  C2  non d ame     -10.438  18.676  66.907  0.00  0.00     0.077 A 
ATOM     22  H1  non d ame     -10.071  16.795  65.739  0.00  0.00     0.091 H 
ATOM     23  O1  non d ame     -10.600  18.851  68.186  0.00  0.00    -0.218 OA
ATOM     24  N1  non d ame     -10.524  17.716  68.843  0.00  0.00    -0.123 NA
BRANCH  21  25
ATOM     25  C3  non d ame     -10.462  19.760  65.837  0.00  0.00    -0.029 C 
ATOM     26  H2  non d ame     -11.445  20.230  65.818  0.00  0.00     0.036 H 
ATOM     27  H3  non d ame      -9.705  20.511  66.064  0.00  0.00     0.036 H 
ATOM     28  H4  non d ame     -10.252  19.315  64.864  0.00  0.00     0.036 H 
ENDBRANCH  21  25
ENDBRANCH  16  19
ENDBRANCH  13  15
BRANCH  13  29
ATOM     29  C8  non d ame     -12.135  12.645  70.166  0.00  0.00    -0.049 C 
ATOM     30  H7  non d ame     -13.096  12.385  69.723  0.00  0.00     0.030 H 
ATOM     31  H8  non d ame     -11.743  11.789  70.715  0.00  0.00     0.030 H 
ATOM     32  H9  non d ame     -12.266  13.485  70.848  0.00  0.00     0.030 H 
ENDBRANCH  13  29
ENDBRANCH  10  13
ENDBRANCH   7   9
BRANCH   7  33
ATOM     33  C11 non d ame     -11.564  12.788  64.119  0.00  0.00    -0.033 C 
ATOM     34  H12 non d ame     -10.645  12.899  63.543  0.00  0.00     0.042 H 
BRANCH  33  35
ATOM     35  C12 non d ame     -12.642  12.177  63.169  0.00  0.00    -0.071 C 
ATOM     36  H13 non d ame     -13.635  12.381  63.569  0.00  0.00     0.028 H 
ATOM     37  H14 non d ame     -12.549  12.624  62.180  0.00  0.00     0.028 H 
ATOM     38  H15 non d ame     -12.493  11.100  63.097  0.00  0.00     0.028 H 
ENDBRANCH  33  35
BRANCH  33  39
ATOM     39  C13 non d ame     -11.992  14.203  64.624  0.00  0.00    -0.071 C 
ATOM     40  H16 non d ame     -11.117  14.736  64.996  0.00  0.00     0.028 H 
ATOM     41  H17 non d ame     -12.435  14.764  63.801  0.00  0.00     0.028 H 
ATOM     42  H18 non d ame     -12.721  14.097  65.426  0.00  0.00     0.028 H 
ENDBRANCH  33  39
ENDBRANCH   7  33
ENDBRANCH   4   7
ENDBRANCH   1   3
BRANCH   1  43
ATOM     43  C15 non d ame      -8.546   7.810  66.402  0.00  0.00     0.240 C 
ATOM     44  O5  non d ame      -7.605   7.261  66.877  0.00  0.00    -0.271 OA
ATOM     45  N6  non d ame      -9.893   7.174  66.481  0.00  0.00    -0.355 N 
ATOM     46  H46 non d ame     -10.701   7.633  66.087  0.00  0.00     0.162 HD
BRANCH  45  47
ATOM     47  C20 non d ame     -10.045   5.861  67.144  0.00  0.00     0.013 C 
ATOM     48  H30 non d ame      -9.057   5.528  67.460  0.00  0.00     0.072 H 
BRANCH  47  49
ATOM     49  C21 non d ame     -10.634   4.872  66.163  0.00  0.00    -0.038 C 
ATOM     50  H31 non d ame     -11.108   4.101  66.771  0.00  0.00     0.036 H 
ATOM     51  H32 non d ame     -11.231   5.465  65.471  0.00  0.00     0.036 H 
BRANCH  49  52
ATOM     52  C22 non d ame      -9.560   4.159  65.313  0.00  0.00     0.018 C 
ATOM     53  H33 non d ame      -8.625   4.681  65.520  0.00  0.00     0.048 H 
ATOM     54  H34 non d ame      -9.655   3.098  65.547  0.00  0.00     0.048 H 
BRANCH  52  55
ATOM     55  C23 non d ame      -9.790   4.283  63.782  0.00  0.00     0.259 C 
ATOM     56  O7  non d ame     -10.708   3.736  63.263  0.00  0.00    -0.265 OA
BRANCH  55  57
ATOM     57  O8  non d ame      -8.880   5.048  63.000  0.00  0.00    -0.317 OA
BRANCH  57  58
ATOM     58  C29 non d ame      -7.677   5.402  63.687  0.00  0.00     0.052 C 
ATOM     59  H47 non d ame      -7.956   5.507  64.736  0.00  0.00     0.082 H 
ATOM     60  H48 non d ame      -6.939   4.656  63.392  0.00  0.00     0.082 H 
BRANCH  58  61
ATOM     61  C35 non d ame      -7.213   6.786  63.161  0.00  0.00    -0.034 A 
ATOM     62  C30 non d ame      -5.897   7.196  63.344  0.00  0.00    -0.075 A 
ATOM     63  C31 non d ame      -5.481   8.440  62.871  0.00  0.00    -0.082 A 
ATOM     64  H49 non d ame      -5.191   6.544  63.858  0.00  0.00     0.084 H 
ATOM     65  C32 non d ame      -6.388   9.276  62.215  0.00  0.00    -0.083 A 
ATOM     66  H50 non d ame      -4.448   8.758  63.014  0.00  0.00     0.083 H 
ATOM     67  C33 non d ame      -7.701   8.864  62.037  0.00  0.00    -0.082 A 
ATOM     68  H51 non d ame      -6.071  10.250  61.841  0.00  0.00     0.083 H 
ATOM     69  C34 non d ame      -8.121   7.621  62.506  0.00  0.00    -0.075 A 
ATOM     70  H52 non d ame      -8.407   9.520  61.526  0.00  0.00     0.083 H 
ATOM     71  H53 non d ame      -9.154   7.304  62.362  0.00  0.00     0.084 H 
ENDBRANCH  58  61
ENDBRANCH  57  58
ENDBRANCH  55  57
ENDBRANCH  52  55
ENDBRANCH  49  52
ENDBRANCH  47  49
BRANCH  47  72
ATOM     72  C24 non d ame     -10.971   5.996  68.351  0.00  0.00    -0.039 C 
ATOM     73  H35 non d ame     -11.664   6.798  68.096  0.00  0.00     0.036 H 
ATOM     74  H36 non d ame     -11.348   4.991  68.541  0.00  0.00     0.036 H 
BRANCH  72  75
ATOM     75  C25 non d ame     -10.174   6.457  69.661  0.00  0.00    -0.001 C 
ATOM     76  C26 non d ame     -10.619   5.529  70.944  0.00  0.00    -0.035 C 
ATOM     77  C27 non d ame     -10.965   6.342  71.971  0.00  0.00     0.085 C 
ATOM     78  H38 non d ame     -11.543   4.997  70.717  0.00  0.00     0.036 H 
ATOM     79  H39 non d ame      -9.757   4.985  71.329  0.00  0.00     0.036 H 
ATOM     80  N5  non d ame     -11.111   7.733  71.404  0.00  0.00    -0.049 N 
ATOM     81  H40 non d ame     -11.942   5.990  72.304  0.00  0.00     0.075 H 
ATOM     82  H41 non d ame     -10.117   6.324  72.655  0.00  0.00     0.075 H 
ATOM     83  C28 non d ame     -10.418   7.693  69.946  0.00  0.00     0.193 C 
ATOM     84  H42 non d ame     -12.101   7.892  71.285  0.00  0.00     0.280 HD
ATOM     85  H43 non d ame     -10.569   8.343  72.000  0.00  0.00     0.280 HD
ATOM     86  H44 non d ame      -9.432   8.131  69.789  0.00  0.00     0.129 H 
ATOM     87  H37 non d ame      -9.105   6.568  69.477  0.00  0.00     0.046 H 
BRANCH  83  88
ATOM     88  O6  non d ame     -11.269   8.311  68.979  0.00  0.00    -0.369 OA
ATOM     89  H45 non d ame     -11.442   9.218  69.239  0.00  0.00     0.212 HD
ENDBRANCH  83  88
ENDBRANCH  72  75
ENDBRANCH  47  72
ENDBRANCH  45  47
ENDBRANCH   1  43
BRANCH   1  90
ATOM     90  C16 non d ame      -7.127   9.880  66.254  0.00  0.00    -0.035 C 
ATOM     91  H21 non d ame      -6.492   9.076  66.628  0.00  0.00     0.037 H 
ATOM     92  H22 non d ame      -6.774  10.520  65.445  0.00  0.00     0.037 H 
BRANCH  90  93
ATOM     93  C17 non d ame      -7.412  10.819  67.469  0.00  0.00    -0.059 C 
ATOM     94  H23 non d ame      -8.492  10.939  67.548  0.00  0.00     0.038 H 
BRANCH  93  95
ATOM     95  C18 non d ame      -6.900  10.213  68.815  0.00  0.00    -0.073 C 
ATOM     96  H24 non d ame      -7.750   9.880  69.409  0.00  0.00     0.028 H 
ATOM     97  H25 non d ame      -6.247   9.364  68.606  0.00  0.00     0.028 H 
ATOM     98  H26 non d ame      -6.344  10.971  69.367  0.00  0.00     0.028 H 
ENDBRANCH  93  95
BRANCH  93  99
ATOM     99  C19 non d ame      -6.815  12.209  67.237  0.00  0.00    -0.073 C 
ATOM    100  H27 non d ame      -7.204  12.621  66.305  0.00  0.00     0.028 H 
ATOM    101  H28 non d ame      -7.088  12.864  68.065  0.00  0.00     0.028 H 
ATOM    102  H29 non d ame      -5.730  12.134  67.175  0.00  0.00     0.028 H 
ENDBRANCH  93  99
ENDBRANCH  90  93
ENDBRANCH   1  90
TORSDOF 26
ENDMDL
MODEL 5
REMARK VINA RESULT:      -6.5      2.526      6.573
REMARK  26 active torsions:
REMARK  status: ('A' for Active; 'I' for Inactive)
REMARK    1  A    between atoms: C2_2  and  C3_3 
REMARK    2  A    between atoms: C4_6  and  C5_7 
REMARK       I    between atoms: C5_7  and  N2_9 
REMARK    3  A    between atoms: N2_9  and  C6_10 
REMARK    4  A    between atoms: C6_10  and  C7_11 
REMARK    5  A    between atoms: C6_10  and  C8_13 
REMARK       I    between atoms: C7_11  and  N3_14 
REMARK    6  A    between atoms: N3_14  and  C9_15 
REMARK    7  A    between atoms: C9_15  and  C10_16 
REMARK    8  A    between atoms: C9_15  and  C11_18 
REMARK       I    between atoms: C10_16  and  N4_21 
REMARK    9  A    between atoms: C11_18  and  C12_19 
REMARK   10  A    between atoms: C11_18  and  C13_20 
REMARK   11  A    between atoms: N4_21  and  C14_22 
REMARK   12  A    between atoms: C14_22  and  C15_23 
REMARK   13  A    between atoms: C14_22  and  C16_25 
REMARK       I    between atoms: C15_23  and  N6_40 
REMARK   14  A    between atoms: C16_25  and  C17_26 
REMARK   15  A    between atoms: C17_26  and  C18_27 
REMARK   16  A    between atoms: C17_26  and  C19_28 
REMARK   17  A    between atoms: C20_29  and  C21_30 
REMARK   18  A    between atoms: C20_29  and  C24_33 
REMARK   19  A    between atoms: C20_29  and  N6_40 
REMARK   20  A    between atoms: C21_30  and  C22_31 
REMARK   21  A    between atoms: C22_31  and  C23_32 
REMARK   22  A    between atoms: C23_32  and  O8_43 
REMARK   23  A    between atoms: C24_33  and  C25_34 
REMARK   24  A    between atoms: C28_38  and  O6_39 
REMARK   25  A    between atoms: C29_42  and  O8_43 
REMARK   26  A    between atoms: C29_42  and  C35_49 
ROOT
ATOM      1  C14 non d ame     -11.776  13.565  69.617  0.00  0.00     0.089 C 
ATOM      2  H20 non d ame     -12.732  13.543  69.093  0.00  0.00     0.087 H 
ENDROOT
BRANCH   1   3
ATOM      3  N4  non d ame     -11.548  12.237  70.169  0.00  0.00    -0.346 N 
ATOM      4  C10 non d ame     -11.842  11.009  69.345  0.00  0.00     0.241 C 
ATOM      5  O4  non d ame     -12.264  11.114  68.240  0.00  0.00    -0.271 OA
ATOM      6  H19 non d ame     -11.191  12.170  71.111  0.00  0.00     0.163 HD
BRANCH   4   7
ATOM      7  C9  non d ame     -11.595   9.643  69.930  0.00  0.00     0.092 C 
ATOM      8  H11 non d ame     -12.277   8.928  69.471  0.00  0.00     0.088 H 
BRANCH   7   9
ATOM      9  N3  non d ame     -10.232   9.212  69.607  0.00  0.00    -0.346 N 
ATOM     10  C7  non d ame     -10.021   8.039  68.794  0.00  0.00     0.240 C 
ATOM     11  O3  non d ame     -10.937   7.430  68.393  0.00  0.00    -0.271 OA
ATOM     12  H10 non d ame      -9.432   9.726  69.947  0.00  0.00     0.163 HD
BRANCH  10  13
ATOM     13  C6  non d ame      -8.568   7.583  68.456  0.00  0.00     0.086 C 
ATOM     14  H6  non d ame      -8.378   6.545  68.727  0.00  0.00     0.086 H 
BRANCH  13  15
ATOM     15  N2  non d ame      -8.365   7.682  67.020  0.00  0.00    -0.343 N 
ATOM     16  C5  non d ame      -8.568   8.968  66.349  0.00  0.00     0.273 C 
ATOM     17  O2  non d ame      -8.897   9.916  66.973  0.00  0.00    -0.266 OA
ATOM     18  H5  non d ame      -8.086   6.865  66.494  0.00  0.00     0.163 HD
BRANCH  16  19
ATOM     19  C4  non d ame      -8.355   9.087  64.832  0.00  0.00     0.154 A 
ATOM     20  C1  non d ame      -8.267  10.290  64.063  0.00  0.00    -0.017 A 
ATOM     21  C2  non d ame      -8.071   9.858  62.732  0.00  0.00     0.077 A 
ATOM     22  H1  non d ame      -8.335  11.320  64.416  0.00  0.00     0.091 H 
ATOM     23  O1  non d ame      -8.049   8.558  62.747  0.00  0.00    -0.218 OA
ATOM     24  N1  non d ame      -8.213   8.084  63.961  0.00  0.00    -0.123 NA
BRANCH  21  25
ATOM     25  C3  non d ame      -7.913  10.751  61.509  0.00  0.00    -0.029 C 
ATOM     26  H2  non d ame      -6.891  10.682  61.137  0.00  0.00     0.036 H 
ATOM     27  H3  non d ame      -8.605  10.427  60.731  0.00  0.00     0.036 H 
ATOM     28  H4  non d ame      -8.132  11.784  61.781  0.00  0.00     0.036 H 
ENDBRANCH  21  25
ENDBRANCH  16  19
ENDBRANCH  13  15
BRANCH  13  29
ATOM     29  C8  non d ame      -7.581   8.464  69.179  0.00  0.00    -0.049 C 
ATOM     30  H7  non d ame      -7.973   9.479  69.235  0.00  0.00     0.030 H 
ATOM     31  H8  non d ame      -7.421   8.080  70.186  0.00  0.00     0.030 H 
ATOM     32  H9  non d ame      -6.635   8.469  68.637  0.00  0.00     0.030 H 
ENDBRANCH  13  29
ENDBRANCH  10  13
ENDBRANCH   7   9
BRANCH   7  33
ATOM     33  C11 non d ame     -11.764   9.704  71.476  0.00  0.00    -0.033 C 
ATOM     34  H12 non d ame     -11.288  10.621  71.824  0.00  0.00     0.042 H 
BRANCH  33  35
ATOM     35  C12 non d ame     -13.269   9.774  71.881  0.00  0.00    -0.071 C 
ATOM     36  H13 non d ame     -13.872   9.264  71.129  0.00  0.00     0.028 H 
ATOM     37  H14 non d ame     -13.408   9.289  72.847  0.00  0.00     0.028 H 
ATOM     38  H15 non d ame     -13.579  10.816  71.950  0.00  0.00     0.028 H 
ENDBRANCH  33  35
BRANCH  33  39
ATOM     39  C13 non d ame     -11.048   8.498  72.165  0.00  0.00    -0.071 C 
ATOM     40  H16 non d ame     -11.774   7.924  72.740  0.00  0.00     0.028 H 
ATOM     41  H17 non d ame     -10.600   7.858  71.404  0.00  0.00     0.028 H 
ATOM     42  H18 non d ame     -10.269   8.870  72.831  0.00  0.00     0.028 H 
ENDBRANCH  33  39
ENDBRANCH   7  33
ENDBRANCH   4   7
ENDBRANCH   1   3
BRANCH   1  43
ATOM     43  C15 non d ame     -10.595  13.915  68.667  0.00  0.00     0.240 C 
ATOM     44  O5  non d ame      -9.619  13.236  68.661  0.00  0.00    -0.271 OA
ATOM     45  N6  non d ame     -10.683  15.094  67.759  0.00  0.00    -0.355 N 
ATOM     46  H46 non d ame     -11.508  15.676  67.752  0.00  0.00     0.162 HD
BRANCH  45  47
ATOM     47  C20 non d ame      -9.552  15.414  66.861  0.00  0.00     0.013 C 
ATOM     48  H30 non d ame      -8.761  14.686  67.046  0.00  0.00     0.072 H 
BRANCH  47  49
ATOM     49  C21 non d ame      -9.051  16.808  67.164  0.00  0.00    -0.038 C 
ATOM     50  H31 non d ame      -8.574  16.744  68.143  0.00  0.00     0.036 H 
ATOM     51  H32 non d ame      -8.470  17.108  66.293  0.00  0.00     0.036 H 
BRANCH  49  52
ATOM     52  C22 non d ame     -10.194  17.838  67.302  0.00  0.00     0.018 C 
ATOM     53  H33 non d ame     -11.118  17.259  67.274  0.00  0.00     0.048 H 
ATOM     54  H34 non d ame      -9.950  18.433  68.183  0.00  0.00     0.048 H 
BRANCH  52  55
ATOM     55  C23 non d ame     -10.279  18.840  66.118  0.00  0.00     0.259 C 
ATOM     56  O7  non d ame     -11.021  18.641  65.212  0.00  0.00    -0.265 OA
BRANCH  55  57
ATOM     57  O8  non d ame      -9.450  19.996  66.123  0.00  0.00    -0.317 OA
BRANCH  57  58
ATOM     58  C29 non d ame      -8.806  20.246  67.375  0.00  0.00     0.052 C 
ATOM     59  H47 non d ame      -9.208  21.196  67.729  0.00  0.00     0.082 H 
ATOM     60  H48 non d ame      -8.948  19.341  67.966  0.00  0.00     0.082 H 
BRANCH  58  61
ATOM     61  C35 non d ame      -7.288  20.424  67.107  0.00  0.00    -0.034 A 
ATOM     62  C30 non d ame      -6.427  20.739  68.153  0.00  0.00    -0.075 A 
ATOM     63  C31 non d ame      -5.064  20.899  67.912  0.00  0.00    -0.082 A 
ATOM     64  H49 non d ame      -6.821  20.860  69.162  0.00  0.00     0.084 H 
ATOM     65  C32 non d ame      -4.562  20.745  66.617  0.00  0.00    -0.083 A 
ATOM     66  H50 non d ame      -4.392  21.143  68.734  0.00  0.00     0.083 H 
ATOM     67  C33 non d ame      -5.425  20.434  65.575  0.00  0.00    -0.082 A 
ATOM     68  H51 non d ame      -3.497  20.868  66.419  0.00  0.00     0.083 H 
ATOM     69  C34 non d ame      -6.788  20.271  65.812  0.00  0.00    -0.075 A 
ATOM     70  H52 non d ame      -5.030  20.317  64.565  0.00  0.00     0.083 H 
ATOM     71  H53 non d ame      -7.459  20.025  64.989  0.00  0.00     0.084 H 
ENDBRANCH  58  61
ENDBRANCH  57  58
ENDBRANCH  55  57
ENDBRANCH  52  55
ENDBRANCH  49  52
ENDBRANCH  47  49
BRANCH  47  72
ATOM     72  C24 non d ame     -10.010  15.342  65.406  0.00  0.00    -0.039 C 
ATOM     73  H35 non d ame     -10.276  16.364  65.135  0.00  0.00     0.036 H 
ATOM     74  H36 non d ame      -9.209  14.828  64.875  0.00  0.00     0.036 H 
BRANCH  72  75
ATOM     75  C25 non d ame     -11.332  14.451  65.245  0.00  0.00    -0.001 C 
ATOM     76  C26 non d ame     -10.925  12.921  64.798  0.00  0.00    -0.035 C 
ATOM     77  C27 non d ame     -11.654  12.577  63.709  0.00  0.00     0.085 C 
ATOM     78  H38 non d ame      -9.898  12.899  64.435  0.00  0.00     0.036 H 
ATOM     79  H39 non d ame     -11.250  12.210  65.558  0.00  0.00     0.036 H 
ATOM     80  N5  non d ame     -12.279  13.844  63.177  0.00  0.00    -0.049 N 
ATOM     81  H40 non d ame     -10.932  12.204  62.981  0.00  0.00     0.075 H 
ATOM     82  H41 non d ame     -12.440  11.921  64.081  0.00  0.00     0.075 H 
ATOM     83  C28 non d ame     -12.121  14.943  64.349  0.00  0.00     0.193 C 
ATOM     84  H42 non d ame     -11.717  14.131  62.389  0.00  0.00     0.280 HD
ATOM     85  H43 non d ame     -13.262  13.647  63.052  0.00  0.00     0.280 HD
ATOM     86  H44 non d ame     -12.975  15.219  64.968  0.00  0.00     0.129 H 
ATOM     87  H37 non d ame     -12.007  14.556  66.095  0.00  0.00     0.046 H 
BRANCH  83  88
ATOM     88  O6  non d ame     -11.626  16.170  63.811  0.00  0.00    -0.369 OA
ATOM     89  H45 non d ame     -11.703  16.153  62.854  0.00  0.00     0.212 HD
ENDBRANCH  83  88
ENDBRANCH  72  75
ENDBRANCH  47  72
ENDBRANCH  45  47
ENDBRANCH   1  43
BRANCH   1  90
ATOM     90  C16 non d ame     -11.834  14.572  70.754  0.00  0.00    -0.035 C 
ATOM     91  H21 non d ame     -10.870  14.496  71.257  0.00  0.00     0.037 H 
ATOM     92  H22 non d ame     -12.134  15.512  70.291  0.00  0.00     0.037 H 
BRANCH  90  93
ATOM     93  C17 non d ame     -12.919  14.242  71.828  0.00  0.00    -0.059 C 
ATOM     94  H23 non d ame     -13.015  13.157  71.879  0.00  0.00     0.038 H 
BRANCH  93  95
ATOM     95  C18 non d ame     -12.516  14.751  73.249  0.00  0.00    -0.073 C 
ATOM     96  H24 non d ame     -13.057  15.671  73.471  0.00  0.00     0.028 H 
ATOM     97  H25 non d ame     -12.766  13.993  73.991  0.00  0.00     0.028 H 
ATOM     98  H26 non d ame     -11.444  14.945  73.274  0.00  0.00     0.028 H 
ENDBRANCH  93  95
BRANCH  93  99
ATOM     99  C19 non d ame     -14.284  14.800  71.416  0.00  0.00    -0.073 C 
ATOM    100  H27 non d ame     -14.208  15.252  70.426  0.00  0.00     0.028 H 
ATOM    101  H28 non d ame     -15.015  13.992  71.391  0.00  0.00     0.028 H 
ATOM    102  H29 non d ame     -14.601  15.554  72.137  0.00  0.00     0.028 H 
ENDBRANCH  93  99
ENDBRANCH  90  93
ENDBRANCH   1  90
TORSDOF 26
ENDMDL
MODEL 6
REMARK VINA RESULT:      -6.5      2.698      7.416
REMARK  26 active torsions:
REMARK  status: ('A' for Active; 'I' for Inactive)
REMARK    1  A    between atoms: C2_2  and  C3_3 
REMARK    2  A    between atoms: C4_6  and  C5_7 
REMARK       I    between atoms: C5_7  and  N2_9 
REMARK    3  A    between atoms: N2_9  and  C6_10 
REMARK    4  A    between atoms: C6_10  and  C7_11 
REMARK    5  A    between atoms: C6_10  and  C8_13 
REMARK       I    between atoms: C7_11  and  N3_14 
REMARK    6  A    between atoms: N3_14  and  C9_15 
REMARK    7  A    between atoms: C9_15  and  C10_16 
REMARK    8  A    between atoms: C9_15  and  C11_18 
REMARK       I    between atoms: C10_16  and  N4_21 
REMARK    9  A    between atoms: C11_18  and  C12_19 
REMARK   10  A    between atoms: C11_18  and  C13_20 
REMARK   11  A    between atoms: N4_21  and  C14_22 
REMARK   12  A    between atoms: C14_22  and  C15_23 
REMARK   13  A    between atoms: C14_22  and  C16_25 
REMARK       I    between atoms: C15_23  and  N6_40 
REMARK   14  A    between atoms: C16_25  and  C17_26 
REMARK   15  A    between atoms: C17_26  and  C18_27 
REMARK   16  A    between atoms: C17_26  and  C19_28 
REMARK   17  A    between atoms: C20_29  and  C21_30 
REMARK   18  A    between atoms: C20_29  and  C24_33 
REMARK   19  A    between atoms: C20_29  and  N6_40 
REMARK   20  A    between atoms: C21_30  and  C22_31 
REMARK   21  A    between atoms: C22_31  and  C23_32 
REMARK   22  A    between atoms: C23_32  and  O8_43 
REMARK   23  A    between atoms: C24_33  and  C25_34 
REMARK   24  A    between atoms: C28_38  and  O6_39 
REMARK   25  A    between atoms: C29_42  and  O8_43 
REMARK   26  A    between atoms: C29_42  and  C35_49 
ROOT
ATOM      1  C14 non d ame      -6.990  13.024  68.085  0.00  0.00     0.089 C 
ATOM      2  H20 non d ame      -6.250  12.852  67.303  0.00  0.00     0.087 H 
ENDROOT
BRANCH   1   3
ATOM      3  N4  non d ame      -7.281  14.450  68.107  0.00  0.00    -0.346 N 
ATOM      4  C10 non d ame      -6.244  15.446  67.654  0.00  0.00     0.241 C 
ATOM      5  O4  non d ame      -5.180  15.076  67.280  0.00  0.00    -0.271 OA
ATOM      6  H19 non d ame      -8.192  14.744  68.431  0.00  0.00     0.163 HD
BRANCH   4   7
ATOM      7  C9  non d ame      -6.564  16.917  67.678  0.00  0.00     0.092 C 
ATOM      8  H11 non d ame      -6.338  17.349  66.703  0.00  0.00     0.088 H 
BRANCH   7   9
ATOM      9  N3  non d ame      -8.000  17.102  67.912  0.00  0.00    -0.346 N 
ATOM     10  C7  non d ame      -8.840  17.619  66.859  0.00  0.00     0.240 C 
ATOM     11  O3  non d ame      -8.377  17.893  65.820  0.00  0.00    -0.271 OA
ATOM     12  H10 non d ame      -8.413  16.871  68.804  0.00  0.00     0.163 HD
BRANCH  10  13
ATOM     13  C6  non d ame     -10.367  17.815  67.115  0.00  0.00     0.086 C 
ATOM     14  H6  non d ame     -10.987  17.286  66.392  0.00  0.00     0.086 H 
BRANCH  13  15
ATOM     15  N2  non d ame     -10.699  17.275  68.422  0.00  0.00    -0.343 N 
ATOM     16  C5  non d ame     -11.310  15.948  68.520  0.00  0.00     0.273 C 
ATOM     17  O2  non d ame     -11.533  15.324  67.541  0.00  0.00    -0.266 OA
ATOM     18  H5  non d ame     -10.508  17.816  69.254  0.00  0.00     0.163 HD
BRANCH  16  19
ATOM     19  C4  non d ame     -11.666  15.363  69.896  0.00  0.00     0.154 A 
ATOM     20  C1  non d ame     -11.732  16.064  71.142  0.00  0.00    -0.017 A 
ATOM     21  C2  non d ame     -12.098  15.084  72.092  0.00  0.00     0.077 A 
ATOM     22  H1  non d ame     -11.543  17.121  71.329  0.00  0.00     0.091 H 
ATOM     23  O1  non d ame     -12.226  13.956  71.455  0.00  0.00    -0.218 OA
ATOM     24  N1  non d ame     -11.978  14.094  70.173  0.00  0.00    -0.123 NA
BRANCH  21  25
ATOM     25  C3  non d ame     -12.305  15.307  73.584  0.00  0.00    -0.029 C 
ATOM     26  H2  non d ame     -12.714  14.401  74.034  0.00  0.00     0.036 H 
ATOM     27  H3  non d ame     -11.350  15.545  74.051  0.00  0.00     0.036 H 
ATOM     28  H4  non d ame     -13.000  16.133  73.735  0.00  0.00     0.036 H 
ENDBRANCH  21  25
ENDBRANCH  16  19
ENDBRANCH  13  15
BRANCH  13  29
ATOM     29  C8  non d ame     -10.703  19.284  67.062  0.00  0.00    -0.049 C 
ATOM     30  H7  non d ame     -10.710  19.618  66.025  0.00  0.00     0.030 H 
ATOM     31  H8  non d ame     -11.686  19.448  67.503  0.00  0.00     0.030 H 
ATOM     32  H9  non d ame      -9.955  19.848  67.620  0.00  0.00     0.030 H 
ENDBRANCH  13  29
ENDBRANCH  10  13
ENDBRANCH   7   9
BRANCH   7  33
ATOM     33  C11 non d ame      -5.763  17.604  68.823  0.00  0.00    -0.033 C 
ATOM     34  H12 non d ame      -4.736  17.724  68.479  0.00  0.00     0.042 H 
BRANCH  33  35
ATOM     35  C12 non d ame      -6.323  19.027  69.134  0.00  0.00    -0.071 C 
ATOM     36  H13 non d ame      -7.294  19.149  68.653  0.00  0.00     0.028 H 
ATOM     37  H14 non d ame      -6.435  19.146  70.212  0.00  0.00     0.028 H 
ATOM     38  H15 non d ame      -5.633  19.780  68.755  0.00  0.00     0.028 H 
ENDBRANCH  33  35
BRANCH  33  39
ATOM     39  C13 non d ame      -5.742  16.711  70.105  0.00  0.00    -0.071 C 
ATOM     40  H16 non d ame      -4.722  16.638  70.480  0.00  0.00     0.028 H 
ATOM     41  H17 non d ame      -6.379  17.157  70.869  0.00  0.00     0.028 H 
ATOM     42  H18 non d ame      -6.112  15.715  69.859  0.00  0.00     0.028 H 
ENDBRANCH  33  39
ENDBRANCH   7  33
ENDBRANCH   4   7
ENDBRANCH   1   3
BRANCH   1  43
ATOM     43  C15 non d ame      -8.314  12.252  67.821  0.00  0.00     0.240 C 
ATOM     44  O5  non d ame      -9.355  12.745  68.115  0.00  0.00    -0.271 OA
ATOM     45  N6  non d ame      -8.286  10.900  67.192  0.00  0.00    -0.355 N 
ATOM     46  H46 non d ame      -7.408  10.473  66.933  0.00  0.00     0.162 HD
BRANCH  45  47
ATOM     47  C20 non d ame      -9.554  10.180  66.946  0.00  0.00     0.013 C 
ATOM     48  H30 non d ame     -10.366  10.783  67.350  0.00  0.00     0.072 H 
BRANCH  47  49
ATOM     49  C21 non d ame      -9.510   8.839  67.644  0.00  0.00    -0.038 C 
ATOM     50  H31 non d ame      -8.540   8.409  67.395  0.00  0.00     0.036 H 
ATOM     51  H32 non d ame      -9.767   9.040  68.684  0.00  0.00     0.036 H 
BRANCH  49  52
ATOM     52  C22 non d ame     -10.573   7.853  67.114  0.00  0.00     0.018 C 
ATOM     53  H33 non d ame     -11.535   8.256  67.434  0.00  0.00     0.048 H 
ATOM     54  H34 non d ame     -10.360   7.730  66.052  0.00  0.00     0.048 H 
BRANCH  52  55
ATOM     55  C23 non d ame     -10.476   6.433  67.737  0.00  0.00     0.259 C 
ATOM     56  O7  non d ame     -10.038   6.283  68.831  0.00  0.00    -0.265 OA
BRANCH  55  57
ATOM     57  O8  non d ame     -10.905   5.308  66.979  0.00  0.00    -0.317 OA
BRANCH  57  58
ATOM     58  C29 non d ame      -9.859   4.385  66.663  0.00  0.00     0.052 C 
ATOM     59  H47 non d ame      -8.982   4.735  67.209  0.00  0.00     0.082 H 
ATOM     60  H48 non d ame     -10.267   3.395  66.865  0.00  0.00     0.082 H 
BRANCH  58  61
ATOM     61  C35 non d ame      -9.567   4.494  65.143  0.00  0.00    -0.034 A 
ATOM     62  C30 non d ame      -8.513   5.282  64.690  0.00  0.00    -0.075 A 
ATOM     63  C31 non d ame      -8.250   5.380  63.325  0.00  0.00    -0.082 A 
ATOM     64  H49 non d ame      -7.892   5.822  65.406  0.00  0.00     0.084 H 
ATOM     65  C32 non d ame      -9.049   4.689  62.409  0.00  0.00    -0.083 A 
ATOM     66  H50 non d ame      -7.422   5.996  62.974  0.00  0.00     0.083 H 
ATOM     67  C33 non d ame     -10.101   3.906  62.865  0.00  0.00    -0.082 A 
ATOM     68  H51 non d ame      -8.850   4.759  61.340  0.00  0.00     0.083 H 
ATOM     69  C34 non d ame     -10.365   3.804  64.229  0.00  0.00    -0.075 A 
ATOM     70  H52 non d ame     -10.723   3.370  62.148  0.00  0.00     0.083 H 
ATOM     71  H53 non d ame     -11.193   3.187  64.579  0.00  0.00     0.084 H 
ENDBRANCH  58  61
ENDBRANCH  57  58
ENDBRANCH  55  57
ENDBRANCH  52  55
ENDBRANCH  49  52
ENDBRANCH  47  49
BRANCH  47  72
ATOM     72  C24 non d ame      -9.745   9.968  65.446  0.00  0.00    -0.039 C 
ATOM     73  H35 non d ame      -8.786   9.599  65.080  0.00  0.00     0.036 H 
ATOM     74  H36 non d ame     -10.638   9.350  65.351  0.00  0.00     0.036 H 
BRANCH  72  75
ATOM     75  C25 non d ame     -10.042  11.347  64.686  0.00  0.00    -0.001 C 
ATOM     76  C26 non d ame     -11.441  12.005  65.246  0.00  0.00    -0.035 C 
ATOM     77  C27 non d ame     -12.237  12.300  64.191  0.00  0.00     0.085 C 
ATOM     78  H38 non d ame     -12.012  11.257  65.795  0.00  0.00     0.036 H 
ATOM     79  H39 non d ame     -11.242  12.978  65.695  0.00  0.00     0.036 H 
ATOM     80  N5  non d ame     -11.650  11.605  62.986  0.00  0.00    -0.049 N 
ATOM     81  H40 non d ame     -13.205  11.853  64.422  0.00  0.00     0.075 H 
ATOM     82  H41 non d ame     -12.153  13.378  64.055  0.00  0.00     0.075 H 
ATOM     83  C28 non d ame     -10.157  11.163  63.413  0.00  0.00     0.193 C 
ATOM     84  H42 non d ame     -12.202  10.773  62.838  0.00  0.00     0.280 HD
ATOM     85  H43 non d ame     -11.582  12.303  62.258  0.00  0.00     0.280 HD
ATOM     86  H44 non d ame      -9.291  11.719  63.053  0.00  0.00     0.129 H 
ATOM     87  H37 non d ame      -9.167  11.996  64.652  0.00  0.00     0.046 H 
BRANCH  83  88
ATOM     88  O6  non d ame      -9.920   9.805  63.040  0.00  0.00    -0.369 OA
ATOM     89  H45 non d ame      -9.843   9.265  63.830  0.00  0.00     0.212 HD
ENDBRANCH  83  88
ENDBRANCH  72  75
ENDBRANCH  47  72
ENDBRANCH  45  47
ENDBRANCH   1  43
BRANCH   1  90
ATOM     90  C16 non d ame      -6.419  12.613  69.433  0.00  0.00    -0.035 C 
ATOM     91  H21 non d ame      -6.370  13.532  70.017  0.00  0.00     0.037 H 
ATOM     92  H22 non d ame      -7.043  11.786  69.771  0.00  0.00     0.037 H 
BRANCH  90  93
ATOM     93  C17 non d ame      -4.960  12.062  69.354  0.00  0.00    -0.059 C 
ATOM     94  H23 non d ame      -4.911  11.166  69.973  0.00  0.00     0.038 H 
BRANCH  93  95
ATOM     95  C18 non d ame      -4.561  11.657  67.898  0.00  0.00    -0.073 C 
ATOM     96  H24 non d ame      -4.711  12.506  67.231  0.00  0.00     0.028 H 
ATOM     97  H25 non d ame      -3.512  11.360  67.878  0.00  0.00     0.028 H 
ATOM     98  H26 non d ame      -5.181  10.823  67.571  0.00  0.00     0.028 H 
ENDBRANCH  93  95
BRANCH  93  99
ATOM     99  C19 non d ame      -3.963  13.069  69.931  0.00  0.00    -0.073 C 
ATOM    100  H27 non d ame      -4.501  13.833  70.493  0.00  0.00     0.028 H 
ATOM    101  H28 non d ame      -3.267  12.553  70.594  0.00  0.00     0.028 H 
ATOM    102  H29 non d ame      -3.409  13.539  69.119  0.00  0.00     0.028 H 
ENDBRANCH  93  99
ENDBRANCH  90  93
ENDBRANCH   1  90
TORSDOF 26
ENDMDL
MODEL 7
REMARK VINA RESULT:      -6.4      2.385      7.844
REMARK  26 active torsions:
REMARK  status: ('A' for Active; 'I' for Inactive)
REMARK    1  A    between atoms: C2_2  and  C3_3 
REMARK    2  A    between atoms: C4_6  and  C5_7 
REMARK       I    between atoms: C5_7  and  N2_9 
REMARK    3  A    between atoms: N2_9  and  C6_10 
REMARK    4  A    between atoms: C6_10  and  C7_11 
REMARK    5  A    between atoms: C6_10  and  C8_13 
REMARK       I    between atoms: C7_11  and  N3_14 
REMARK    6  A    between atoms: N3_14  and  C9_15 
REMARK    7  A    between atoms: C9_15  and  C10_16 
REMARK    8  A    between atoms: C9_15  and  C11_18 
REMARK       I    between atoms: C10_16  and  N4_21 
REMARK    9  A    between atoms: C11_18  and  C12_19 
REMARK   10  A    between atoms: C11_18  and  C13_20 
REMARK   11  A    between atoms: N4_21  and  C14_22 
REMARK   12  A    between atoms: C14_22  and  C15_23 
REMARK   13  A    between atoms: C14_22  and  C16_25 
REMARK       I    between atoms: C15_23  and  N6_40 
REMARK   14  A    between atoms: C16_25  and  C17_26 
REMARK   15  A    between atoms: C17_26  and  C18_27 
REMARK   16  A    between atoms: C17_26  and  C19_28 
REMARK   17  A    between atoms: C20_29  and  C21_30 
REMARK   18  A    between atoms: C20_29  and  C24_33 
REMARK   19  A    between atoms: C20_29  and  N6_40 
REMARK   20  A    between atoms: C21_30  and  C22_31 
REMARK   21  A    between atoms: C22_31  and  C23_32 
REMARK   22  A    between atoms: C23_32  and  O8_43 
REMARK   23  A    between atoms: C24_33  and  C25_34 
REMARK   24  A    between atoms: C28_38  and  O6_39 
REMARK   25  A    between atoms: C29_42  and  O8_43 
REMARK   26  A    between atoms: C29_42  and  C35_49 
ROOT
ATOM      1  C14 non d ame      -6.769  10.081  62.893  0.00  0.00     0.089 C 
ATOM      2  H20 non d ame      -6.108  10.742  62.332  0.00  0.00     0.087 H 
ENDROOT
BRANCH   1   3
ATOM      3  N4  non d ame      -6.266  10.013  64.257  0.00  0.00    -0.346 N 
ATOM      4  C10 non d ame      -4.995  10.729  64.637  0.00  0.00     0.241 C 
ATOM      5  O4  non d ame      -4.392  11.352  63.826  0.00  0.00    -0.271 OA
ATOM      6  H19 non d ame      -6.793   9.475  64.931  0.00  0.00     0.163 HD
BRANCH   4   7
ATOM      7  C9  non d ame      -4.491  10.651  66.054  0.00  0.00     0.092 C 
ATOM      8  H11 non d ame      -3.605  11.277  66.155  0.00  0.00     0.088 H 
BRANCH   7   9
ATOM      9  N3  non d ame      -5.507  11.190  66.964  0.00  0.00    -0.346 N 
ATOM     10  C7  non d ame      -5.439  12.567  67.386  0.00  0.00     0.240 C 
ATOM     11  O3  non d ame      -4.572  13.256  67.004  0.00  0.00    -0.271 OA
ATOM     12  H10 non d ame      -6.260  10.608  67.303  0.00  0.00     0.163 HD
BRANCH  10  13
ATOM     13  C6  non d ame      -6.521  13.134  68.356  0.00  0.00     0.086 C 
ATOM     14  H6  non d ame      -6.090  13.599  69.243  0.00  0.00     0.086 H 
BRANCH  13  15
ATOM     15  N2  non d ame      -7.275  14.169  67.669  0.00  0.00    -0.343 N 
ATOM     16  C5  non d ame      -7.143  15.563  68.098  0.00  0.00     0.273 C 
ATOM     17  O2  non d ame      -6.430  15.841  68.999  0.00  0.00    -0.266 OA
ATOM     18  H5  non d ame      -7.885  13.922  66.902  0.00  0.00     0.163 HD
BRANCH  16  19
ATOM     19  C4  non d ame      -7.934  16.668  67.379  0.00  0.00     0.154 A 
ATOM     20  C1  non d ame      -8.750  17.677  67.980  0.00  0.00    -0.017 A 
ATOM     21  C2  non d ame      -9.248  18.435  66.897  0.00  0.00     0.077 A 
ATOM     22  H1  non d ame      -8.951  17.836  69.040  0.00  0.00     0.091 H 
ATOM     23  O1  non d ame      -8.766  17.915  65.806  0.00  0.00    -0.218 OA
ATOM     24  N1  non d ame      -7.997  16.882  66.062  0.00  0.00    -0.123 NA
BRANCH  21  25
ATOM     25  C3  non d ame     -10.175  19.640  66.990  0.00  0.00    -0.029 C 
ATOM     26  H2  non d ame      -9.925  20.225  67.875  0.00  0.00     0.036 H 
ATOM     27  H3  non d ame     -10.057  20.258  66.100  0.00  0.00     0.036 H 
ATOM     28  H4  non d ame     -11.208  19.299  67.060  0.00  0.00     0.036 H 
ENDBRANCH  21  25
ENDBRANCH  16  19
ENDBRANCH  13  15
BRANCH  13  29
ATOM     29  C8  non d ame      -7.444  12.023  68.788  0.00  0.00    -0.049 C 
ATOM     30  H7  non d ame      -7.254  11.778  69.833  0.00  0.00     0.030 H 
ATOM     31  H8  non d ame      -8.479  12.345  68.673  0.00  0.00     0.030 H 
ATOM     32  H9  non d ame      -7.265  11.143  68.171  0.00  0.00     0.030 H 
ENDBRANCH  13  29
ENDBRANCH  10  13
ENDBRANCH   7   9
BRANCH   7  33
ATOM     33  C11 non d ame      -4.204   9.166  66.423  0.00  0.00    -0.033 C 
ATOM     34  H12 non d ame      -5.106   8.594  66.205  0.00  0.00     0.042 H 
BRANCH  33  35
ATOM     35  C12 non d ame      -3.053   8.576  65.550  0.00  0.00    -0.071 C 
ATOM     36  H13 non d ame      -3.358   7.608  65.152  0.00  0.00     0.028 H 
ATOM     37  H14 non d ame      -2.838   9.256  64.726  0.00  0.00     0.028 H 
ATOM     38  H15 non d ame      -2.160   8.453  66.162  0.00  0.00     0.028 H 
ENDBRANCH  33  35
BRANCH  33  39
ATOM     39  C13 non d ame      -3.893   9.018  67.947  0.00  0.00    -0.071 C 
ATOM     40  H16 non d ame      -4.615   9.596  68.523  0.00  0.00     0.028 H 
ATOM     41  H17 non d ame      -3.960   7.967  68.231  0.00  0.00     0.028 H 
ATOM     42  H18 non d ame      -2.887   9.386  68.149  0.00  0.00     0.028 H 
ENDBRANCH  33  39
ENDBRANCH   7  33
ENDBRANCH   4   7
ENDBRANCH   1   3
BRANCH   1  43
ATOM     43  C15 non d ame      -8.233  10.608  62.931  0.00  0.00     0.240 C 
ATOM     44  O5  non d ame      -8.918  10.520  61.964  0.00  0.00    -0.271 OA
ATOM     45  N6  non d ame      -8.783  11.213  64.177  0.00  0.00    -0.355 N 
ATOM     46  H46 non d ame      -8.213  11.289  65.007  0.00  0.00     0.162 HD
BRANCH  45  47
ATOM     47  C20 non d ame     -10.177  11.708  64.197  0.00  0.00     0.013 C 
ATOM     48  H30 non d ame     -10.575  11.632  63.185  0.00  0.00     0.072 H 
BRANCH  47  49
ATOM     49  C21 non d ame     -10.189  13.151  64.650  0.00  0.00    -0.038 C 
ATOM     50  H31 non d ame      -9.533  13.191  65.520  0.00  0.00     0.036 H 
ATOM     51  H32 non d ame      -9.955  13.739  63.763  0.00  0.00     0.036 H 
BRANCH  49  52
ATOM     52  C22 non d ame     -11.581  13.617  65.130  0.00  0.00     0.018 C 
ATOM     53  H33 non d ame     -11.943  14.302  64.363  0.00  0.00     0.048 H 
ATOM     54  H34 non d ame     -12.136  12.706  65.354  0.00  0.00     0.048 H 
BRANCH  52  55
ATOM     55  C23 non d ame     -11.547  14.434  66.451  0.00  0.00     0.259 C 
ATOM     56  O7  non d ame     -11.165  15.559  66.455  0.00  0.00    -0.265 OA
BRANCH  55  57
ATOM     57  O8  non d ame     -11.965  13.816  67.663  0.00  0.00    -0.317 OA
BRANCH  57  58
ATOM     58  C29 non d ame     -11.154  14.146  68.794  0.00  0.00     0.052 C 
ATOM     59  H47 non d ame     -10.463  13.311  68.914  0.00  0.00     0.082 H 
ATOM     60  H48 non d ame     -10.771  15.147  68.601  0.00  0.00     0.082 H 
BRANCH  58  61
ATOM     61  C35 non d ame     -12.075  14.205  70.042  0.00  0.00    -0.034 A 
ATOM     62  C30 non d ame     -12.567  15.427  70.487  0.00  0.00    -0.075 A 
ATOM     63  C31 non d ame     -13.394  15.480  71.608  0.00  0.00    -0.082 A 
ATOM     64  H49 non d ame     -12.306  16.343  69.957  0.00  0.00     0.084 H 
ATOM     65  C32 non d ame     -13.726  14.305  72.287  0.00  0.00    -0.083 A 
ATOM     66  H50 non d ame     -13.781  16.440  71.953  0.00  0.00     0.083 H 
ATOM     67  C33 non d ame     -13.229  13.088  71.842  0.00  0.00    -0.082 A 
ATOM     68  H51 non d ame     -14.372  14.337  73.164  0.00  0.00     0.083 H 
ATOM     69  C34 non d ame     -12.404  13.029  70.720  0.00  0.00    -0.075 A 
ATOM     70  H52 non d ame     -13.488  12.172  72.375  0.00  0.00     0.083 H 
ATOM     71  H53 non d ame     -12.018  12.069  70.376  0.00  0.00     0.084 H 
ENDBRANCH  58  61
ENDBRANCH  57  58
ENDBRANCH  55  57
ENDBRANCH  52  55
ENDBRANCH  49  52
ENDBRANCH  47  49
BRANCH  47  72
ATOM     72  C24 non d ame     -11.011  10.864  65.159  0.00  0.00    -0.039 C 
ATOM     73  H35 non d ame     -11.713  11.559  65.621  0.00  0.00     0.036 H 
ATOM     74  H36 non d ame     -11.382  10.029  64.566  0.00  0.00     0.036 H 
BRANCH  72  75
ATOM     75  C25 non d ame     -10.115  10.247  66.335  0.00  0.00    -0.001 C 
ATOM     76  C26 non d ame      -9.836   8.652  66.049  0.00  0.00    -0.035 C 
ATOM     77  C27 non d ame     -10.164   7.946  67.157  0.00  0.00     0.085 C 
ATOM     78  H38 non d ame     -10.531   8.281  65.296  0.00  0.00     0.036 H 
ATOM     79  H39 non d ame      -8.767   8.473  65.940  0.00  0.00     0.036 H 
ATOM     80  N5  non d ame     -10.947   8.873  68.056  0.00  0.00    -0.049 N 
ATOM     81  H40 non d ame     -10.822   7.148  66.811  0.00  0.00     0.075 H 
ATOM     82  H41 non d ame      -9.217   7.702  67.638  0.00  0.00     0.075 H 
ATOM     83  C28 non d ame     -10.702  10.361  67.480  0.00  0.00     0.193 C 
ATOM     84  H42 non d ame     -11.921   8.637  67.933  0.00  0.00     0.280 HD
ATOM     85  H43 non d ame     -10.523   8.810  68.971  0.00  0.00     0.280 HD
ATOM     86  H44 non d ame     -10.021  11.046  67.985  0.00  0.00     0.129 H 
ATOM     87  H37 non d ame      -9.249  10.869  66.564  0.00  0.00     0.046 H 
BRANCH  83  88
ATOM     88  O6  non d ame     -11.943  11.062  67.381  0.00  0.00    -0.369 OA
ATOM     89  H45 non d ame     -11.775  12.005  67.333  0.00  0.00     0.212 HD
ENDBRANCH  83  88
ENDBRANCH  72  75
ENDBRANCH  47  72
ENDBRANCH  45  47
ENDBRANCH   1  43
BRANCH   1  90
ATOM     90  C16 non d ame      -6.743   8.689  62.284  0.00  0.00    -0.035 C 
ATOM     91  H21 non d ame      -7.718   8.561  61.812  0.00  0.00     0.037 H 
ATOM     92  H22 non d ame      -5.837   8.655  61.679  0.00  0.00     0.037 H 
BRANCH  90  93
ATOM     93  C17 non d ame      -6.611   7.545  63.340  0.00  0.00    -0.059 C 
ATOM     94  H23 non d ame      -6.538   8.010  64.323  0.00  0.00     0.038 H 
BRANCH  93  95
ATOM     95  C18 non d ame      -7.858   6.604  63.348  0.00  0.00    -0.073 C 
ATOM     96  H24 non d ame      -8.129   6.352  62.323  0.00  0.00     0.028 H 
ATOM     97  H25 non d ame      -7.621   5.692  63.897  0.00  0.00     0.028 H 
ATOM     98  H26 non d ame      -8.693   7.112  63.831  0.00  0.00     0.028 H 
ENDBRANCH  93  95
BRANCH  93  99
ATOM     99  C19 non d ame      -5.325   6.744  63.120  0.00  0.00    -0.073 C 
ATOM    100  H27 non d ame      -4.925   6.426  64.083  0.00  0.00     0.028 H 
ATOM    101  H28 non d ame      -5.544   5.866  62.510  0.00  0.00     0.028 H 
ATOM    102  H29 non d ame      -4.592   7.367  62.609  0.00  0.00     0.028 H 
ENDBRANCH  93  99
ENDBRANCH  90  93
ENDBRANCH   1  90
TORSDOF 26
ENDMDL
MODEL 8
REMARK VINA RESULT:      -6.3      2.810      7.358
REMARK  26 active torsions:
REMARK  status: ('A' for Active; 'I' for Inactive)
REMARK    1  A    between atoms: C2_2  and  C3_3 
REMARK    2  A    between atoms: C4_6  and  C5_7 
REMARK       I    between atoms: C5_7  and  N2_9 
REMARK    3  A    between atoms: N2_9  and  C6_10 
REMARK    4  A    between atoms: C6_10  and  C7_11 
REMARK    5  A    between atoms: C6_10  and  C8_13 
REMARK       I    between atoms: C7_11  and  N3_14 
REMARK    6  A    between atoms: N3_14  and  C9_15 
REMARK    7  A    between atoms: C9_15  and  C10_16 
REMARK    8  A    between atoms: C9_15  and  C11_18 
REMARK       I    between atoms: C10_16  and  N4_21 
REMARK    9  A    between atoms: C11_18  and  C12_19 
REMARK   10  A    between atoms: C11_18  and  C13_20 
REMARK   11  A    between atoms: N4_21  and  C14_22 
REMARK   12  A    between atoms: C14_22  and  C15_23 
REMARK   13  A    between atoms: C14_22  and  C16_25 
REMARK       I    between atoms: C15_23  and  N6_40 
REMARK   14  A    between atoms: C16_25  and  C17_26 
REMARK   15  A    between atoms: C17_26  and  C18_27 
REMARK   16  A    between atoms: C17_26  and  C19_28 
REMARK   17  A    between atoms: C20_29  and  C21_30 
REMARK   18  A    between atoms: C20_29  and  C24_33 
REMARK   19  A    between atoms: C20_29  and  N6_40 
REMARK   20  A    between atoms: C21_30  and  C22_31 
REMARK   21  A    between atoms: C22_31  and  C23_32 
REMARK   22  A    between atoms: C23_32  and  O8_43 
REMARK   23  A    between atoms: C24_33  and  C25_34 
REMARK   24  A    between atoms: C28_38  and  O6_39 
REMARK   25  A    between atoms: C29_42  and  O8_43 
REMARK   26  A    between atoms: C29_42  and  C35_49 
ROOT
ATOM      1  C14 non d ame      -6.267  11.412  67.170  0.00  0.00     0.089 C 
ATOM      2  H20 non d ame      -5.244  11.153  66.897  0.00  0.00     0.087 H 
ENDROOT
BRANCH   1   3
ATOM      3  N4  non d ame      -7.079  11.321  65.965  0.00  0.00    -0.346 N 
ATOM      4  C10 non d ame      -7.040  10.077  65.113  0.00  0.00     0.241 C 
ATOM      5  O4  non d ame      -6.346   9.163  65.416  0.00  0.00    -0.271 OA
ATOM      6  H19 non d ame      -7.661  12.110  65.723  0.00  0.00     0.163 HD
BRANCH   4   7
ATOM      7  C9  non d ame      -7.891   9.998  63.873  0.00  0.00     0.092 C 
ATOM      8  H11 non d ame      -8.370   9.020  63.828  0.00  0.00     0.088 H 
BRANCH   7   9
ATOM      9  N3  non d ame      -8.958  11.000  63.946  0.00  0.00    -0.346 N 
ATOM     10  C7  non d ame     -10.063  10.810  64.853  0.00  0.00     0.240 C 
ATOM     11  O3  non d ame     -10.110   9.856  65.530  0.00  0.00    -0.271 OA
ATOM     12  H10 non d ame      -8.932  11.827  63.368  0.00  0.00     0.163 HD
BRANCH  10  13
ATOM     13  C6  non d ame     -11.197  11.879  64.925  0.00  0.00     0.086 C 
ATOM     14  H6  non d ame     -11.930  11.665  65.703  0.00  0.00     0.086 H 
BRANCH  13  15
ATOM     15  N2  non d ame     -10.610  13.169  65.249  0.00  0.00    -0.343 N 
ATOM     16  C5  non d ame     -11.474  14.260  65.705  0.00  0.00     0.273 C 
ATOM     17  O2  non d ame     -12.640  14.092  65.804  0.00  0.00    -0.266 OA
ATOM     18  H5  non d ame      -9.613  13.304  65.159  0.00  0.00     0.163 HD
BRANCH  16  19
ATOM     19  C4  non d ame     -10.867  15.628  66.052  0.00  0.00     0.154 A 
ATOM     20  C1  non d ame     -10.749  16.217  67.351  0.00  0.00    -0.017 A 
ATOM     21  C2  non d ame     -10.127  17.466  67.129  0.00  0.00     0.077 A 
ATOM     22  H1  non d ame     -11.067  15.802  68.308  0.00  0.00     0.091 H 
ATOM     23  O1  non d ame      -9.914  17.571  65.850  0.00  0.00    -0.218 OA
ATOM     24  N1  non d ame     -10.338  16.511  65.201  0.00  0.00    -0.123 NA
BRANCH  21  25
ATOM     25  C3  non d ame      -9.770  18.497  68.192  0.00  0.00    -0.029 C 
ATOM     26  H2  non d ame      -9.399  19.402  67.711  0.00  0.00     0.036 H 
ATOM     27  H3  non d ame     -10.656  18.734  68.780  0.00  0.00     0.036 H 
ATOM     28  H4  non d ame      -8.998  18.092  68.847  0.00  0.00     0.036 H 
ENDBRANCH  21  25
ENDBRANCH  16  19
ENDBRANCH  13  15
BRANCH  13  29
ATOM     29  C8  non d ame     -11.906  11.954  63.596  0.00  0.00    -0.049 C 
ATOM     30  H7  non d ame     -11.189  12.208  62.816  0.00  0.00     0.030 H 
ATOM     31  H8  non d ame     -12.360  10.989  63.372  0.00  0.00     0.030 H 
ATOM     32  H9  non d ame     -12.681  12.719  63.641  0.00  0.00     0.030 H 
ENDBRANCH  13  29
ENDBRANCH  10  13
ENDBRANCH   7   9
BRANCH   7  33
ATOM     33  C11 non d ame      -7.008  10.275  62.620  0.00  0.00    -0.033 C 
ATOM     34  H12 non d ame      -6.211  10.954  62.923  0.00  0.00     0.042 H 
BRANCH  33  35
ATOM     35  C12 non d ame      -6.336   8.967  62.098  0.00  0.00    -0.071 C 
ATOM     36  H13 non d ame      -6.562   8.145  62.778  0.00  0.00     0.028 H 
ATOM     37  H14 non d ame      -6.721   8.732  61.106  0.00  0.00     0.028 H 
ATOM     38  H15 non d ame      -5.257   9.109  62.046  0.00  0.00     0.028 H 
ENDBRANCH  33  35
BRANCH  33  39
ATOM     39  C13 non d ame      -7.837  10.974  61.495  0.00  0.00    -0.071 C 
ATOM     40  H16 non d ame      -7.277  10.947  60.561  0.00  0.00     0.028 H 
ATOM     41  H17 non d ame      -8.785  10.451  61.365  0.00  0.00     0.028 H 
ATOM     42  H18 non d ame      -8.028  12.009  61.776  0.00  0.00     0.028 H 
ENDBRANCH  33  39
ENDBRANCH   7  33
ENDBRANCH   4   7
ENDBRANCH   1   3
BRANCH   1  43
ATOM     43  C15 non d ame      -6.854  10.443  68.236  0.00  0.00     0.240 C 
ATOM     44  O5  non d ame      -6.310  10.321  69.286  0.00  0.00    -0.271 OA
ATOM     45  N6  non d ame      -8.099   9.674  67.952  0.00  0.00    -0.355 N 
ATOM     46  H46 non d ame      -8.572   9.773  67.066  0.00  0.00     0.162 HD
BRANCH  45  47
ATOM     47  C20 non d ame      -8.644   8.758  68.977  0.00  0.00     0.013 C 
ATOM     48  H30 non d ame      -8.264   9.076  69.948  0.00  0.00     0.072 H 
BRANCH  47  49
ATOM     49  C21 non d ame      -8.189   7.347  68.680  0.00  0.00    -0.038 C 
ATOM     50  H31 non d ame      -8.583   7.112  67.691  0.00  0.00     0.036 H 
ATOM     51  H32 non d ame      -7.113   7.343  68.853  0.00  0.00     0.036 H 
BRANCH  49  52
ATOM     52  C22 non d ame      -8.791   6.307  69.649  0.00  0.00     0.018 C 
ATOM     53  H33 non d ame      -7.941   5.826  70.132  0.00  0.00     0.048 H 
ATOM     54  H34 non d ame      -9.523   6.850  70.248  0.00  0.00     0.048 H 
BRANCH  52  55
ATOM     55  C23 non d ame      -9.578   5.171  68.937  0.00  0.00     0.259 C 
ATOM     56  O7  non d ame      -9.938   4.215  69.544  0.00  0.00    -0.265 OA
BRANCH  55  57
ATOM     57  O8  non d ame      -9.855   5.280  67.546  0.00  0.00    -0.317 OA
BRANCH  57  58
ATOM     58  C29 non d ame      -9.331   4.205  66.762  0.00  0.00     0.052 C 
ATOM     59  H47 non d ame      -8.863   3.523  67.472  0.00  0.00     0.082 H 
ATOM     60  H48 non d ame     -10.158   3.862  66.142  0.00  0.00     0.082 H 
BRANCH  58  61
ATOM     61  C35 non d ame      -8.228   4.781  65.835  0.00  0.00    -0.034 A 
ATOM     62  C30 non d ame      -6.900   4.779  66.247  0.00  0.00    -0.075 A 
ATOM     63  C31 non d ame      -5.909   5.298  65.414  0.00  0.00    -0.082 A 
ATOM     64  H49 non d ame      -6.634   4.372  67.222  0.00  0.00     0.084 H 
ATOM     65  C32 non d ame      -6.252   5.822  64.165  0.00  0.00    -0.083 A 
ATOM     66  H50 non d ame      -4.869   5.292  65.739  0.00  0.00     0.083 H 
ATOM     67  C33 non d ame      -7.580   5.825  63.759  0.00  0.00    -0.082 A 
ATOM     68  H51 non d ame      -5.484   6.228  63.507  0.00  0.00     0.083 H 
ATOM     69  C34 non d ame      -8.573   5.306  64.587  0.00  0.00    -0.075 A 
ATOM     70  H52 non d ame      -7.844   6.236  62.784  0.00  0.00     0.083 H 
ATOM     71  H53 non d ame      -9.613   5.311  64.261  0.00  0.00     0.084 H 
ENDBRANCH  58  61
ENDBRANCH  57  58
ENDBRANCH  55  57
ENDBRANCH  52  55
ENDBRANCH  49  52
ENDBRANCH  47  49
BRANCH  47  72
ATOM     72  C24 non d ame     -10.171   8.816  68.961  0.00  0.00    -0.039 C 
ATOM     73  H35 non d ame     -10.437   9.161  67.962  0.00  0.00     0.036 H 
ATOM     74  H36 non d ame     -10.501   7.835  69.305  0.00  0.00     0.036 H 
BRANCH  72  75
ATOM     75  C25 non d ame     -10.734   9.896  70.001  0.00  0.00    -0.001 C 
ATOM     76  C26 non d ame     -11.350   9.134  71.322  0.00  0.00    -0.035 C 
ATOM     77  C27 non d ame     -12.601   9.599  71.550  0.00  0.00     0.085 C 
ATOM     78  H38 non d ame     -11.506   8.078  71.105  0.00  0.00     0.036 H 
ATOM     79  H39 non d ame     -10.800   9.431  72.215  0.00  0.00     0.036 H 
ATOM     80  N5  non d ame     -13.018  10.366  70.319  0.00  0.00    -0.049 N 
ATOM     81  H40 non d ame     -13.229   8.712  71.646  0.00  0.00     0.075 H 
ATOM     82  H41 non d ame     -12.506  10.293  72.385  0.00  0.00     0.075 H 
ATOM     83  C28 non d ame     -11.667  10.613  69.470  0.00  0.00     0.193 C 
ATOM     84  H42 non d ame     -13.623   9.753  69.790  0.00  0.00     0.280 HD
ATOM     85  H43 non d ame     -13.363  11.259  70.641  0.00  0.00     0.280 HD
ATOM     86  H44 non d ame     -11.187  11.592  69.466  0.00  0.00     0.129 H 
ATOM     87  H37 non d ame     -10.026  10.705  70.180  0.00  0.00     0.046 H 
BRANCH  83  88
ATOM     88  O6  non d ame     -11.882  10.287  68.096  0.00  0.00    -0.369 OA
ATOM     89  H45 non d ame     -11.779  11.077  67.560  0.00  0.00     0.212 HD
ENDBRANCH  83  88
ENDBRANCH  72  75
ENDBRANCH  47  72
ENDBRANCH  45  47
ENDBRANCH   1  43
BRANCH   1  90
ATOM     90  C16 non d ame      -6.315  12.838  67.693  0.00  0.00    -0.035 C 
ATOM     91  H21 non d ame      -6.323  12.747  68.780  0.00  0.00     0.037 H 
ATOM     92  H22 non d ame      -5.495  13.356  67.196  0.00  0.00     0.037 H 
BRANCH  90  93
ATOM     93  C17 non d ame      -7.620  13.605  67.306  0.00  0.00    -0.059 C 
ATOM     94  H23 non d ame      -7.935  13.247  66.326  0.00  0.00     0.038 H 
BRANCH  93  95
ATOM     95  C18 non d ame      -8.785  13.330  68.310  0.00  0.00    -0.073 C 
ATOM     96  H24 non d ame      -8.496  13.672  69.304  0.00  0.00     0.028 H 
ATOM     97  H25 non d ame      -9.678  13.865  67.986  0.00  0.00     0.028 H 
ATOM     98  H26 non d ame      -8.994  12.260  68.340  0.00  0.00     0.028 H 
ENDBRANCH  93  95
BRANCH  93  99
ATOM     99  C19 non d ame      -7.355  15.107  67.178  0.00  0.00    -0.073 C 
ATOM    100  H27 non d ame      -8.157  15.570  66.604  0.00  0.00     0.028 H 
ATOM    101  H28 non d ame      -7.314  15.554  68.172  0.00  0.00     0.028 H 
ATOM    102  H29 non d ame      -6.404  15.266  66.669  0.00  0.00     0.028 H 
ENDBRANCH  93  99
ENDBRANCH  90  93
ENDBRANCH   1  90
TORSDOF 26
ENDMDL
MODEL 9
REMARK VINA RESULT:      -6.3      2.990      7.961
REMARK  26 active torsions:
REMARK  status: ('A' for Active; 'I' for Inactive)
REMARK    1  A    between atoms: C2_2  and  C3_3 
REMARK    2  A    between atoms: C4_6  and  C5_7 
REMARK       I    between atoms: C5_7  and  N2_9 
REMARK    3  A    between atoms: N2_9  and  C6_10 
REMARK    4  A    between atoms: C6_10  and  C7_11 
REMARK    5  A    between atoms: C6_10  and  C8_13 
REMARK       I    between atoms: C7_11  and  N3_14 
REMARK    6  A    between atoms: N3_14  and  C9_15 
REMARK    7  A    between atoms: C9_15  and  C10_16 
REMARK    8  A    between atoms: C9_15  and  C11_18 
REMARK       I    between atoms: C10_16  and  N4_21 
REMARK    9  A    between atoms: C11_18  and  C12_19 
REMARK   10  A    between atoms: C11_18  and  C13_20 
REMARK   11  A    between atoms: N4_21  and  C14_22 
REMARK   12  A    between atoms: C14_22  and  C15_23 
REMARK   13  A    between atoms: C14_22  and  C16_25 
REMARK       I    between atoms: C15_23  and  N6_40 
REMARK   14  A    between atoms: C16_25  and  C17_26 
REMARK   15  A    between atoms: C17_26  and  C18_27 
REMARK   16  A    between atoms: C17_26  and  C19_28 
REMARK   17  A    between atoms: C20_29  and  C21_30 
REMARK   18  A    between atoms: C20_29  and  C24_33 
REMARK   19  A    between atoms: C20_29  and  N6_40 
REMARK   20  A    between atoms: C21_30  and  C22_31 
REMARK   21  A    between atoms: C22_31  and  C23_32 
REMARK   22  A    between atoms: C23_32  and  O8_43 
REMARK   23  A    between atoms: C24_33  and  C25_34 
REMARK   24  A    between atoms: C28_38  and  O6_39 
REMARK   25  A    between atoms: C29_42  and  O8_43 
REMARK   26  A    between atoms: C29_42  and  C35_49 
ROOT
ATOM      1  C14 non d ame     -10.079  10.299  64.363  0.00  0.00     0.089 C 
ATOM      2  H20 non d ame     -11.004   9.769  64.592  0.00  0.00     0.087 H 
ENDROOT
BRANCH   1   3
ATOM      3  N4  non d ame      -9.494  10.724  65.626  0.00  0.00    -0.346 N 
ATOM      4  C10 non d ame     -10.102  10.283  66.934  0.00  0.00     0.241 C 
ATOM      5  O4  non d ame     -11.065   9.589  66.944  0.00  0.00    -0.271 OA
ATOM      6  H19 non d ame      -8.676  11.316  65.595  0.00  0.00     0.163 HD
BRANCH   4   7
ATOM      7  C9  non d ame      -9.480  10.727  68.231  0.00  0.00     0.092 C 
ATOM      8  H11 non d ame      -8.395  10.720  68.130  0.00  0.00     0.088 H 
BRANCH   7   9
ATOM      9  N3  non d ame      -9.879  12.109  68.518  0.00  0.00    -0.346 N 
ATOM     10  C7  non d ame      -9.111  13.206  67.983  0.00  0.00     0.240 C 
ATOM     11  O3  non d ame      -8.168  12.996  67.323  0.00  0.00    -0.271 OA
ATOM     12  H10 non d ame     -10.689  12.306  69.087  0.00  0.00     0.163 HD
BRANCH  10  13
ATOM     13  C6  non d ame      -9.539  14.674  68.294  0.00  0.00     0.086 C 
ATOM     14  H6  non d ame     -10.220  15.082  67.547  0.00  0.00     0.086 H 
BRANCH  13  15
ATOM     15  N2  non d ame     -10.249  14.700  69.562  0.00  0.00    -0.343 N 
ATOM     16  C5  non d ame     -11.403  15.586  69.725  0.00  0.00     0.273 C 
ATOM     17  O2  non d ame     -11.751  16.277  68.830  0.00  0.00    -0.266 OA
ATOM     18  H5  non d ame      -9.943  14.108  70.322  0.00  0.00     0.163 HD
BRANCH  16  19
ATOM     19  C4  non d ame     -12.164  15.623  71.059  0.00  0.00     0.154 A 
ATOM     20  C1  non d ame     -11.608  15.795  72.367  0.00  0.00    -0.017 A 
ATOM     21  C2  non d ame     -12.717  15.755  73.241  0.00  0.00     0.077 A 
ATOM     22  H1  non d ame     -10.561  15.929  72.639  0.00  0.00     0.091 H 
ATOM     23  O1  non d ame     -13.780  15.582  72.511  0.00  0.00    -0.218 OA
ATOM     24  N1  non d ame     -13.482  15.501  71.235  0.00  0.00    -0.123 NA
BRANCH  21  25
ATOM     25  C3  non d ame     -12.675  15.892  74.757  0.00  0.00    -0.029 C 
ATOM     26  H2  non d ame     -13.655  16.200  75.122  0.00  0.00     0.036 H 
ATOM     27  H3  non d ame     -12.407  14.933  75.201  0.00  0.00     0.036 H 
ATOM     28  H4  non d ame     -11.932  16.640  75.035  0.00  0.00     0.036 H 
ENDBRANCH  21  25
ENDBRANCH  16  19
ENDBRANCH  13  15
BRANCH  13  29
ATOM     29  C8  non d ame      -8.316  15.552  68.368  0.00  0.00    -0.049 C 
ATOM     30  H7  non d ame      -7.950  15.580  69.395  0.00  0.00     0.030 H 
ATOM     31  H8  non d ame      -7.540  15.150  67.717  0.00  0.00     0.030 H 
ATOM     32  H9  non d ame      -8.573  16.561  68.048  0.00  0.00     0.030 H 
ENDBRANCH  13  29
ENDBRANCH  10  13
ENDBRANCH   7   9
BRANCH   7  33
ATOM     33  C11 non d ame      -9.966   9.801  69.384  0.00  0.00    -0.033 C 
ATOM     34  H12 non d ame     -10.275   8.855  68.937  0.00  0.00     0.042 H 
BRANCH  33  35
ATOM     35  C12 non d ame      -8.813   9.490  70.388  0.00  0.00    -0.071 C 
ATOM     36  H13 non d ame      -7.865   9.827  69.969  0.00  0.00     0.028 H 
ATOM     37  H14 non d ame      -9.000  10.011  71.327  0.00  0.00     0.028 H 
ATOM     38  H15 non d ame      -8.770   8.417  70.570  0.00  0.00     0.028 H 
ENDBRANCH  33  35
BRANCH  33  39
ATOM     39  C13 non d ame     -11.203  10.417  70.114  0.00  0.00    -0.071 C 
ATOM     40  H16 non d ame     -11.534  11.306  69.578  0.00  0.00     0.028 H 
ATOM     41  H17 non d ame     -12.011   9.686  70.140  0.00  0.00     0.028 H 
ATOM     42  H18 non d ame     -10.925  10.688  71.132  0.00  0.00     0.028 H 
ENDBRANCH  33  39
ENDBRANCH   7  33
ENDBRANCH   4   7
ENDBRANCH   1   3
BRANCH   1  43
ATOM     43  C15 non d ame      -9.053   9.396  63.620  0.00  0.00     0.240 C 
ATOM     44  O5  non d ame      -8.628   9.732  62.562  0.00  0.00    -0.271 OA
ATOM     45  N6  non d ame      -8.593   8.117  64.232  0.00  0.00    -0.355 N 
ATOM     46  H46 non d ame      -8.943   7.824  65.133  0.00  0.00     0.162 HD
BRANCH  45  47
ATOM     47  C20 non d ame      -7.616   7.271  63.514  0.00  0.00     0.013 C 
ATOM     48  H30 non d ame      -7.753   7.434  62.445  0.00  0.00     0.072 H 
BRANCH  47  49
ATOM     49  C21 non d ame      -7.869   5.819  63.852  0.00  0.00    -0.038 C 
ATOM     50  H31 non d ame      -8.731   5.523  63.254  0.00  0.00     0.036 H 
ATOM     51  H32 non d ame      -6.912   5.315  63.717  0.00  0.00     0.036 H 
BRANCH  49  52
ATOM     52  C22 non d ame      -8.269   5.608  65.328  0.00  0.00     0.018 C 
ATOM     53  H33 non d ame      -7.472   5.006  65.767  0.00  0.00     0.048 H 
ATOM     54  H34 non d ame      -8.480   6.603  65.722  0.00  0.00     0.048 H 
BRANCH  52  55
ATOM     55  C23 non d ame      -9.576   4.788  65.512  0.00  0.00     0.259 C 
ATOM     56  O7  non d ame     -10.032   4.169  64.606  0.00  0.00    -0.265 OA
BRANCH  55  57
ATOM     57  O8  non d ame     -10.231   4.795  66.775  0.00  0.00    -0.317 OA
BRANCH  57  58
ATOM     58  C29 non d ame     -10.622   6.096  67.221  0.00  0.00     0.052 C 
ATOM     59  H47 non d ame      -9.882   6.783  66.811  0.00  0.00     0.082 H 
ATOM     60  H48 non d ame     -11.672   6.199  66.947  0.00  0.00     0.082 H 
BRANCH  58  61
ATOM     61  C35 non d ame     -10.514   6.124  68.769  0.00  0.00    -0.034 A 
ATOM     62  C30 non d ame      -9.331   5.740  69.392  0.00  0.00    -0.075 A 
ATOM     63  C31 non d ame      -9.234   5.765  70.782  0.00  0.00    -0.082 A 
ATOM     64  H49 non d ame      -8.480   5.419  68.791  0.00  0.00     0.084 H 
ATOM     65  C32 non d ame     -10.327   6.174  71.551  0.00  0.00    -0.083 A 
ATOM     66  H50 non d ame      -8.305   5.465  71.267  0.00  0.00     0.083 H 
ATOM     67  C33 non d ame     -11.507   6.553  70.925  0.00  0.00    -0.082 A 
ATOM     68  H51 non d ame     -10.260   6.197  72.638  0.00  0.00     0.083 H 
ATOM     69  C34 non d ame     -11.608   6.532  69.535  0.00  0.00    -0.075 A 
ATOM     70  H52 non d ame     -12.359   6.870  71.527  0.00  0.00     0.083 H 
ATOM     71  H53 non d ame     -12.537   6.833  69.051  0.00  0.00     0.084 H 
ENDBRANCH  58  61
ENDBRANCH  57  58
ENDBRANCH  55  57
ENDBRANCH  52  55
ENDBRANCH  49  52
ENDBRANCH  47  49
BRANCH  47  72
ATOM     72  C24 non d ame      -6.197   7.652  63.932  0.00  0.00    -0.039 C 
ATOM     73  H35 non d ame      -5.722   6.718  64.232  0.00  0.00     0.036 H 
ATOM     74  H36 non d ame      -5.793   8.224  63.097  0.00  0.00     0.036 H 
BRANCH  72  75
ATOM     75  C25 non d ame      -6.195   8.616  65.211  0.00  0.00    -0.001 C 
ATOM     76  C26 non d ame      -5.642  10.106  64.788  0.00  0.00    -0.035 C 
ATOM     77  C27 non d ame      -4.657  10.466  65.645  0.00  0.00     0.085 C 
ATOM     78  H38 non d ame      -5.136  10.057  63.824  0.00  0.00     0.036 H 
ATOM     79  H39 non d ame      -6.415  10.855  64.960  0.00  0.00     0.036 H 
ATOM     80  N5  non d ame      -4.263   9.225  66.410  0.00  0.00    -0.049 N 
ATOM     81  H40 non d ame      -3.821  10.775  65.016  0.00  0.00     0.075 H 
ATOM     82  H41 non d ame      -5.114  11.177  66.332  0.00  0.00     0.075 H 
ATOM     83  C28 non d ame      -5.437   8.150  66.147  0.00  0.00     0.193 C 
ATOM     84  H42 non d ame      -3.413   8.884  65.984  0.00  0.00     0.280 HD
ATOM     85  H43 non d ame      -4.271   9.478  67.388  0.00  0.00     0.280 HD
ATOM     86  H44 non d ame      -6.180   7.941  66.917  0.00  0.00     0.129 H 
ATOM     87  H37 non d ame      -7.134   8.574  65.762  0.00  0.00     0.046 H 
BRANCH  83  88
ATOM     88  O6  non d ame      -4.876   6.881  65.804  0.00  0.00    -0.369 OA
ATOM     89  H45 non d ame      -4.486   6.482  66.585  0.00  0.00     0.212 HD
ENDBRANCH  83  88
ENDBRANCH  72  75
ENDBRANCH  47  72
ENDBRANCH  45  47
ENDBRANCH   1  43
BRANCH   1  90
ATOM     90  C16 non d ame     -10.384  11.527  63.520  0.00  0.00    -0.035 C 
ATOM     91  H21 non d ame      -9.422  12.012  63.358  0.00  0.00     0.037 H 
ATOM     92  H22 non d ame     -10.958  11.158  62.670  0.00  0.00     0.037 H 
BRANCH  90  93
ATOM     93  C17 non d ame     -11.290  12.574  64.243  0.00  0.00    -0.059 C 
ATOM     94  H23 non d ame     -11.700  12.098  65.134  0.00  0.00     0.038 H 
BRANCH  93  95
ATOM     95  C18 non d ame     -10.485  13.832  64.703  0.00  0.00    -0.073 C 
ATOM     96  H24 non d ame     -10.328  14.493  63.851  0.00  0.00     0.028 H 
ATOM     97  H25 non d ame     -11.046  14.359  65.475  0.00  0.00     0.028 H 
ATOM     98  H26 non d ame      -9.521  13.519  65.103  0.00  0.00     0.028 H 
ENDBRANCH  93  95
BRANCH  93  99
ATOM     99  C19 non d ame     -12.472  12.977  63.358  0.00  0.00    -0.073 C 
ATOM    100  H27 non d ame     -12.500  12.339  62.475  0.00  0.00     0.028 H 
ATOM    101  H28 non d ame     -13.401  12.863  63.919  0.00  0.00     0.028 H 
ATOM    102  H29 non d ame     -12.359  14.017  63.052  0.00  0.00     0.028 H 
ENDBRANCH  93  99
ENDBRANCH  90  93
ENDBRANCH   1  90
TORSDOF 26
ENDMDL
MODEL 10
REMARK VINA RESULT:      -6.2      1.835      4.348
REMARK  26 active torsions:
REMARK  status: ('A' for Active; 'I' for Inactive)
REMARK    1  A    between atoms: C2_2  and  C3_3 
REMARK    2  A    between atoms: C4_6  and  C5_7 
REMARK       I    between atoms: C5_7  and  N2_9 
REMARK    3  A    between atoms: N2_9  and  C6_10 
REMARK    4  A    between atoms: C6_10  and  C7_11 
REMARK    5  A    between atoms: C6_10  and  C8_13 
REMARK       I    between atoms: C7_11  and  N3_14 
REMARK    6  A    between atoms: N3_14  and  C9_15 
REMARK    7  A    between atoms: C9_15  and  C10_16 
REMARK    8  A    between atoms: C9_15  and  C11_18 
REMARK       I    between atoms: C10_16  and  N4_21 
REMARK    9  A    between atoms: C11_18  and  C12_19 
REMARK   10  A    between atoms: C11_18  and  C13_20 
REMARK   11  A    between atoms: N4_21  and  C14_22 
REMARK   12  A    between atoms: C14_22  and  C15_23 
REMARK   13  A    between atoms: C14_22  and  C16_25 
REMARK       I    between atoms: C15_23  and  N6_40 
REMARK   14  A    between atoms: C16_25  and  C17_26 
REMARK   15  A    between atoms: C17_26  and  C18_27 
REMARK   16  A    between atoms: C17_26  and  C19_28 
REMARK   17  A    between atoms: C20_29  and  C21_30 
REMARK   18  A    between atoms: C20_29  and  C24_33 
REMARK   19  A    between atoms: C20_29  and  N6_40 
REMARK   20  A    between atoms: C21_30  and  C22_31 
REMARK   21  A    between atoms: C22_31  and  C23_32 
REMARK   22  A    between atoms: C23_32  and  O8_43 
REMARK   23  A    between atoms: C24_33  and  C25_34 
REMARK   24  A    between atoms: C28_38  and  O6_39 
REMARK   25  A    between atoms: C29_42  and  O8_43 
REMARK   26  A    between atoms: C29_42  and  C35_49 
ROOT
ATOM      1  C14 non d ame     -10.648   9.297  70.091  0.00  0.00     0.089 C 
ATOM      2  H20 non d ame     -11.016   8.380  69.630  0.00  0.00     0.087 H 
ENDROOT
BRANCH   1   3
ATOM      3  N4  non d ame      -9.295   9.520  69.604  0.00  0.00    -0.346 N 
ATOM      4  C10 non d ame      -8.826   8.862  68.331  0.00  0.00     0.241 C 
ATOM      5  O4  non d ame      -9.555   8.155  67.717  0.00  0.00    -0.271 OA
ATOM      6  H19 non d ame      -8.689  10.124  70.142  0.00  0.00     0.163 HD
BRANCH   4   7
ATOM      7  C9  non d ame      -7.424   9.109  67.838  0.00  0.00     0.092 C 
ATOM      8  H11 non d ame      -7.425   9.125  66.748  0.00  0.00     0.088 H 
BRANCH   7   9
ATOM      9  N3  non d ame      -6.971  10.428  68.290  0.00  0.00    -0.346 N 
ATOM     10  C7  non d ame      -7.007  11.551  67.386  0.00  0.00     0.240 C 
ATOM     11  O3  non d ame      -7.396  11.411  66.291  0.00  0.00    -0.271 OA
ATOM     12  H10 non d ame      -6.632  10.563  69.232  0.00  0.00     0.163 HD
BRANCH  10  13
ATOM     13  C6  non d ame      -6.521  12.951  67.872  0.00  0.00     0.086 C 
ATOM     14  H6  non d ame      -5.617  13.284  67.363  0.00  0.00     0.086 H 
BRANCH  13  15
ATOM     15  N2  non d ame      -7.550  13.936  67.579  0.00  0.00    -0.343 N 
ATOM     16  C5  non d ame      -7.162  15.314  67.270  0.00  0.00     0.273 C 
ATOM     17  O2  non d ame      -6.021  15.621  67.264  0.00  0.00    -0.266 OA
ATOM     18  H5  non d ame      -8.523  13.665  67.589  0.00  0.00     0.163 HD
BRANCH  16  19
ATOM     19  C4  non d ame      -8.239  16.364  66.956  0.00  0.00     0.154 A 
ATOM     20  C1  non d ame      -8.687  17.424  67.807  0.00  0.00    -0.017 A 
ATOM     21  C2  non d ame      -9.677  18.098  67.057  0.00  0.00     0.077 A 
ATOM     22  H1  non d ame      -8.347  17.666  68.814  0.00  0.00     0.091 H 
ATOM     23  O1  non d ame      -9.776  17.490  65.911  0.00  0.00    -0.218 OA
ATOM     24  N1  non d ame      -8.947  16.475  65.829  0.00  0.00    -0.123 NA
BRANCH  21  25
ATOM     25  C3  non d ame     -10.478  19.312  67.508  0.00  0.00    -0.029 C 
ATOM     26  H2  non d ame     -11.536  19.148  67.301  0.00  0.00     0.036 H 
ATOM     27  H3  non d ame     -10.336  19.465  68.577  0.00  0.00     0.036 H 
ATOM     28  H4  non d ame     -10.135  20.195  66.966  0.00  0.00     0.036 H 
ENDBRANCH  21  25
ENDBRANCH  16  19
ENDBRANCH  13  15
BRANCH  13  29
ATOM     29  C8  non d ame      -6.257  12.907  69.356  0.00  0.00    -0.049 C 
ATOM     30  H7  non d ame      -7.159  13.199  69.895  0.00  0.00     0.030 H 
ATOM     31  H8  non d ame      -5.972  11.896  69.645  0.00  0.00     0.030 H 
ATOM     32  H9  non d ame      -5.449  13.597  69.601  0.00  0.00     0.030 H 
ENDBRANCH  13  29
ENDBRANCH  10  13
ENDBRANCH   7   9
BRANCH   7  33
ATOM     33  C11 non d ame      -6.475   8.014  68.407  0.00  0.00    -0.033 C 
ATOM     34  H12 non d ame      -7.068   7.367  69.053  0.00  0.00     0.042 H 
BRANCH  33  35
ATOM     35  C12 non d ame      -5.885   7.125  67.268  0.00  0.00    -0.071 C 
ATOM     36  H13 non d ame      -6.684   6.537  66.816  0.00  0.00     0.028 H 
ATOM     37  H14 non d ame      -5.430   7.762  66.509  0.00  0.00     0.028 H 
ATOM     38  H15 non d ame      -5.131   6.457  67.682  0.00  0.00     0.028 H 
ENDBRANCH  33  35
BRANCH  33  39
ATOM     39  C13 non d ame      -5.341   8.652  69.272  0.00  0.00    -0.071 C 
ATOM     40  H16 non d ame      -4.774   7.864  69.767  0.00  0.00     0.028 H 
ATOM     41  H17 non d ame      -4.674   9.229  68.629  0.00  0.00     0.028 H 
ATOM     42  H18 non d ame      -5.782   9.309  70.021  0.00  0.00     0.028 H 
ENDBRANCH  33  39
ENDBRANCH   7  33
ENDBRANCH   4   7
ENDBRANCH   1   3
BRANCH   1  43
ATOM     43  C15 non d ame     -11.518  10.532  69.719  0.00  0.00     0.240 C 
ATOM     44  O5  non d ame     -12.693  10.503  69.900  0.00  0.00    -0.271 OA
ATOM     45  N6  non d ame     -10.886  11.754  69.146  0.00  0.00    -0.355 N 
ATOM     46  H46 non d ame      -9.889  11.792  68.993  0.00  0.00     0.162 HD
BRANCH  45  47
ATOM     47  C20 non d ame     -11.727  12.920  68.799  0.00  0.00     0.013 C 
ATOM     48  H30 non d ame     -12.669  12.826  69.338  0.00  0.00     0.072 H 
BRANCH  47  49
ATOM     49  C21 non d ame     -11.983  12.925  67.309  0.00  0.00    -0.038 C 
ATOM     50  H31 non d ame     -12.213  11.893  67.045  0.00  0.00     0.036 H 
ATOM     51  H32 non d ame     -12.722  13.709  67.140  0.00  0.00     0.036 H 
BRANCH  49  52
ATOM     52  C22 non d ame     -10.736  13.318  66.487  0.00  0.00     0.018 C 
ATOM     53  H33 non d ame     -10.363  14.238  66.938  0.00  0.00     0.048 H 
ATOM     54  H34 non d ame     -10.105  12.428  66.465  0.00  0.00     0.048 H 
BRANCH  52  55
ATOM     55  C23 non d ame     -11.045  13.661  65.004  0.00  0.00     0.259 C 
ATOM     56  O7  non d ame     -11.695  14.618  64.729  0.00  0.00    -0.265 OA
BRANCH  55  57
ATOM     57  O8  non d ame     -10.553  12.811  63.975  0.00  0.00    -0.317 OA
BRANCH  57  58
ATOM     58  C29 non d ame     -10.812  11.422  64.194  0.00  0.00     0.052 C 
ATOM     59  H47 non d ame     -10.818  11.290  65.276  0.00  0.00     0.082 H 
ATOM     60  H48 non d ame     -11.704  11.192  63.613  0.00  0.00     0.082 H 
BRANCH  58  61
ATOM     61  C35 non d ame      -9.623  10.615  63.607  0.00  0.00    -0.034 A 
ATOM     62  C30 non d ame      -9.222   9.427  64.210  0.00  0.00    -0.075 A 
ATOM     63  C31 non d ame      -8.154   8.702  63.684  0.00  0.00    -0.082 A 
ATOM     64  H49 non d ame      -9.745   9.063  65.095  0.00  0.00     0.084 H 
ATOM     65  C32 non d ame      -7.484   9.171  62.551  0.00  0.00    -0.083 A 
ATOM     66  H50 non d ame      -7.844   7.770  64.157  0.00  0.00     0.083 H 
ATOM     67  C33 non d ame      -7.885  10.359  61.954  0.00  0.00    -0.082 A 
ATOM     68  H51 non d ame      -6.648   8.610  62.132  0.00  0.00     0.083 H 
ATOM     69  C34 non d ame      -8.954  11.085  62.476  0.00  0.00    -0.075 A 
ATOM     70  H52 non d ame      -7.359  10.723  61.072  0.00  0.00     0.083 H 
ATOM     71  H53 non d ame      -9.264  12.017  62.001  0.00  0.00     0.084 H 
ENDBRANCH  58  61
ENDBRANCH  57  58
ENDBRANCH  55  57
ENDBRANCH  52  55
ENDBRANCH  49  52
ENDBRANCH  47  49
BRANCH  47  72
ATOM     72  C24 non d ame     -11.012  14.209  69.198  0.00  0.00    -0.039 C 
ATOM     73  H35 non d ame      -9.981  13.919  69.400  0.00  0.00     0.036 H 
ATOM     74  H36 non d ame     -11.232  14.921  68.402  0.00  0.00     0.036 H 
BRANCH  72  75
ATOM     75  C25 non d ame     -11.606  14.820  70.555  0.00  0.00    -0.001 C 
ATOM     76  C26 non d ame     -12.528  13.693  71.320  0.00  0.00    -0.035 C 
ATOM     77  C27 non d ame     -13.732  14.240  71.612  0.00  0.00     0.085 C 
ATOM     78  H38 non d ame     -12.775  12.884  70.633  0.00  0.00     0.036 H 
ATOM     79  H39 non d ame     -12.106  13.468  72.299  0.00  0.00     0.036 H 
ATOM     80  N5  non d ame     -13.835  15.526  70.829  0.00  0.00    -0.049 N 
ATOM     81  H40 non d ame     -14.472  13.534  71.234  0.00  0.00     0.075 H 
ATOM     82  H41 non d ame     -13.695  14.474  72.675  0.00  0.00     0.075 H 
ATOM     83  C28 non d ame     -12.339  15.857  70.319  0.00  0.00     0.193 C 
ATOM     84  H42 non d ame     -14.411  15.326  70.024  0.00  0.00     0.280 HD
ATOM     85  H43 non d ame     -14.115  16.240  71.486  0.00  0.00     0.280 HD
ATOM     86  H44 non d ame     -11.747  16.632  70.806  0.00  0.00     0.129 H 
ATOM     87  H37 non d ame     -10.844  15.324  71.149  0.00  0.00     0.046 H 
BRANCH  83  88
ATOM     88  O6  non d ame     -12.355  16.202  68.933  0.00  0.00    -0.369 OA
ATOM     89  H45 non d ame     -12.318  17.157  68.841  0.00  0.00     0.212 HD
ENDBRANCH  83  88
ENDBRANCH  72  75
ENDBRANCH  47  72
ENDBRANCH  45  47
ENDBRANCH   1  43
BRANCH   1  90
ATOM     90  C16 non d ame     -10.610   9.135  71.602  0.00  0.00    -0.035 C 
ATOM     91  H21 non d ame      -9.570   8.915  71.843  0.00  0.00     0.037 H 
ATOM     92  H22 non d ame     -11.083  10.033  72.001  0.00  0.00     0.037 H 
BRANCH  90  93
ATOM     93  C17 non d ame     -11.450   7.925  72.124  0.00  0.00    -0.059 C 
ATOM     94  H23 non d ame     -12.361   8.323  72.571  0.00  0.00     0.038 H 
BRANCH  93  95
ATOM     95  C18 non d ame     -11.868   6.958  70.971  0.00  0.00    -0.073 C 
ATOM     96  H24 non d ame     -11.486   5.959  71.179  0.00  0.00     0.028 H 
ATOM     97  H25 non d ame     -12.956   6.924  70.901  0.00  0.00     0.028 H 
ATOM     98  H26 non d ame     -11.455   7.316  70.028  0.00  0.00     0.028 H 
ENDBRANCH  93  95
BRANCH  93  99
ATOM     99  C19 non d ame     -10.696   7.170  73.222  0.00  0.00    -0.073 C 
ATOM    100  H27 non d ame     -10.297   7.882  73.945  0.00  0.00     0.028 H 
ATOM    101  H28 non d ame     -11.379   6.485  73.725  0.00  0.00     0.028 H 
ATOM    102  H29 non d ame      -9.877   6.605  72.778  0.00  0.00     0.028 H 
ENDBRANCH  93  99
ENDBRANCH  90  93
ENDBRANCH   1  90
TORSDOF 26
ENDMDL
MODEL 11
REMARK VINA RESULT:      -6.2      2.831      6.595
REMARK  26 active torsions:
REMARK  status: ('A' for Active; 'I' for Inactive)
REMARK    1  A    between atoms: C2_2  and  C3_3 
REMARK    2  A    between atoms: C4_6  and  C5_7 
REMARK       I    between atoms: C5_7  and  N2_9 
REMARK    3  A    between atoms: N2_9  and  C6_10 
REMARK    4  A    between atoms: C6_10  and  C7_11 
REMARK    5  A    between atoms: C6_10  and  C8_13 
REMARK       I    between atoms: C7_11  and  N3_14 
REMARK    6  A    between atoms: N3_14  and  C9_15 
REMARK    7  A    between atoms: C9_15  and  C10_16 
REMARK    8  A    between atoms: C9_15  and  C11_18 
REMARK       I    between atoms: C10_16  and  N4_21 
REMARK    9  A    between atoms: C11_18  and  C12_19 
REMARK   10  A    between atoms: C11_18  and  C13_20 
REMARK   11  A    between atoms: N4_21  and  C14_22 
REMARK   12  A    between atoms: C14_22  and  C15_23 
REMARK   13  A    between atoms: C14_22  and  C16_25 
REMARK       I    between atoms: C15_23  and  N6_40 
REMARK   14  A    between atoms: C16_25  and  C17_26 
REMARK   15  A    between atoms: C17_26  and  C18_27 
REMARK   16  A    between atoms: C17_26  and  C19_28 
REMARK   17  A    between atoms: C20_29  and  C21_30 
REMARK   18  A    between atoms: C20_29  and  C24_33 
REMARK   19  A    between atoms: C20_29  and  N6_40 
REMARK   20  A    between atoms: C21_30  and  C22_31 
REMARK   21  A    between atoms: C22_31  and  C23_32 
REMARK   22  A    between atoms: C23_32  and  O8_43 
REMARK   23  A    between atoms: C24_33  and  C25_34 
REMARK   24  A    between atoms: C28_38  and  O6_39 
REMARK   25  A    between atoms: C29_42  and  O8_43 
REMARK   26  A    between atoms: C29_42  and  C35_49 
ROOT
ATOM      1  C14 non d ame     -11.777  10.707  70.325  0.00  0.00     0.089 C 
ATOM      2  H20 non d ame     -10.990  10.293  70.956  0.00  0.00     0.087 H 
ENDROOT
BRANCH   1   3
ATOM      3  N4  non d ame     -11.740  12.154  70.472  0.00  0.00    -0.346 N 
ATOM      4  C10 non d ame     -12.652  12.844  71.456  0.00  0.00     0.241 C 
ATOM      5  O4  non d ame     -13.409  12.213  72.117  0.00  0.00    -0.271 OA
ATOM      6  H19 non d ame     -11.091  12.673  69.899  0.00  0.00     0.163 HD
BRANCH   4   7
ATOM      7  C9  non d ame     -12.596  14.342  71.599  0.00  0.00     0.092 C 
ATOM      8  H11 non d ame     -11.655  14.622  72.072  0.00  0.00     0.088 H 
BRANCH   7   9
ATOM      9  N3  non d ame     -12.613  14.961  70.270  0.00  0.00    -0.346 N 
ATOM     10  C7  non d ame     -11.410  15.550  69.734  0.00  0.00     0.240 C 
ATOM     11  O3  non d ame     -10.421  15.536  70.359  0.00  0.00    -0.271 OA
ATOM     12  H10 non d ame     -13.460  14.982  69.720  0.00  0.00     0.163 HD
BRANCH  10  13
ATOM     13  C6  non d ame     -11.435  16.210  68.320  0.00  0.00     0.086 C 
ATOM     14  H6  non d ame     -12.229  16.949  68.214  0.00  0.00     0.086 H 
BRANCH  13  15
ATOM     15  N2  non d ame     -10.182  16.913  68.106  0.00  0.00    -0.343 N 
ATOM     16  C5  non d ame     -10.202  18.337  67.762  0.00  0.00     0.273 C 
ATOM     17  O2  non d ame     -11.233  18.906  67.657  0.00  0.00    -0.266 OA
ATOM     18  H5  non d ame      -9.305  16.418  68.194  0.00  0.00     0.163 HD
BRANCH  16  19
ATOM     19  C4  non d ame      -8.884  19.093  67.534  0.00  0.00     0.154 A 
ATOM     20  C1  non d ame      -8.272  19.404  66.279  0.00  0.00    -0.017 A 
ATOM     21  C2  non d ame      -7.090  20.102  66.614  0.00  0.00     0.077 A 
ATOM     22  H1  non d ame      -8.630  19.161  65.278  0.00  0.00     0.091 H 
ATOM     23  O1  non d ame      -7.040  20.178  67.912  0.00  0.00    -0.218 OA
ATOM     24  N1  non d ame      -8.076  19.596  68.471  0.00  0.00    -0.123 NA
BRANCH  21  25
ATOM     25  C3  non d ame      -6.066  20.662  65.636  0.00  0.00    -0.029 C 
ATOM     26  H2  non d ame      -5.524  19.840  65.167  0.00  0.00     0.036 H 
ATOM     27  H3  non d ame      -6.576  21.246  64.870  0.00  0.00     0.036 H 
ATOM     28  H4  non d ame      -5.363  21.301  66.172  0.00  0.00     0.036 H 
ENDBRANCH  21  25
ENDBRANCH  16  19
ENDBRANCH  13  15
BRANCH  13  29
ATOM     29  C8  non d ame     -11.617  15.145  67.268  0.00  0.00    -0.049 C 
ATOM     30  H7  non d ame     -11.262  15.518  66.308  0.00  0.00     0.030 H 
ATOM     31  H8  non d ame     -11.047  14.259  67.547  0.00  0.00     0.030 H 
ATOM     32  H9  non d ame     -12.673  14.889  67.190  0.00  0.00     0.030 H 
ENDBRANCH  13  29
ENDBRANCH  10  13
ENDBRANCH   7   9
BRANCH   7  33
ATOM     33  C11 non d ame     -13.830  14.832  72.412  0.00  0.00    -0.033 C 
ATOM     34  H12 non d ame     -14.143  14.013  73.060  0.00  0.00     0.042 H 
BRANCH  33  35
ATOM     35  C12 non d ame     -13.463  16.041  73.328  0.00  0.00    -0.071 C 
ATOM     36  H13 non d ame     -12.397  16.016  73.554  0.00  0.00     0.028 H 
ATOM     37  H14 non d ame     -13.703  16.972  72.813  0.00  0.00     0.028 H 
ATOM     38  H15 non d ame     -14.033  15.980  74.254  0.00  0.00     0.028 H 
ENDBRANCH  33  35
BRANCH  33  39
ATOM     39  C13 non d ame     -15.022  15.180  71.464  0.00  0.00    -0.071 C 
ATOM     40  H16 non d ame     -15.439  14.262  71.052  0.00  0.00     0.028 H 
ATOM     41  H17 non d ame     -15.792  15.708  72.027  0.00  0.00     0.028 H 
ATOM     42  H18 non d ame     -14.667  15.815  70.652  0.00  0.00     0.028 H 
ENDBRANCH  33  39
ENDBRANCH   7  33
ENDBRANCH   4   7
ENDBRANCH   1   3
BRANCH   1  43
ATOM     43  C15 non d ame     -11.573  10.356  68.824  0.00  0.00     0.240 C 
ATOM     44  O5  non d ame     -12.038  11.056  67.984  0.00  0.00    -0.271 OA
ATOM     45  N6  non d ame     -10.789   9.150  68.432  0.00  0.00    -0.355 N 
ATOM     46  H46 non d ame     -10.385   8.549  69.137  0.00  0.00     0.162 HD
BRANCH  45  47
ATOM     47  C20 non d ame     -10.602   8.830  67.000  0.00  0.00     0.013 C 
ATOM     48  H30 non d ame     -11.588   8.755  66.542  0.00  0.00     0.072 H 
BRANCH  47  49
ATOM     49  C21 non d ame      -9.872   7.513  66.874  0.00  0.00    -0.038 C 
ATOM     50  H31 non d ame     -10.603   6.806  66.480  0.00  0.00     0.036 H 
ATOM     51  H32 non d ame      -8.966   7.732  66.308  0.00  0.00     0.036 H 
BRANCH  49  52
ATOM     52  C22 non d ame      -9.410   6.950  68.235  0.00  0.00     0.018 C 
ATOM     53  H33 non d ame      -8.331   7.104  68.269  0.00  0.00     0.048 H 
ATOM     54  H34 non d ame     -10.051   7.420  68.982  0.00  0.00     0.048 H 
BRANCH  52  55
ATOM     55  C23 non d ame      -9.628   5.419  68.387  0.00  0.00     0.259 C 
ATOM     56  O7  non d ame     -10.411   4.996  69.175  0.00  0.00    -0.265 OA
BRANCH  55  57
ATOM     57  O8  non d ame      -8.872   4.524  67.580  0.00  0.00    -0.317 OA
BRANCH  57  58
ATOM     58  C29 non d ame      -9.628   3.899  66.539  0.00  0.00     0.052 C 
ATOM     59  H47 non d ame      -9.379   2.839  66.589  0.00  0.00     0.082 H 
ATOM     60  H48 non d ame     -10.657   4.224  66.685  0.00  0.00     0.082 H 
BRANCH  58  61
ATOM     61  C35 non d ame      -9.125   4.458  65.181  0.00  0.00    -0.034 A 
ATOM     62  C30 non d ame      -7.992   5.264  65.136  0.00  0.00    -0.075 A 
ATOM     63  C31 non d ame      -7.540   5.766  63.917  0.00  0.00    -0.082 A 
ATOM     64  H49 non d ame      -7.458   5.502  66.056  0.00  0.00     0.084 H 
ATOM     65  C32 non d ame      -8.228   5.462  62.739  0.00  0.00    -0.083 A 
ATOM     66  H50 non d ame      -6.651   6.396  63.884  0.00  0.00     0.083 H 
ATOM     67  C33 non d ame      -9.360   4.660  62.789  0.00  0.00    -0.082 A 
ATOM     68  H51 non d ame      -7.881   5.850  61.781  0.00  0.00     0.083 H 
ATOM     69  C34 non d ame      -9.814   4.154  64.005  0.00  0.00    -0.075 A 
ATOM     70  H52 non d ame      -9.896   4.426  61.868  0.00  0.00     0.083 H 
ATOM     71  H53 non d ame     -10.703   3.524  64.036  0.00  0.00     0.084 H 
ENDBRANCH  58  61
ENDBRANCH  57  58
ENDBRANCH  55  57
ENDBRANCH  52  55
ENDBRANCH  49  52
ENDBRANCH  47  49
BRANCH  47  72
ATOM     72  C24 non d ame      -9.787   9.932  66.327  0.00  0.00    -0.039 C 
ATOM     73  H35 non d ame     -10.093  10.858  66.815  0.00  0.00     0.036 H 
ATOM     74  H36 non d ame      -8.750   9.603  66.386  0.00  0.00     0.036 H 
BRANCH  72  75
ATOM     75  C25 non d ame     -10.151  10.074  64.774  0.00  0.00    -0.001 C 
ATOM     76  C26 non d ame      -8.874   9.599  63.853  0.00  0.00    -0.035 C 
ATOM     77  C27 non d ame      -8.604  10.570  62.948  0.00  0.00     0.085 C 
ATOM     78  H38 non d ame      -7.971   9.558  64.461  0.00  0.00     0.036 H 
ATOM     79  H39 non d ame      -9.155   8.746  63.236  0.00  0.00     0.036 H 
ATOM     80  N5  non d ame      -9.366  11.800  63.379  0.00  0.00    -0.049 N 
ATOM     81  H40 non d ame      -7.534  10.764  63.040  0.00  0.00     0.075 H 
ATOM     82  H41 non d ame      -9.013  10.211  62.005  0.00  0.00     0.075 H 
ATOM     83  C28 non d ame     -10.442  11.296  64.471  0.00  0.00     0.193 C 
ATOM     84  H42 non d ame      -8.699  12.403  63.839  0.00  0.00     0.280 HD
ATOM     85  H43 non d ame      -9.865  12.127  62.564  0.00  0.00     0.280 HD
ATOM     86  H44 non d ame     -11.494  11.189  64.205  0.00  0.00     0.129 H 
ATOM     87  H37 non d ame     -11.123   9.640  64.536  0.00  0.00     0.046 H 
BRANCH  83  88
ATOM     88  O6  non d ame     -10.423  12.153  65.614  0.00  0.00    -0.369 OA
ATOM     89  H45 non d ame      -9.542  12.159  65.995  0.00  0.00     0.212 HD
ENDBRANCH  83  88
ENDBRANCH  72  75
ENDBRANCH  47  72
ENDBRANCH  45  47
ENDBRANCH   1  43
BRANCH   1  90
ATOM     90  C16 non d ame     -13.132  10.196  70.790  0.00  0.00    -0.035 C 
ATOM     91  H21 non d ame     -13.621  11.053  71.253  0.00  0.00     0.037 H 
ATOM     92  H22 non d ame     -13.577   9.722  69.915  0.00  0.00     0.037 H 
BRANCH  90  93
ATOM     93  C17 non d ame     -13.041   9.092  71.891  0.00  0.00    -0.059 C 
ATOM     94  H23 non d ame     -13.161   9.579  72.859  0.00  0.00     0.038 H 
BRANCH  93  95
ATOM     95  C18 non d ame     -14.173   8.025  71.751  0.00  0.00    -0.073 C 
ATOM     96  H24 non d ame     -13.737   7.067  71.467  0.00  0.00     0.028 H 
ATOM     97  H25 non d ame     -14.692   7.919  72.704  0.00  0.00     0.028 H 
ATOM     98  H26 non d ame     -14.880   8.344  70.985  0.00  0.00     0.028 H 
ENDBRANCH  93  95
BRANCH  93  99
ATOM     99  C19 non d ame     -11.662   8.427  71.886  0.00  0.00    -0.073 C 
ATOM    100  H27 non d ame     -11.107   8.733  72.773  0.00  0.00     0.028 H 
ATOM    101  H28 non d ame     -11.782   7.343  71.888  0.00  0.00     0.028 H 
ATOM    102  H29 non d ame     -11.116   8.729  70.993  0.00  0.00     0.028 H 
ENDBRANCH  93  99
ENDBRANCH  90  93
ENDBRANCH   1  90
TORSDOF 26
ENDMDL
MODEL 12
REMARK VINA RESULT:      -6.1      3.912     10.172
REMARK  26 active torsions:
REMARK  status: ('A' for Active; 'I' for Inactive)
REMARK    1  A    between atoms: C2_2  and  C3_3 
REMARK    2  A    between atoms: C4_6  and  C5_7 
REMARK       I    between atoms: C5_7  and  N2_9 
REMARK    3  A    between atoms: N2_9  and  C6_10 
REMARK    4  A    between atoms: C6_10  and  C7_11 
REMARK    5  A    between atoms: C6_10  and  C8_13 
REMARK       I    between atoms: C7_11  and  N3_14 
REMARK    6  A    between atoms: N3_14  and  C9_15 
REMARK    7  A    between atoms: C9_15  and  C10_16 
REMARK    8  A    between atoms: C9_15  and  C11_18 
REMARK       I    between atoms: C10_16  and  N4_21 
REMARK    9  A    between atoms: C11_18  and  C12_19 
REMARK   10  A    between atoms: C11_18  and  C13_20 
REMARK   11  A    between atoms: N4_21  and  C14_22 
REMARK   12  A    between atoms: C14_22  and  C15_23 
REMARK   13  A    between atoms: C14_22  and  C16_25 
REMARK       I    between atoms: C15_23  and  N6_40 
REMARK   14  A    between atoms: C16_25  and  C17_26 
REMARK   15  A    between atoms: C17_26  and  C18_27 
REMARK   16  A    between atoms: C17_26  and  C19_28 
REMARK   17  A    between atoms: C20_29  and  C21_30 
REMARK   18  A    between atoms: C20_29  and  C24_33 
REMARK   19  A    between atoms: C20_29  and  N6_40 
REMARK   20  A    between atoms: C21_30  and  C22_31 
REMARK   21  A    between atoms: C22_31  and  C23_32 
REMARK   22  A    between atoms: C23_32  and  O8_43 
REMARK   23  A    between atoms: C24_33  and  C25_34 
REMARK   24  A    between atoms: C28_38  and  O6_39 
REMARK   25  A    between atoms: C29_42  and  O8_43 
REMARK   26  A    between atoms: C29_42  and  C35_49 
ROOT
ATOM      1  C14 non d ame      -8.287   6.276  63.572  0.00  0.00     0.089 C 
ATOM      2  H20 non d ame      -8.921   6.445  62.701  0.00  0.00     0.087 H 
ENDROOT
BRANCH   1   3
ATOM      3  N4  non d ame      -8.143   7.549  64.263  0.00  0.00    -0.346 N 
ATOM      4  C10 non d ame      -8.327   8.846  63.516  0.00  0.00     0.241 C 
ATOM      5  O4  non d ame      -8.588   8.840  62.358  0.00  0.00    -0.271 OA
ATOM      6  H19 non d ame      -7.918   7.532  65.248  0.00  0.00     0.163 HD
BRANCH   4   7
ATOM      7  C9  non d ame      -8.179  10.154  64.248  0.00  0.00     0.092 C 
ATOM      8  H11 non d ame      -7.744  10.894  63.576  0.00  0.00     0.088 H 
BRANCH   7   9
ATOM      9  N3  non d ame      -9.503  10.648  64.638  0.00  0.00    -0.346 N 
ATOM     10  C7  non d ame     -10.167  11.642  63.831  0.00  0.00     0.240 C 
ATOM     11  O3  non d ame      -9.651  12.056  62.866  0.00  0.00    -0.271 OA
ATOM     12  H10 non d ame      -9.961  10.302  65.469  0.00  0.00     0.163 HD
BRANCH  10  13
ATOM     13  C6  non d ame     -11.575  12.166  64.253  0.00  0.00     0.086 C 
ATOM     14  H6  non d ame     -11.889  11.793  65.227  0.00  0.00     0.086 H 
BRANCH  13  15
ATOM     15  N2  non d ame     -11.526  13.615  64.358  0.00  0.00    -0.343 N 
ATOM     16  C5  non d ame     -10.745  14.234  65.431  0.00  0.00     0.273 C 
ATOM     17  O2  non d ame     -10.161  13.558  66.205  0.00  0.00    -0.266 OA
ATOM     18  H5  non d ame     -12.030  14.185  63.693  0.00  0.00     0.163 HD
BRANCH  16  19
ATOM     19  C4  non d ame     -10.683  15.765  65.553  0.00  0.00     0.154 A 
ATOM     20  C1  non d ame     -10.213  16.525  66.671  0.00  0.00    -0.017 A 
ATOM     21  C2  non d ame     -10.364  17.875  66.282  0.00  0.00     0.077 A 
ATOM     22  H1  non d ame      -9.822  16.154  67.618  0.00  0.00     0.091 H 
ATOM     23  O1  non d ame     -10.862  17.878  65.080  0.00  0.00    -0.218 OA
ATOM     24  N1  non d ame     -11.057  16.659  64.634  0.00  0.00    -0.123 NA
BRANCH  21  25
ATOM     25  C3  non d ame     -10.009  19.098  67.117  0.00  0.00    -0.029 C 
ATOM     26  H2  non d ame     -10.539  19.969  66.730  0.00  0.00     0.036 H 
ATOM     27  H3  non d ame     -10.298  18.927  68.153  0.00  0.00     0.036 H 
ATOM     28  H4  non d ame      -8.934  19.275  67.064  0.00  0.00     0.036 H 
ENDBRANCH  21  25
ENDBRANCH  16  19
ENDBRANCH  13  15
BRANCH  13  29
ATOM     29  C8  non d ame     -12.596  11.757  63.222  0.00  0.00    -0.049 C 
ATOM     30  H7  non d ame     -12.202  11.948  62.224  0.00  0.00     0.030 H 
ATOM     31  H8  non d ame     -12.816  10.695  63.330  0.00  0.00     0.030 H 
ATOM     32  H9  non d ame     -13.509  12.334  63.367  0.00  0.00     0.030 H 
ENDBRANCH  13  29
ENDBRANCH  10  13
ENDBRANCH   7   9
BRANCH   7  33
ATOM     33  C11 non d ame      -7.312   9.940  65.523  0.00  0.00    -0.033 C 
ATOM     34  H12 non d ame      -7.397   8.890  65.806  0.00  0.00     0.042 H 
BRANCH  33  35
ATOM     35  C12 non d ame      -5.805  10.228  65.241  0.00  0.00    -0.071 C 
ATOM     36  H13 non d ame      -5.650  11.305  65.164  0.00  0.00     0.028 H 
ATOM     37  H14 non d ame      -5.200   9.833  66.057  0.00  0.00     0.028 H 
ATOM     38  H15 non d ame      -5.512   9.751  64.307  0.00  0.00     0.028 H 
ENDBRANCH  33  35
BRANCH  33  39
ATOM     39  C13 non d ame      -7.842  10.805  66.712  0.00  0.00    -0.071 C 
ATOM     40  H16 non d ame      -8.702  10.312  67.165  0.00  0.00     0.028 H 
ATOM     41  H17 non d ame      -7.054  10.920  67.457  0.00  0.00     0.028 H 
ATOM     42  H18 non d ame      -8.139  11.786  66.342  0.00  0.00     0.028 H 
ENDBRANCH  33  39
ENDBRANCH   7  33
ENDBRANCH   4   7
ENDBRANCH   1   3
BRANCH   1  43
ATOM     43  C15 non d ame      -8.907   5.245  64.558  0.00  0.00     0.240 C 
ATOM     44  O5  non d ame      -9.575   4.355  64.140  0.00  0.00    -0.271 OA
ATOM     45  N6  non d ame      -8.660   5.362  66.024  0.00  0.00    -0.355 N 
ATOM     46  H46 non d ame      -8.090   6.110  66.390  0.00  0.00     0.162 HD
BRANCH  45  47
ATOM     47  C20 non d ame      -9.255   4.372  66.948  0.00  0.00     0.013 C 
ATOM     48  H30 non d ame     -10.102   3.908  66.443  0.00  0.00     0.072 H 
BRANCH  47  49
ATOM     49  C21 non d ame      -9.724   5.078  68.201  0.00  0.00    -0.038 C 
ATOM     50  H31 non d ame     -10.152   4.300  68.834  0.00  0.00     0.036 H 
ATOM     51  H32 non d ame      -8.870   5.657  68.550  0.00  0.00     0.036 H 
BRANCH  49  52
ATOM     52  C22 non d ame     -10.857   6.091  67.929  0.00  0.00     0.018 C 
ATOM     53  H33 non d ame     -11.349   5.748  67.018  0.00  0.00     0.048 H 
ATOM     54  H34 non d ame     -11.421   6.161  68.859  0.00  0.00     0.048 H 
BRANCH  52  55
ATOM     55  C23 non d ame     -10.352   7.529  67.626  0.00  0.00     0.259 C 
ATOM     56  O7  non d ame     -10.345   7.944  66.513  0.00  0.00    -0.265 OA
BRANCH  55  57
ATOM     57  O8  non d ame      -9.884   8.343  68.695  0.00  0.00    -0.317 OA
BRANCH  57  58
ATOM     58  C29 non d ame     -10.328   7.918  69.987  0.00  0.00     0.052 C 
ATOM     59  H47 non d ame     -10.881   6.994  69.820  0.00  0.00     0.082 H 
ATOM     60  H48 non d ame      -9.439   7.913  70.618  0.00  0.00     0.082 H 
BRANCH  58  61
ATOM     61  C35 non d ame     -11.311   8.988  70.532  0.00  0.00    -0.034 A 
ATOM     62  C30 non d ame     -11.300  10.276  70.006  0.00  0.00    -0.075 A 
ATOM     63  C31 non d ame     -12.183  11.237  70.496  0.00  0.00    -0.082 A 
ATOM     64  H49 non d ame     -10.601  10.531  69.210  0.00  0.00     0.084 H 
ATOM     65  C32 non d ame     -13.077  10.907  71.518  0.00  0.00    -0.083 A 
ATOM     66  H50 non d ame     -12.174  12.245  70.079  0.00  0.00     0.083 H 
ATOM     67  C33 non d ame     -13.081   9.622  72.042  0.00  0.00    -0.082 A 
ATOM     68  H51 non d ame     -13.771  11.653  71.906  0.00  0.00     0.083 H 
ATOM     69  C34 non d ame     -12.202   8.657  71.554  0.00  0.00    -0.075 A 
ATOM     70  H52 non d ame     -13.779   9.369  72.841  0.00  0.00     0.083 H 
ATOM     71  H53 non d ame     -12.212   7.650  71.971  0.00  0.00     0.084 H 
ENDBRANCH  58  61
ENDBRANCH  57  58
ENDBRANCH  55  57
ENDBRANCH  52  55
ENDBRANCH  49  52
ENDBRANCH  47  49
BRANCH  47  72
ATOM     72  C24 non d ame      -8.213   3.318  67.317  0.00  0.00    -0.039 C 
ATOM     73  H35 non d ame      -8.550   2.398  66.838  0.00  0.00     0.036 H 
ATOM     74  H36 non d ame      -7.252   3.753  67.046  0.00  0.00     0.036 H 
BRANCH  72  75
ATOM     75  C25 non d ame      -8.180   3.044  68.895  0.00  0.00    -0.001 C 
ATOM     76  C26 non d ame      -6.962   3.904  69.587  0.00  0.00    -0.035 C 
ATOM     77  C27 non d ame      -6.211   3.066  70.342  0.00  0.00     0.085 C 
ATOM     78  H38 non d ame      -6.267   4.249  68.822  0.00  0.00     0.036 H 
ATOM     79  H39 non d ame      -7.367   4.608  70.314  0.00  0.00     0.036 H 
ATOM     80  N5  non d ame      -6.609   1.659  69.968  0.00  0.00    -0.049 N 
ATOM     81  H40 non d ame      -5.180   3.238  70.030  0.00  0.00     0.075 H 
ATOM     82  H41 non d ame      -6.508   3.257  71.372  0.00  0.00     0.075 H 
ATOM     83  C28 non d ame      -7.993   1.791  69.148  0.00  0.00     0.193 C 
ATOM     84  H42 non d ame      -5.895   1.316  69.341  0.00  0.00     0.280 HD
ATOM     85  H43 non d ame      -6.794   1.174  70.835  0.00  0.00     0.280 HD
ATOM     86  H44 non d ame      -8.943   1.540  69.620  0.00  0.00     0.129 H 
ATOM     87  H37 non d ame      -9.168   3.129  69.349  0.00  0.00     0.046 H 
BRANCH  83  88
ATOM     88  O6  non d ame      -7.938   1.003  67.957  0.00  0.00    -0.369 OA
ATOM     89  H45 non d ame      -8.709   0.434  67.915  0.00  0.00     0.212 HD
ENDBRANCH  83  88
ENDBRANCH  72  75
ENDBRANCH  47  72
ENDBRANCH  45  47
ENDBRANCH   1  43
BRANCH   1  90
ATOM     90  C16 non d ame      -6.916   5.796  63.125  0.00  0.00    -0.035 C 
ATOM     91  H21 non d ame      -6.924   4.716  63.276  0.00  0.00     0.037 H 
ATOM     92  H22 non d ame      -6.779   6.205  62.124  0.00  0.00     0.037 H 
BRANCH  90  93
ATOM     93  C17 non d ame      -5.743   6.353  63.994  0.00  0.00    -0.059 C 
ATOM     94  H23 non d ame      -6.178   6.960  64.787  0.00  0.00     0.038 H 
BRANCH  93  95
ATOM     95  C18 non d ame      -4.914   5.212  64.667  0.00  0.00    -0.073 C 
ATOM     96  H24 non d ame      -5.593   4.469  65.086  0.00  0.00     0.028 H 
ATOM     97  H25 non d ame      -4.274   4.739  63.921  0.00  0.00     0.028 H 
ATOM     98  H26 non d ame      -4.298   5.631  65.462  0.00  0.00     0.028 H 
ENDBRANCH  93  95
BRANCH  93  99
ATOM     99  C19 non d ame      -4.837   7.268  63.166  0.00  0.00    -0.073 C 
ATOM    100  H27 non d ame      -4.165   6.662  62.558  0.00  0.00     0.028 H 
ATOM    101  H28 non d ame      -5.450   7.894  62.517  0.00  0.00     0.028 H 
ATOM    102  H29 non d ame      -4.253   7.901  63.834  0.00  0.00     0.028 H 
ENDBRANCH  93  99
ENDBRANCH  90  93
ENDBRANCH   1  90
TORSDOF 26
ENDMDL
MODEL 13
REMARK VINA RESULT:      -6.1      2.864      7.914
REMARK  26 active torsions:
REMARK  status: ('A' for Active; 'I' for Inactive)
REMARK    1  A    between atoms: C2_2  and  C3_3 
REMARK    2  A    between atoms: C4_6  and  C5_7 
REMARK       I    between atoms: C5_7  and  N2_9 
REMARK    3  A    between atoms: N2_9  and  C6_10 
REMARK    4  A    between atoms: C6_10  and  C7_11 
REMARK    5  A    between atoms: C6_10  and  C8_13 
REMARK       I    between atoms: C7_11  and  N3_14 
REMARK    6  A    between atoms: N3_14  and  C9_15 
REMARK    7  A    between atoms: C9_15  and  C10_16 
REMARK    8  A    between atoms: C9_15  and  C11_18 
REMARK       I    between atoms: C10_16  and  N4_21 
REMARK    9  A    between atoms: C11_18  and  C12_19 
REMARK   10  A    between atoms: C11_18  and  C13_20 
REMARK   11  A    between atoms: N4_21  and  C14_22 
REMARK   12  A    between atoms: C14_22  and  C15_23 
REMARK   13  A    between atoms: C14_22  and  C16_25 
REMARK       I    between atoms: C15_23  and  N6_40 
REMARK   14  A    between atoms: C16_25  and  C17_26 
REMARK   15  A    between atoms: C17_26  and  C18_27 
REMARK   16  A    between atoms: C17_26  and  C19_28 
REMARK   17  A    between atoms: C20_29  and  C21_30 
REMARK   18  A    between atoms: C20_29  and  C24_33 
REMARK   19  A    between atoms: C20_29  and  N6_40 
REMARK   20  A    between atoms: C21_30  and  C22_31 
REMARK   21  A    between atoms: C22_31  and  C23_32 
REMARK   22  A    between atoms: C23_32  and  O8_43 
REMARK   23  A    between atoms: C24_33  and  C25_34 
REMARK   24  A    between atoms: C28_38  and  O6_39 
REMARK   25  A    between atoms: C29_42  and  O8_43 
REMARK   26  A    between atoms: C29_42  and  C35_49 
ROOT
ATOM      1  C14 non d ame      -8.828   8.892  69.586  0.00  0.00     0.089 C 
ATOM      2  H20 non d ame      -8.421   8.718  70.583  0.00  0.00     0.087 H 
ENDROOT
BRANCH   1   3
ATOM      3  N4  non d ame      -8.244  10.126  69.083  0.00  0.00    -0.346 N 
ATOM      4  C10 non d ame      -7.068  10.755  69.786  0.00  0.00     0.241 C 
ATOM      5  O4  non d ame      -6.609  10.249  70.758  0.00  0.00    -0.271 OA
ATOM      6  H19 non d ame      -8.651  10.542  68.257  0.00  0.00     0.163 HD
BRANCH   4   7
ATOM      7  C9  non d ame      -6.473  12.030  69.249  0.00  0.00     0.092 C 
ATOM      8  H11 non d ame      -6.140  11.865  68.224  0.00  0.00     0.088 H 
BRANCH   7   9
ATOM      9  N3  non d ame      -7.503  13.071  69.208  0.00  0.00    -0.346 N 
ATOM     10  C7  non d ame      -8.105  13.440  67.950  0.00  0.00     0.240 C 
ATOM     11  O3  non d ame      -7.771  12.910  66.961  0.00  0.00    -0.271 OA
ATOM     12  H10 non d ame      -7.801  13.538  70.052  0.00  0.00     0.163 HD
BRANCH  10  13
ATOM     13  C6  non d ame      -9.200  14.552  67.912  0.00  0.00     0.086 C 
ATOM     14  H6  non d ame      -9.972  14.358  67.168  0.00  0.00     0.086 H 
BRANCH  13  15
ATOM     15  N2  non d ame      -9.869  14.599  69.202  0.00  0.00    -0.343 N 
ATOM     16  C5  non d ame     -11.305  14.876  69.260  0.00  0.00     0.273 C 
ATOM     17  O2  non d ame     -11.913  15.063  68.263  0.00  0.00    -0.266 OA
ATOM     18  H5  non d ame      -9.341  14.440  70.049  0.00  0.00     0.163 HD
BRANCH  16  19
ATOM     19  C4  non d ame     -12.026  14.927  70.616  0.00  0.00     0.154 A 
ATOM     20  C1  non d ame     -11.606  15.625  71.793  0.00  0.00    -0.017 A 
ATOM     21  C2  non d ame     -12.606  15.354  72.752  0.00  0.00     0.077 A 
ATOM     22  H1  non d ame     -10.712  16.234  71.929  0.00  0.00     0.091 H 
ATOM     23  O1  non d ame     -13.493  14.591  72.183  0.00  0.00    -0.218 OA
ATOM     24  N1  non d ame     -13.176  14.327  70.937  0.00  0.00    -0.123 NA
BRANCH  21  25
ATOM     25  C3  non d ame     -12.640  15.864  74.187  0.00  0.00    -0.029 C 
ATOM     26  H2  non d ame     -13.520  16.492  74.330  0.00  0.00     0.036 H 
ATOM     27  H3  non d ame     -12.684  15.017  74.872  0.00  0.00     0.036 H 
ATOM     28  H4  non d ame     -11.741  16.447  74.388  0.00  0.00     0.036 H 
ENDBRANCH  21  25
ENDBRANCH  16  19
ENDBRANCH  13  15
BRANCH  13  29
ATOM     29  C8  non d ame      -8.558  15.883  67.615  0.00  0.00    -0.049 C 
ATOM     30  H7  non d ame      -9.208  16.686  67.963  0.00  0.00     0.030 H 
ATOM     31  H8  non d ame      -7.597  15.946  68.126  0.00  0.00     0.030 H 
ATOM     32  H9  non d ame      -8.405  15.980  66.540  0.00  0.00     0.030 H 
ENDBRANCH  13  29
ENDBRANCH  10  13
ENDBRANCH   7   9
BRANCH   7  33
ATOM     33  C11 non d ame      -5.310  12.490  70.175  0.00  0.00    -0.033 C 
ATOM     34  H12 non d ame      -5.121  11.689  70.889  0.00  0.00     0.042 H 
BRANCH  33  35
ATOM     35  C12 non d ame      -3.995  12.718  69.367  0.00  0.00    -0.071 C 
ATOM     36  H13 non d ame      -3.138  12.436  69.980  0.00  0.00     0.028 H 
ATOM     37  H14 non d ame      -4.013  12.107  68.465  0.00  0.00     0.028 H 
ATOM     38  H15 non d ame      -3.915  13.769  69.092  0.00  0.00     0.028 H 
ENDBRANCH  33  35
BRANCH  33  39
ATOM     39  C13 non d ame      -5.709  13.769  70.980  0.00  0.00    -0.071 C 
ATOM     40  H16 non d ame      -4.983  13.941  71.774  0.00  0.00     0.028 H 
ATOM     41  H17 non d ame      -5.725  14.630  70.310  0.00  0.00     0.028 H 
ATOM     42  H18 non d ame      -6.698  13.630  71.415  0.00  0.00     0.028 H 
ENDBRANCH  33  39
ENDBRANCH   7  33
ENDBRANCH   4   7
ENDBRANCH   1   3
BRANCH   1  43
ATOM     43  C15 non d ame      -8.478   7.741  68.600  0.00  0.00     0.240 C 
ATOM     44  O5  non d ame      -8.721   6.615  68.895  0.00  0.00    -0.271 OA
ATOM     45  N6  non d ame      -7.847   8.042  67.284  0.00  0.00    -0.355 N 
ATOM     46  H46 non d ame      -7.640   8.995  67.020  0.00  0.00     0.162 HD
BRANCH  45  47
ATOM     47  C20 non d ame      -7.521   6.937  66.357  0.00  0.00     0.013 C 
ATOM     48  H30 non d ame      -7.295   6.054  66.954  0.00  0.00     0.072 H 
BRANCH  47  49
ATOM     49  C21 non d ame      -6.318   7.320  65.526  0.00  0.00    -0.038 C 
ATOM     50  H31 non d ame      -5.475   6.785  65.963  0.00  0.00     0.036 H 
ATOM     51  H32 non d ame      -6.604   7.133  64.490  0.00  0.00     0.036 H 
BRANCH  49  52
ATOM     52  C22 non d ame      -5.977   8.823  65.620  0.00  0.00     0.018 C 
ATOM     53  H33 non d ame      -6.255   9.125  66.630  0.00  0.00     0.048 H 
ATOM     54  H34 non d ame      -4.942   8.913  65.290  0.00  0.00     0.048 H 
BRANCH  52  55
ATOM     55  C23 non d ame      -6.812   9.716  64.661  0.00  0.00     0.259 C 
ATOM     56  O7  non d ame      -6.379  10.031  63.600  0.00  0.00    -0.265 OA
BRANCH  55  57
ATOM     57  O8  non d ame      -8.099  10.164  65.070  0.00  0.00    -0.317 OA
BRANCH  57  58
ATOM     58  C29 non d ame      -9.100  10.067  64.052  0.00  0.00     0.052 C 
ATOM     59  H47 non d ame      -8.624  10.417  63.136  0.00  0.00     0.082 H 
ATOM     60  H48 non d ame      -9.483   9.049  64.112  0.00  0.00     0.082 H 
BRANCH  58  61
ATOM     61  C35 non d ame     -10.248  11.046  64.415  0.00  0.00    -0.034 A 
ATOM     62  C30 non d ame     -10.568  11.282  65.748  0.00  0.00    -0.075 A 
ATOM     63  C31 non d ame     -11.599  12.161  66.074  0.00  0.00    -0.082 A 
ATOM     64  H49 non d ame     -10.010  10.778  66.538  0.00  0.00     0.084 H 
ATOM     65  C32 non d ame     -12.314  12.804  65.060  0.00  0.00    -0.083 A 
ATOM     66  H50 non d ame     -11.846  12.345  67.120  0.00  0.00     0.083 H 
ATOM     67  C33 non d ame     -11.994  12.563  63.731  0.00  0.00    -0.082 A 
ATOM     68  H51 non d ame     -13.122  13.494  65.306  0.00  0.00     0.083 H 
ATOM     69  C34 non d ame     -10.962  11.687  63.401  0.00  0.00    -0.075 A 
ATOM     70  H52 non d ame     -12.555  13.065  62.942  0.00  0.00     0.083 H 
ATOM     71  H53 non d ame     -10.716  11.504  62.355  0.00  0.00     0.084 H 
ENDBRANCH  58  61
ENDBRANCH  57  58
ENDBRANCH  55  57
ENDBRANCH  52  55
ENDBRANCH  49  52
ENDBRANCH  47  49
BRANCH  47  72
ATOM     72  C24 non d ame      -8.710   6.666  65.438  0.00  0.00    -0.039 C 
ATOM     73  H35 non d ame      -9.552   7.190  65.891  0.00  0.00     0.036 H 
ATOM     74  H36 non d ame      -8.373   6.939  64.438  0.00  0.00     0.036 H 
BRANCH  72  75
ATOM     75  C25 non d ame      -9.088   5.109  65.400  0.00  0.00    -0.001 C 
ATOM     76  C26 non d ame      -9.233   4.605  63.842  0.00  0.00    -0.035 C 
ATOM     77  C27 non d ame     -10.419   3.968  63.697  0.00  0.00     0.085 C 
ATOM     78  H38 non d ame      -9.322   5.465  63.178  0.00  0.00     0.036 H 
ATOM     79  H39 non d ame      -8.498   3.828  63.631  0.00  0.00     0.036 H 
ATOM     80  N5  non d ame     -11.238   4.277  64.927  0.00  0.00    -0.049 N 
ATOM     81  H40 non d ame     -10.893   4.428  62.830  0.00  0.00     0.075 H 
ATOM     82  H41 non d ame     -10.179   2.905  63.688  0.00  0.00     0.075 H 
ATOM     83  C28 non d ame     -10.205   4.885  66.008  0.00  0.00     0.193 C 
ATOM     84  H42 non d ame     -11.890   5.001  64.663  0.00  0.00     0.280 HD
ATOM     85  H43 non d ame     -11.581   3.391  65.273  0.00  0.00     0.280 HD
ATOM     86  H44 non d ame      -9.857   4.277  66.844  0.00  0.00     0.129 H 
ATOM     87  H37 non d ame      -8.453   4.514  66.057  0.00  0.00     0.046 H 
BRANCH  83  88
ATOM     88  O6  non d ame     -10.747   6.069  66.596  0.00  0.00    -0.369 OA
ATOM     89  H45 non d ame     -11.641   5.896  66.897  0.00  0.00     0.212 HD
ENDBRANCH  83  88
ENDBRANCH  72  75
ENDBRANCH  47  72
ENDBRANCH  45  47
ENDBRANCH   1  43
BRANCH   1  90
ATOM     90  C16 non d ame     -10.337   9.054  69.667  0.00  0.00    -0.035 C 
ATOM     91  H21 non d ame     -10.516  10.128  69.610  0.00  0.00     0.037 H 
ATOM     92  H22 non d ame     -10.740   8.393  68.899  0.00  0.00     0.037 H 
BRANCH  90  93
ATOM     93  C17 non d ame     -10.947   8.576  71.024  0.00  0.00    -0.059 C 
ATOM     94  H23 non d ame     -11.403   7.601  70.857  0.00  0.00     0.038 H 
BRANCH  93  95
ATOM     95  C18 non d ame      -9.858   8.409  72.132  0.00  0.00    -0.073 C 
ATOM     96  H24 non d ame      -9.017   9.067  71.917  0.00  0.00     0.028 H 
ATOM     97  H25 non d ame     -10.284   8.670  73.102  0.00  0.00     0.028 H 
ATOM     98  H26 non d ame      -9.516   7.374  72.152  0.00  0.00     0.028 H 
ENDBRANCH  93  95
BRANCH  93  99
ATOM     99  C19 non d ame     -12.056   9.523  71.488  0.00  0.00    -0.073 C 
ATOM    100  H27 non d ame     -12.115   9.509  72.577  0.00  0.00     0.028 H 
ATOM    101  H28 non d ame     -11.834  10.536  71.150  0.00  0.00     0.028 H 
ATOM    102  H29 non d ame     -13.009   9.201  71.068  0.00  0.00     0.028 H 
ENDBRANCH  93  99
ENDBRANCH  90  93
ENDBRANCH   1  90
TORSDOF 26
ENDMDL
MODEL 14
REMARK VINA RESULT:      -6.1      2.509      8.152
REMARK  26 active torsions:
REMARK  status: ('A' for Active; 'I' for Inactive)
REMARK    1  A    between atoms: C2_2  and  C3_3 
REMARK    2  A    between atoms: C4_6  and  C5_7 
REMARK       I    between atoms: C5_7  and  N2_9 
REMARK    3  A    between atoms: N2_9  and  C6_10 
REMARK    4  A    between atoms: C6_10  and  C7_11 
REMARK    5  A    between atoms: C6_10  and  C8_13 
REMARK       I    between atoms: C7_11  and  N3_14 
REMARK    6  A    between atoms: N3_14  and  C9_15 
REMARK    7  A    between atoms: C9_15  and  C10_16 
REMARK    8  A    between atoms: C9_15  and  C11_18 
REMARK       I    between atoms: C10_16  and  N4_21 
REMARK    9  A    between atoms: C11_18  and  C12_19 
REMARK   10  A    between atoms: C11_18  and  C13_20 
REMARK   11  A    between atoms: N4_21  and  C14_22 
REMARK   12  A    between atoms: C14_22  and  C15_23 
REMARK   13  A    between atoms: C14_22  and  C16_25 
REMARK       I    between atoms: C15_23  and  N6_40 
REMARK   14  A    between atoms: C16_25  and  C17_26 
REMARK   15  A    between atoms: C17_26  and  C18_27 
REMARK   16  A    between atoms: C17_26  and  C19_28 
REMARK   17  A    between atoms: C20_29  and  C21_30 
REMARK   18  A    between atoms: C20_29  and  C24_33 
REMARK   19  A    between atoms: C20_29  and  N6_40 
REMARK   20  A    between atoms: C21_30  and  C22_31 
REMARK   21  A    between atoms: C22_31  and  C23_32 
REMARK   22  A    between atoms: C23_32  and  O8_43 
REMARK   23  A    between atoms: C24_33  and  C25_34 
REMARK   24  A    between atoms: C28_38  and  O6_39 
REMARK   25  A    between atoms: C29_42  and  O8_43 
REMARK   26  A    between atoms: C29_42  and  C35_49 
ROOT
ATOM      1  C14 non d ame      -8.723  13.543  68.454  0.00  0.00     0.089 C 
ATOM      2  H20 non d ame      -8.785  14.630  68.515  0.00  0.00     0.087 H 
ENDROOT
BRANCH   1   3
ATOM      3  N4  non d ame      -9.864  12.998  69.175  0.00  0.00    -0.346 N 
ATOM      4  C10 non d ame     -11.173  13.745  69.204  0.00  0.00     0.241 C 
ATOM      5  O4  non d ame     -11.284  14.785  68.643  0.00  0.00    -0.271 OA
ATOM      6  H19 non d ame      -9.748  12.113  69.648  0.00  0.00     0.163 HD
BRANCH   4   7
ATOM      7  C9  non d ame     -12.345  13.163  69.950  0.00  0.00     0.092 C 
ATOM      8  H11 non d ame     -13.159  12.976  69.250  0.00  0.00     0.088 H 
BRANCH   7   9
ATOM      9  N3  non d ame     -11.965  11.870  70.527  0.00  0.00    -0.346 N 
ATOM     10  C7  non d ame     -11.990  10.681  69.710  0.00  0.00     0.240 C 
ATOM     11  O3  non d ame     -12.315  10.747  68.588  0.00  0.00    -0.271 OA
ATOM     12  H10 non d ame     -11.684  11.797  71.494  0.00  0.00     0.163 HD
BRANCH  10  13
ATOM     13  C6  non d ame     -11.587   9.307  70.330  0.00  0.00     0.086 C 
ATOM     14  H6  non d ame     -12.421   8.806  70.821  0.00  0.00     0.086 H 
BRANCH  13  15
ATOM     15  N2  non d ame     -11.138   8.424  69.267  0.00  0.00    -0.343 N 
ATOM     16  C5  non d ame     -11.245   6.974  69.441  0.00  0.00     0.273 C 
ATOM     17  O2  non d ame     -11.692   6.528  70.441  0.00  0.00    -0.266 OA
ATOM     18  H5  non d ame     -10.755   8.813  68.417  0.00  0.00     0.163 HD
BRANCH  16  19
ATOM     19  C4  non d ame     -10.776   6.028  68.325  0.00  0.00     0.154 A 
ATOM     20  C1  non d ame      -9.894   4.908  68.454  0.00  0.00    -0.017 A 
ATOM     21  C2  non d ame      -9.785   4.379  67.149  0.00  0.00     0.077 A 
ATOM     22  H1  non d ame      -9.407   4.537  69.356  0.00  0.00     0.091 H 
ATOM     23  O1  non d ame     -10.523   5.114  66.370  0.00  0.00    -0.218 OA
ATOM     24  N1  non d ame     -11.111   6.083  67.033  0.00  0.00    -0.123 NA
BRANCH  21  25
ATOM     25  C3  non d ame      -8.957   3.170  66.732  0.00  0.00    -0.029 C 
ATOM     26  H2  non d ame      -9.549   2.533  66.075  0.00  0.00     0.036 H 
ATOM     27  H3  non d ame      -8.064   3.506  66.206  0.00  0.00     0.036 H 
ATOM     28  H4  non d ame      -8.666   2.606  67.619  0.00  0.00     0.036 H 
ENDBRANCH  21  25
ENDBRANCH  16  19
ENDBRANCH  13  15
BRANCH  13  29
ATOM     29  C8  non d ame     -10.481   9.511  71.334  0.00  0.00    -0.049 C 
ATOM     30  H7  non d ame      -9.721   8.742  71.199  0.00  0.00     0.030 H 
ATOM     31  H8  non d ame     -10.034  10.495  71.188  0.00  0.00     0.030 H 
ATOM     32  H9  non d ame     -10.889   9.444  72.343  0.00  0.00     0.030 H 
ENDBRANCH  13  29
ENDBRANCH  10  13
ENDBRANCH   7   9
BRANCH   7  33
ATOM     33  C11 non d ame     -12.767  14.133  71.092  0.00  0.00    -0.033 C 
ATOM     34  H12 non d ame     -13.435  14.878  70.661  0.00  0.00     0.042 H 
BRANCH  33  35
ATOM     35  C12 non d ame     -13.558  13.385  72.211  0.00  0.00    -0.071 C 
ATOM     36  H13 non d ame     -14.606  13.682  72.174  0.00  0.00     0.028 H 
ATOM     37  H14 non d ame     -13.480  12.310  72.053  0.00  0.00     0.028 H 
ATOM     38  H15 non d ame     -13.140  13.642  73.184  0.00  0.00     0.028 H 
ENDBRANCH  33  35
BRANCH  33  39
ATOM     39  C13 non d ame     -11.525  14.879  71.679  0.00  0.00    -0.071 C 
ATOM     40  H16 non d ame     -10.792  14.150  72.021  0.00  0.00     0.028 H 
ATOM     41  H17 non d ame     -11.080  15.507  70.906  0.00  0.00     0.028 H 
ATOM     42  H18 non d ame     -11.839  15.501  72.517  0.00  0.00     0.028 H 
ENDBRANCH  33  39
ENDBRANCH   7  33
ENDBRANCH   4   7
ENDBRANCH   1   3
BRANCH   1  43
ATOM     43  C15 non d ame      -8.775  13.033  66.985  0.00  0.00     0.240 C 
ATOM     44  O5  non d ame      -7.764  12.799  66.405  0.00  0.00    -0.271 OA
ATOM     45  N6  non d ame     -10.085  12.828  66.305  0.00  0.00    -0.355 N 
ATOM     46  H46 non d ame     -10.950  13.019  66.789  0.00  0.00     0.162 HD
BRANCH  45  47
ATOM     47  C20 non d ame     -10.117  12.341  64.909  0.00  0.00     0.013 C 
ATOM     48  H30 non d ame      -9.142  12.536  64.463  0.00  0.00     0.072 H 
BRANCH  47  49
ATOM     49  C21 non d ame     -11.192  13.082  64.146  0.00  0.00    -0.038 C 
ATOM     50  H31 non d ame     -10.673  13.615  63.349  0.00  0.00     0.036 H 
ATOM     51  H32 non d ame     -11.947  12.335  63.901  0.00  0.00     0.036 H 
BRANCH  49  52
ATOM     52  C22 non d ame     -11.901  14.156  65.000  0.00  0.00     0.018 C 
ATOM     53  H33 non d ame     -12.948  13.855  65.044  0.00  0.00     0.048 H 
ATOM     54  H34 non d ame     -11.318  14.236  65.918  0.00  0.00     0.048 H 
BRANCH  52  55
ATOM     55  C23 non d ame     -11.889  15.572  64.361  0.00  0.00     0.259 C 
ATOM     56  O7  non d ame     -12.747  15.901  63.607  0.00  0.00    -0.265 OA
BRANCH  55  57
ATOM     57  O8  non d ame     -10.833  16.471  64.677  0.00  0.00    -0.317 OA
BRANCH  57  58
ATOM     58  C29 non d ame     -10.255  16.258  65.968  0.00  0.00     0.052 C 
ATOM     59  H47 non d ame     -11.033  15.781  66.565  0.00  0.00     0.082 H 
ATOM     60  H48 non d ame      -9.312  15.742  65.789  0.00  0.00     0.082 H 
BRANCH  58  61
ATOM     61  C35 non d ame      -9.943  17.647  66.588  0.00  0.00    -0.034 A 
ATOM     62  C30 non d ame      -9.132  17.741  67.714  0.00  0.00    -0.075 A 
ATOM     63  C31 non d ame      -8.852  18.988  68.271  0.00  0.00    -0.082 A 
ATOM     64  H49 non d ame      -8.716  16.838  68.160  0.00  0.00     0.084 H 
ATOM     65  C32 non d ame      -9.389  20.144  67.698  0.00  0.00    -0.083 A 
ATOM     66  H50 non d ame      -8.214  19.059  69.152  0.00  0.00     0.083 H 
ATOM     67  C33 non d ame     -10.200  20.045  66.576  0.00  0.00    -0.082 A 
ATOM     68  H51 non d ame      -9.175  21.123  68.126  0.00  0.00     0.083 H 
ATOM     69  C34 non d ame     -10.481  18.801  66.015  0.00  0.00    -0.075 A 
ATOM     70  H52 non d ame     -10.620  20.949  66.132  0.00  0.00     0.083 H 
ATOM     71  H53 non d ame     -11.118  18.731  65.133  0.00  0.00     0.084 H 
ENDBRANCH  58  61
ENDBRANCH  57  58
ENDBRANCH  55  57
ENDBRANCH  52  55
ENDBRANCH  49  52
ENDBRANCH  47  49
BRANCH  47  72
ATOM     72  C24 non d ame     -10.419  10.844  64.891  0.00  0.00    -0.039 C 
ATOM     73  H35 non d ame     -11.121  10.680  65.709  0.00  0.00     0.036 H 
ATOM     74  H36 non d ame     -10.716  10.620  63.866  0.00  0.00     0.036 H 
BRANCH  72  75
ATOM     75  C25 non d ame      -9.113   9.972  65.207  0.00  0.00    -0.001 C 
ATOM     76  C26 non d ame      -8.558   9.274  63.825  0.00  0.00    -0.035 C 
ATOM     77  C27 non d ame      -8.390   7.948  64.044  0.00  0.00     0.085 C 
ATOM     78  H38 non d ame      -9.327   9.309  63.054  0.00  0.00     0.036 H 
ATOM     79  H39 non d ame      -7.550   9.626  63.607  0.00  0.00     0.036 H 
ATOM     80  N5  non d ame      -9.087   7.622  65.342  0.00  0.00    -0.049 N 
ATOM     81  H40 non d ame      -8.912   7.449  63.226  0.00  0.00     0.075 H 
ATOM     82  H41 non d ame      -7.317   7.807  64.172  0.00  0.00     0.075 H 
ATOM     83  C28 non d ame      -9.369   9.039  66.062  0.00  0.00     0.193 C 
ATOM     84  H42 non d ame      -9.973   7.205  65.095  0.00  0.00     0.280 HD
ATOM     85  H43 non d ame      -8.424   7.104  65.901  0.00  0.00     0.280 HD
ATOM     86  H44 non d ame      -8.755   9.366  66.902  0.00  0.00     0.129 H 
ATOM     87  H37 non d ame      -8.389  10.517  65.812  0.00  0.00     0.046 H 
BRANCH  83  88
ATOM     88  O6  non d ame     -10.718   9.094  66.532  0.00  0.00    -0.369 OA
ATOM     89  H45 non d ame     -11.101   9.944  66.305  0.00  0.00     0.212 HD
ENDBRANCH  83  88
ENDBRANCH  72  75
ENDBRANCH  47  72
ENDBRANCH  45  47
ENDBRANCH   1  43
BRANCH   1  90
ATOM     90  C16 non d ame      -7.442  13.063  69.117  0.00  0.00    -0.035 C 
ATOM     91  H21 non d ame      -7.750  12.658  70.081  0.00  0.00     0.037 H 
ATOM     92  H22 non d ame      -6.961  12.416  68.383  0.00  0.00     0.037 H 
BRANCH  90  93
ATOM     93  C17 non d ame      -6.427  14.211  69.425  0.00  0.00    -0.059 C 
ATOM     94  H23 non d ame      -5.978  14.003  70.396  0.00  0.00     0.038 H 
BRANCH  93  95
ATOM     95  C18 non d ame      -5.276  14.277  68.371  0.00  0.00    -0.073 C 
ATOM     96  H24 non d ame      -4.427  14.814  68.795  0.00  0.00     0.028 H 
ATOM     97  H25 non d ame      -4.969  13.266  68.104  0.00  0.00     0.028 H 
ATOM     98  H26 non d ame      -5.628  14.798  67.481  0.00  0.00     0.028 H 
ENDBRANCH  93  95
BRANCH  93  99
ATOM     99  C19 non d ame      -7.144  15.559  69.534  0.00  0.00    -0.073 C 
ATOM    100  H27 non d ame      -7.713  15.744  68.622  0.00  0.00     0.028 H 
ATOM    101  H28 non d ame      -7.822  15.541  70.388  0.00  0.00     0.028 H 
ATOM    102  H29 non d ame      -6.409  16.351  69.671  0.00  0.00     0.028 H 
ENDBRANCH  93  99
ENDBRANCH  90  93
ENDBRANCH   1  90
TORSDOF 26
ENDMDL
MODEL 15
REMARK VINA RESULT:      -6.1      1.623      6.987
REMARK  26 active torsions:
REMARK  status: ('A' for Active; 'I' for Inactive)
REMARK    1  A    between atoms: C2_2  and  C3_3 
REMARK    2  A    between atoms: C4_6  and  C5_7 
REMARK       I    between atoms: C5_7  and  N2_9 
REMARK    3  A    between atoms: N2_9  and  C6_10 
REMARK    4  A    between atoms: C6_10  and  C7_11 
REMARK    5  A    between atoms: C6_10  and  C8_13 
REMARK       I    between atoms: C7_11  and  N3_14 
REMARK    6  A    between atoms: N3_14  and  C9_15 
REMARK    7  A    between atoms: C9_15  and  C10_16 
REMARK    8  A    between atoms: C9_15  and  C11_18 
REMARK       I    between atoms: C10_16  and  N4_21 
REMARK    9  A    between atoms: C11_18  and  C12_19 
REMARK   10  A    between atoms: C11_18  and  C13_20 
REMARK   11  A    between atoms: N4_21  and  C14_22 
REMARK   12  A    between atoms: C14_22  and  C15_23 
REMARK   13  A    between atoms: C14_22  and  C16_25 
REMARK       I    between atoms: C15_23  and  N6_40 
REMARK   14  A    between atoms: C16_25  and  C17_26 
REMARK   15  A    between atoms: C17_26  and  C18_27 
REMARK   16  A    between atoms: C17_26  and  C19_28 
REMARK   17  A    between atoms: C20_29  and  C21_30 
REMARK   18  A    between atoms: C20_29  and  C24_33 
REMARK   19  A    between atoms: C20_29  and  N6_40 
REMARK   20  A    between atoms: C21_30  and  C22_31 
REMARK   21  A    between atoms: C22_31  and  C23_32 
REMARK   22  A    between atoms: C23_32  and  O8_43 
REMARK   23  A    between atoms: C24_33  and  C25_34 
REMARK   24  A    between atoms: C28_38  and  O6_39 
REMARK   25  A    between atoms: C29_42  and  O8_43 
REMARK   26  A    between atoms: C29_42  and  C35_49 
ROOT
ATOM      1  C14 non d ame      -6.698  13.018  68.126  0.00  0.00     0.089 C 
ATOM      2  H20 non d ame      -5.685  12.890  67.745  0.00  0.00     0.087 H 
ENDROOT
BRANCH   1   3
ATOM      3  N4  non d ame      -7.035  14.429  68.009  0.00  0.00    -0.346 N 
ATOM      4  C10 non d ame      -5.968  15.442  67.680  0.00  0.00     0.241 C 
ATOM      5  O4  non d ame      -4.844  15.098  67.516  0.00  0.00    -0.271 OA
ATOM      6  H19 non d ame      -7.997  14.701  68.155  0.00  0.00     0.163 HD
BRANCH   4   7
ATOM      7  C9  non d ame      -6.336  16.898  67.557  0.00  0.00     0.092 C 
ATOM      8  H11 non d ame      -6.133  17.234  66.540  0.00  0.00     0.088 H 
BRANCH   7   9
ATOM      9  N3  non d ame      -7.775  17.060  67.789  0.00  0.00    -0.346 N 
ATOM     10  C7  non d ame      -8.591  17.730  66.807  0.00  0.00     0.240 C 
ATOM     11  O3  non d ame      -8.107  18.147  65.826  0.00  0.00    -0.271 OA
ATOM     12  H10 non d ame      -8.206  16.707  68.631  0.00  0.00     0.163 HD
BRANCH  10  13
ATOM     13  C6  non d ame     -10.121  17.903  67.060  0.00  0.00     0.086 C 
ATOM     14  H6  non d ame     -10.731  17.357  66.341  0.00  0.00     0.086 H 
BRANCH  13  15
ATOM     15  N2  non d ame     -10.445  17.366  68.372  0.00  0.00    -0.343 N 
ATOM     16  C5  non d ame     -11.242  16.141  68.473  0.00  0.00     0.273 C 
ATOM     17  O2  non d ame     -11.619  15.597  67.494  0.00  0.00    -0.266 OA
ATOM     18  H5  non d ame     -10.120  17.839  69.203  0.00  0.00     0.163 HD
BRANCH  16  19
ATOM     19  C4  non d ame     -11.590  15.561  69.853  0.00  0.00     0.154 A 
ATOM     20  C1  non d ame     -11.663  16.269  71.094  0.00  0.00    -0.017 A 
ATOM     21  C2  non d ame     -12.018  15.291  72.050  0.00  0.00     0.077 A 
ATOM     22  H1  non d ame     -11.486  17.329  71.275  0.00  0.00     0.091 H 
ATOM     23  O1  non d ame     -12.135  14.158  71.420  0.00  0.00    -0.218 OA
ATOM     24  N1  non d ame     -11.889  14.291  70.137  0.00  0.00    -0.123 NA
BRANCH  21  25
ATOM     25  C3  non d ame     -12.227  15.520  73.541  0.00  0.00    -0.029 C 
ATOM     26  H2  non d ame     -11.992  16.557  73.786  0.00  0.00     0.036 H 
ATOM     27  H3  non d ame     -13.266  15.313  73.798  0.00  0.00     0.036 H 
ATOM     28  H4  non d ame     -11.573  14.856  74.106  0.00  0.00     0.036 H 
ENDBRANCH  21  25
ENDBRANCH  16  19
ENDBRANCH  13  15
BRANCH  13  29
ATOM     29  C8  non d ame     -10.482  19.365  66.997  0.00  0.00    -0.049 C 
ATOM     30  H7  non d ame     -11.488  19.508  67.392  0.00  0.00     0.030 H 
ATOM     31  H8  non d ame      -9.773  19.941  67.591  0.00  0.00     0.030 H 
ATOM     32  H9  non d ame     -10.448  19.703  65.962  0.00  0.00     0.030 H 
ENDBRANCH  13  29
ENDBRANCH  10  13
ENDBRANCH   7   9
BRANCH   7  33
ATOM     33  C11 non d ame      -5.547  17.723  68.616  0.00  0.00    -0.033 C 
ATOM     34  H12 non d ame      -4.491  17.677  68.348  0.00  0.00     0.042 H 
BRANCH  33  35
ATOM     35  C12 non d ame      -5.971  19.225  68.596  0.00  0.00    -0.071 C 
ATOM     36  H13 non d ame      -5.777  19.644  67.609  0.00  0.00     0.028 H 
ATOM     37  H14 non d ame      -7.034  19.305  68.822  0.00  0.00     0.028 H 
ATOM     38  H15 non d ame      -5.397  19.773  69.343  0.00  0.00     0.028 H 
ENDBRANCH  33  35
BRANCH  33  39
ATOM     39  C13 non d ame      -5.711  17.106  70.042  0.00  0.00    -0.071 C 
ATOM     40  H16 non d ame      -6.116  17.858  70.718  0.00  0.00     0.028 H 
ATOM     41  H17 non d ame      -6.393  16.256  69.994  0.00  0.00     0.028 H 
ATOM     42  H18 non d ame      -4.740  16.773  70.407  0.00  0.00     0.028 H 
ENDBRANCH  33  39
ENDBRANCH   7  33
ENDBRANCH   4   7
ENDBRANCH   1   3
BRANCH   1  43
ATOM     43  C15 non d ame      -7.739  12.191  67.318  0.00  0.00     0.240 C 
ATOM     44  O5  non d ame      -7.368  11.405  66.508  0.00  0.00    -0.271 OA
ATOM     45  N6  non d ame      -9.198  12.374  67.560  0.00  0.00    -0.355 N 
ATOM     46  H46 non d ame      -9.525  13.036  68.250  0.00  0.00     0.162 HD
BRANCH  45  47
ATOM     47  C20 non d ame     -10.175  11.580  66.785  0.00  0.00     0.013 C 
ATOM     48  H30 non d ame      -9.647  11.123  65.948  0.00  0.00     0.072 H 
BRANCH  47  49
ATOM     49  C21 non d ame     -11.265  12.492  66.271  0.00  0.00    -0.038 C 
ATOM     50  H31 non d ame     -12.181  11.902  66.298  0.00  0.00     0.036 H 
ATOM     51  H32 non d ame     -11.187  13.406  66.861  0.00  0.00     0.036 H 
BRANCH  49  52
ATOM     52  C22 non d ame     -11.056  12.905  64.797  0.00  0.00     0.018 C 
ATOM     53  H33 non d ame     -11.657  13.803  64.654  0.00  0.00     0.048 H 
ATOM     54  H34 non d ame      -9.977  12.942  64.651  0.00  0.00     0.048 H 
BRANCH  52  55
ATOM     55  C23 non d ame     -11.591  11.865  63.774  0.00  0.00     0.259 C 
ATOM     56  O7  non d ame     -12.739  11.855  63.467  0.00  0.00    -0.265 OA
BRANCH  55  57
ATOM     57  O8  non d ame     -10.694  10.912  63.215  0.00  0.00    -0.317 OA
BRANCH  57  58
ATOM     58  C29 non d ame      -9.329  11.342  63.191  0.00  0.00     0.052 C 
ATOM     59  H47 non d ame      -9.187  11.818  62.221  0.00  0.00     0.082 H 
ATOM     60  H48 non d ame      -9.185  11.916  64.106  0.00  0.00     0.082 H 
BRANCH  58  61
ATOM     61  C35 non d ame      -8.429  10.080  63.256  0.00  0.00    -0.034 A 
ATOM     62  C30 non d ame      -7.376   9.928  62.359  0.00  0.00    -0.075 A 
ATOM     63  C31 non d ame      -6.567   8.794  62.417  0.00  0.00    -0.082 A 
ATOM     64  H49 non d ame      -7.185  10.698  61.611  0.00  0.00     0.084 H 
ATOM     65  C32 non d ame      -6.815   7.808  63.375  0.00  0.00    -0.083 A 
ATOM     66  H50 non d ame      -5.742   8.680  61.714  0.00  0.00     0.083 H 
ATOM     67  C33 non d ame      -7.869   7.963  64.267  0.00  0.00    -0.082 A 
ATOM     68  H51 non d ame      -6.187   6.919  63.428  0.00  0.00     0.083 H 
ATOM     69  C34 non d ame      -8.679   9.095  64.214  0.00  0.00    -0.075 A 
ATOM     70  H52 non d ame      -8.061   7.190  65.012  0.00  0.00     0.083 H 
ATOM     71  H53 non d ame      -9.503   9.209  64.918  0.00  0.00     0.084 H 
ENDBRANCH  58  61
ENDBRANCH  57  58
ENDBRANCH  55  57
ENDBRANCH  52  55
ENDBRANCH  49  52
ENDBRANCH  47  49
BRANCH  47  72
ATOM     72  C24 non d ame     -10.790  10.503  67.677  0.00  0.00    -0.039 C 
ATOM     73  H35 non d ame     -11.868  10.598  67.545  0.00  0.00     0.036 H 
ATOM     74  H36 non d ame     -10.287   9.576  67.401  0.00  0.00     0.036 H 
BRANCH  72  75
ATOM     75  C25 non d ame     -10.477  10.767  69.225  0.00  0.00    -0.001 C 
ATOM     76  C26 non d ame      -9.507   9.576  69.812  0.00  0.00    -0.035 C 
ATOM     77  C27 non d ame     -10.063   9.077  70.942  0.00  0.00     0.085 C 
ATOM     78  H38 non d ame      -9.507   8.725  69.131  0.00  0.00     0.036 H 
ATOM     79  H39 non d ame      -8.563   9.999  70.157  0.00  0.00     0.036 H 
ATOM     80  N5  non d ame     -11.481   9.591  71.001  0.00  0.00    -0.049 N 
ATOM     81  H40 non d ame     -10.082   7.996  70.805  0.00  0.00     0.075 H 
ATOM     82  H41 non d ame      -9.493   9.513  71.763  0.00  0.00     0.075 H 
ATOM     83  C28 non d ame     -11.563  10.791  69.924  0.00  0.00     0.193 C 
ATOM     84  H42 non d ame     -12.072   8.836  70.686  0.00  0.00     0.280 HD
ATOM     85  H43 non d ame     -11.607   9.980  71.925  0.00  0.00     0.280 HD
ATOM     86  H44 non d ame     -11.564  11.831  70.252  0.00  0.00     0.129 H 
ATOM     87  H37 non d ame     -10.170  11.796  69.415  0.00  0.00     0.046 H 
BRANCH  83  88
ATOM     88  O6  non d ame     -12.730  10.646  69.112  0.00  0.00    -0.369 OA
ATOM     89  H45 non d ame     -13.068   9.751  69.195  0.00  0.00     0.212 HD
ENDBRANCH  83  88
ENDBRANCH  72  75
ENDBRANCH  47  72
ENDBRANCH  45  47
ENDBRANCH   1  43
BRANCH   1  90
ATOM     90  C16 non d ame      -6.751  12.615  69.591  0.00  0.00    -0.035 C 
ATOM     91  H21 non d ame      -7.491  13.274  70.046  0.00  0.00     0.037 H 
ATOM     92  H22 non d ame      -6.912  11.536  69.588  0.00  0.00     0.037 H 
BRANCH  90  93
ATOM     93  C17 non d ame      -5.412  12.859  70.357  0.00  0.00    -0.059 C 
ATOM     94  H23 non d ame      -4.707  13.304  69.656  0.00  0.00     0.038 H 
BRANCH  93  95
ATOM     95  C18 non d ame      -5.589  13.851  71.551  0.00  0.00    -0.073 C 
ATOM     96  H24 non d ame      -4.801  14.603  71.517  0.00  0.00     0.028 H 
ATOM     97  H25 non d ame      -6.561  14.339  71.477  0.00  0.00     0.028 H 
ATOM     98  H26 non d ame      -5.528  13.302  72.491  0.00  0.00     0.028 H 
ENDBRANCH  93  95
BRANCH  93  99
ATOM     99  C19 non d ame      -4.806  11.536  70.834  0.00  0.00    -0.073 C 
ATOM    100  H27 non d ame      -3.721  11.580  70.741  0.00  0.00     0.028 H 
ATOM    101  H28 non d ame      -5.076  11.368  71.877  0.00  0.00     0.028 H 
ATOM    102  H29 non d ame      -5.191  10.719  70.223  0.00  0.00     0.028 H 
ENDBRANCH  93  99
ENDBRANCH  90  93
ENDBRANCH   1  90
TORSDOF 26
ENDMDL
MODEL 16
REMARK VINA RESULT:      -6.1      2.214      7.879
REMARK  26 active torsions:
REMARK  status: ('A' for Active; 'I' for Inactive)
REMARK    1  A    between atoms: C2_2  and  C3_3 
REMARK    2  A    between atoms: C4_6  and  C5_7 
REMARK       I    between atoms: C5_7  and  N2_9 
REMARK    3  A    between atoms: N2_9  and  C6_10 
REMARK    4  A    between atoms: C6_10  and  C7_11 
REMARK    5  A    between atoms: C6_10  and  C8_13 
REMARK       I    between atoms: C7_11  and  N3_14 
REMARK    6  A    between atoms: N3_14  and  C9_15 
REMARK    7  A    between atoms: C9_15  and  C10_16 
REMARK    8  A    between atoms: C9_15  and  C11_18 
REMARK       I    between atoms: C10_16  and  N4_21 
REMARK    9  A    between atoms: C11_18  and  C12_19 
REMARK   10  A    between atoms: C11_18  and  C13_20 
REMARK   11  A    between atoms: N4_21  and  C14_22 
REMARK   12  A    between atoms: C14_22  and  C15_23 
REMARK   13  A    between atoms: C14_22  and  C16_25 
REMARK       I    between atoms: C15_23  and  N6_40 
REMARK   14  A    between atoms: C16_25  and  C17_26 
REMARK   15  A    between atoms: C17_26  and  C18_27 
REMARK   16  A    between atoms: C17_26  and  C19_28 
REMARK   17  A    between atoms: C20_29  and  C21_30 
REMARK   18  A    between atoms: C20_29  and  C24_33 
REMARK   19  A    between atoms: C20_29  and  N6_40 
REMARK   20  A    between atoms: C21_30  and  C22_31 
REMARK   21  A    between atoms: C22_31  and  C23_32 
REMARK   22  A    between atoms: C23_32  and  O8_43 
REMARK   23  A    between atoms: C24_33  and  C25_34 
REMARK   24  A    between atoms: C28_38  and  O6_39 
REMARK   25  A    between atoms: C29_42  and  O8_43 
REMARK   26  A    between atoms: C29_42  and  C35_49 
ROOT
ATOM      1  C14 non d ame      -6.378  14.070  67.927  0.00  0.00     0.089 C 
ATOM      2  H20 non d ame      -5.819  14.073  66.991  0.00  0.00     0.087 H 
ENDROOT
BRANCH   1   3
ATOM      3  N4  non d ame      -6.639  15.455  68.287  0.00  0.00    -0.346 N 
ATOM      4  C10 non d ame      -6.013  16.578  67.498  0.00  0.00     0.241 C 
ATOM      5  O4  non d ame      -5.300  16.342  66.580  0.00  0.00    -0.271 OA
ATOM      6  H19 non d ame      -7.247  15.636  69.073  0.00  0.00     0.163 HD
BRANCH   4   7
ATOM      7  C9  non d ame      -6.299  18.006  67.881  0.00  0.00     0.092 C 
ATOM      8  H11 non d ame      -6.000  18.663  67.065  0.00  0.00     0.088 H 
BRANCH   7   9
ATOM      9  N3  non d ame      -7.742  18.182  68.073  0.00  0.00    -0.346 N 
ATOM     10  C7  non d ame      -8.623  18.203  66.931  0.00  0.00     0.240 C 
ATOM     11  O3  non d ame      -8.187  18.082  65.851  0.00  0.00    -0.271 OA
ATOM     12  H10 non d ame      -8.132  18.290  68.998  0.00  0.00     0.163 HD
BRANCH  10  13
ATOM     13  C6  non d ame     -10.157  18.394  67.141  0.00  0.00     0.086 C 
ATOM     14  H6  non d ame     -10.751  17.933  66.351  0.00  0.00     0.086 H 
BRANCH  13  15
ATOM     15  N2  non d ame     -10.547  17.749  68.384  0.00  0.00    -0.343 N 
ATOM     16  C5  non d ame     -11.034  16.368  68.358  0.00  0.00     0.273 C 
ATOM     17  O2  non d ame     -11.111  15.786  67.332  0.00  0.00    -0.266 OA
ATOM     18  H5  non d ame     -10.480  18.255  69.255  0.00  0.00     0.163 HD
BRANCH  16  19
ATOM     19  C4  non d ame     -11.447  15.673  69.665  0.00  0.00     0.154 A 
ATOM     20  C1  non d ame     -11.607  16.277  70.952  0.00  0.00    -0.017 A 
ATOM     21  C2  non d ame     -11.994  15.219  71.805  0.00  0.00     0.077 A 
ATOM     22  H1  non d ame     -11.465  17.323  71.226  0.00  0.00     0.091 H 
ATOM     23  O1  non d ame     -12.048  14.139  71.082  0.00  0.00    -0.218 OA
ATOM     24  N1  non d ame     -11.733  14.378  69.830  0.00  0.00    -0.123 NA
BRANCH  21  25
ATOM     25  C3  non d ame     -12.293  15.325  73.294  0.00  0.00    -0.029 C 
ATOM     26  H2  non d ame     -13.149  15.983  73.448  0.00  0.00     0.036 H 
ATOM     27  H3  non d ame     -12.520  14.335  73.690  0.00  0.00     0.036 H 
ATOM     28  H4  non d ame     -11.424  15.732  73.812  0.00  0.00     0.036 H 
ENDBRANCH  21  25
ENDBRANCH  16  19
ENDBRANCH  13  15
BRANCH  13  29
ATOM     29  C8  non d ame     -10.481  19.865  67.199  0.00  0.00    -0.049 C 
ATOM     30  H7  non d ame     -11.362  20.019  67.822  0.00  0.00     0.030 H 
ATOM     31  H8  non d ame      -9.635  20.406  67.623  0.00  0.00     0.030 H 
ATOM     32  H9  non d ame     -10.680  20.233  66.192  0.00  0.00     0.030 H 
ENDBRANCH  13  29
ENDBRANCH  10  13
ENDBRANCH   7   9
BRANCH   7  33
ATOM     33  C11 non d ame      -5.558  18.346  69.208  0.00  0.00    -0.033 C 
ATOM     34  H12 non d ame      -5.778  17.552  69.920  0.00  0.00     0.042 H 
BRANCH  33  35
ATOM     35  C12 non d ame      -4.011  18.376  69.002  0.00  0.00    -0.071 C 
ATOM     36  H13 non d ame      -3.710  19.366  68.657  0.00  0.00     0.028 H 
ATOM     37  H14 non d ame      -3.515  18.155  69.947  0.00  0.00     0.028 H 
ATOM     38  H15 non d ame      -3.729  17.631  68.260  0.00  0.00     0.028 H 
ENDBRANCH  33  35
BRANCH  33  39
ATOM     39  C13 non d ame      -6.076  19.692  69.809  0.00  0.00    -0.071 C 
ATOM     40  H16 non d ame      -6.501  19.510  70.795  0.00  0.00     0.028 H 
ATOM     41  H17 non d ame      -5.246  20.395  69.895  0.00  0.00     0.028 H 
ATOM     42  H18 non d ame      -6.840  20.111  69.155  0.00  0.00     0.028 H 
ENDBRANCH  33  39
ENDBRANCH   7  33
ENDBRANCH   4   7
ENDBRANCH   1   3
BRANCH   1  43
ATOM     43  C15 non d ame      -7.739  13.327  67.795  0.00  0.00     0.240 C 
ATOM     44  O5  non d ame      -8.672  13.686  68.437  0.00  0.00    -0.271 OA
ATOM     45  N6  non d ame      -7.880  12.173  66.863  0.00  0.00    -0.355 N 
ATOM     46  H46 non d ame      -7.095  11.862  66.309  0.00  0.00     0.162 HD
BRANCH  45  47
ATOM     47  C20 non d ame      -9.180  11.478  66.748  0.00  0.00     0.013 C 
ATOM     48  H30 non d ame      -9.968  12.209  66.929  0.00  0.00     0.072 H 
BRANCH  47  49
ATOM     49  C21 non d ame      -9.251  10.377  67.781  0.00  0.00    -0.038 C 
ATOM     50  H31 non d ame      -8.498  10.625  68.529  0.00  0.00     0.036 H 
ATOM     51  H32 non d ame     -10.301  10.308  68.067  0.00  0.00     0.036 H 
BRANCH  49  52
ATOM     52  C22 non d ame      -8.862   8.995  67.212  0.00  0.00     0.018 C 
ATOM     53  H33 non d ame      -8.912   9.097  66.128  0.00  0.00     0.048 H 
ATOM     54  H34 non d ame      -7.918   8.733  67.692  0.00  0.00     0.048 H 
BRANCH  52  55
ATOM     55  C23 non d ame      -9.859   7.862  67.582  0.00  0.00     0.259 C 
ATOM     56  O7  non d ame     -10.857   7.709  66.957  0.00  0.00    -0.265 OA
BRANCH  55  57
ATOM     57  O8  non d ame      -9.571   7.014  68.688  0.00  0.00    -0.317 OA
BRANCH  57  58
ATOM     58  C29 non d ame      -9.326   7.715  69.911  0.00  0.00     0.052 C 
ATOM     59  H47 non d ame      -8.792   7.013  70.551  0.00  0.00     0.082 H 
ATOM     60  H48 non d ame      -8.858   8.656  69.623  0.00  0.00     0.082 H 
BRANCH  58  61
ATOM     61  C35 non d ame     -10.698   8.030  70.565  0.00  0.00    -0.034 A 
ATOM     62  C30 non d ame     -11.040   9.344  70.868  0.00  0.00    -0.075 A 
ATOM     63  C31 non d ame     -12.272   9.627  71.455  0.00  0.00    -0.082 A 
ATOM     64  H49 non d ame     -10.343  10.152  70.644  0.00  0.00     0.084 H 
ATOM     65  C32 non d ame     -13.163   8.589  71.743  0.00  0.00    -0.083 A 
ATOM     66  H50 non d ame     -12.538  10.658  71.689  0.00  0.00     0.083 H 
ATOM     67  C33 non d ame     -12.816   7.279  71.442  0.00  0.00    -0.082 A 
ATOM     68  H51 non d ame     -14.129   8.802  72.202  0.00  0.00     0.083 H 
ATOM     69  C34 non d ame     -11.587   6.992  70.852  0.00  0.00    -0.075 A 
ATOM     70  H52 non d ame     -13.512   6.471  71.670  0.00  0.00     0.083 H 
ATOM     71  H53 non d ame     -11.322   5.960  70.618  0.00  0.00     0.084 H 
ENDBRANCH  58  61
ENDBRANCH  57  58
ENDBRANCH  55  57
ENDBRANCH  52  55
ENDBRANCH  49  52
ENDBRANCH  47  49
BRANCH  47  72
ATOM     72  C24 non d ame      -9.324  10.877  65.351  0.00  0.00    -0.039 C 
ATOM     73  H35 non d ame      -8.304  10.715  64.999  0.00  0.00     0.036 H 
ATOM     74  H36 non d ame     -10.000  10.031  65.468  0.00  0.00     0.036 H 
BRANCH  72  75
ATOM     75  C25 non d ame     -10.018  11.901  64.334  0.00  0.00    -0.001 C 
ATOM     76  C26 non d ame     -11.301  12.630  65.061  0.00  0.00    -0.035 C 
ATOM     77  C27 non d ame     -12.384  12.508  64.257  0.00  0.00     0.085 C 
ATOM     78  H38 non d ame     -11.585  12.079  65.957  0.00  0.00     0.036 H 
ATOM     79  H39 non d ame     -11.140  13.707  65.111  0.00  0.00     0.036 H 
ATOM     80  N5  non d ame     -12.040  11.483  63.204  0.00  0.00    -0.049 N 
ATOM     81  H40 non d ame     -13.176  12.111  64.894  0.00  0.00     0.075 H 
ATOM     82  H41 non d ame     -12.504  13.480  63.781  0.00  0.00     0.075 H 
ATOM     83  C28 non d ame     -10.438  11.295  63.274  0.00  0.00     0.193 C 
ATOM     84  H42 non d ame     -12.478  10.620  63.490  0.00  0.00     0.280 HD
ATOM     85  H43 non d ame     -12.276  11.898  62.313  0.00  0.00     0.280 HD
ATOM     86  H44 non d ame      -9.794  11.746  62.519  0.00  0.00     0.129 H 
ATOM     87  H37 non d ame      -9.293  12.550  63.842  0.00  0.00     0.046 H 
BRANCH  83  88
ATOM     88  O6  non d ame     -10.105   9.905  63.280  0.00  0.00    -0.369 OA
ATOM     89  H45 non d ame     -10.864   9.396  63.574  0.00  0.00     0.212 HD
ENDBRANCH  83  88
ENDBRANCH  72  75
ENDBRANCH  47  72
ENDBRANCH  45  47
ENDBRANCH   1  43
BRANCH   1  90
ATOM     90  C16 non d ame      -5.545  13.421  69.021  0.00  0.00    -0.035 C 
ATOM     91  H21 non d ame      -6.185  12.651  69.453  0.00  0.00     0.037 H 
ATOM     92  H22 non d ame      -4.606  13.144  68.543  0.00  0.00     0.037 H 
BRANCH  90  93
ATOM     93  C17 non d ame      -5.178  14.393  70.187  0.00  0.00    -0.059 C 
ATOM     94  H23 non d ame      -5.718  15.326  70.024  0.00  0.00     0.038 H 
BRANCH  93  95
ATOM     95  C18 non d ame      -5.607  13.831  71.581  0.00  0.00    -0.073 C 
ATOM     96  H24 non d ame      -5.960  14.649  72.209  0.00  0.00     0.028 H 
ATOM     97  H25 non d ame      -6.408  13.103  71.447  0.00  0.00     0.028 H 
ATOM     98  H26 non d ame      -4.753  13.349  72.057  0.00  0.00     0.028 H 
ENDBRANCH  93  95
BRANCH  93  99
ATOM     99  C19 non d ame      -3.683  14.725  70.171  0.00  0.00    -0.073 C 
ATOM    100  H27 non d ame      -3.338  14.798  69.140  0.00  0.00     0.028 H 
ATOM    101  H28 non d ame      -3.517  15.677  70.678  0.00  0.00     0.028 H 
ATOM    102  H29 non d ame      -3.131  13.939  70.686  0.00  0.00     0.028 H 
ENDBRANCH  93  99
ENDBRANCH  90  93
ENDBRANCH   1  90
TORSDOF 26
ENDMDL
MODEL 17
REMARK VINA RESULT:      -6.1      2.713      6.671
REMARK  26 active torsions:
REMARK  status: ('A' for Active; 'I' for Inactive)
REMARK    1  A    between atoms: C2_2  and  C3_3 
REMARK    2  A    between atoms: C4_6  and  C5_7 
REMARK       I    between atoms: C5_7  and  N2_9 
REMARK    3  A    between atoms: N2_9  and  C6_10 
REMARK    4  A    between atoms: C6_10  and  C7_11 
REMARK    5  A    between atoms: C6_10  and  C8_13 
REMARK       I    between atoms: C7_11  and  N3_14 
REMARK    6  A    between atoms: N3_14  and  C9_15 
REMARK    7  A    between atoms: C9_15  and  C10_16 
REMARK    8  A    between atoms: C9_15  and  C11_18 
REMARK       I    between atoms: C10_16  and  N4_21 
REMARK    9  A    between atoms: C11_18  and  C12_19 
REMARK   10  A    between atoms: C11_18  and  C13_20 
REMARK   11  A    between atoms: N4_21  and  C14_22 
REMARK   12  A    between atoms: C14_22  and  C15_23 
REMARK   13  A    between atoms: C14_22  and  C16_25 
REMARK       I    between atoms: C15_23  and  N6_40 
REMARK   14  A    between atoms: C16_25  and  C17_26 
REMARK   15  A    between atoms: C17_26  and  C18_27 
REMARK   16  A    between atoms: C17_26  and  C19_28 
REMARK   17  A    between atoms: C20_29  and  C21_30 
REMARK   18  A    between atoms: C20_29  and  C24_33 
REMARK   19  A    between atoms: C20_29  and  N6_40 
REMARK   20  A    between atoms: C21_30  and  C22_31 
REMARK   21  A    between atoms: C22_31  and  C23_32 
REMARK   22  A    between atoms: C23_32  and  O8_43 
REMARK   23  A    between atoms: C24_33  and  C25_34 
REMARK   24  A    between atoms: C28_38  and  O6_39 
REMARK   25  A    between atoms: C29_42  and  O8_43 
REMARK   26  A    between atoms: C29_42  and  C35_49 
ROOT
ATOM      1  C14 non d ame     -11.000   9.969  69.598  0.00  0.00     0.089 C 
ATOM      2  H20 non d ame     -11.507   9.130  69.122  0.00  0.00     0.087 H 
ENDROOT
BRANCH   1   3
ATOM      3  N4  non d ame      -9.584   9.863  69.278  0.00  0.00    -0.346 N 
ATOM      4  C10 non d ame      -8.950   8.511  69.067  0.00  0.00     0.241 C 
ATOM      5  O4  non d ame      -9.599   7.522  69.163  0.00  0.00    -0.271 OA
ATOM      6  H19 non d ame      -9.048  10.717  69.203  0.00  0.00     0.163 HD
BRANCH   4   7
ATOM      7  C9  non d ame      -7.484   8.421  68.731  0.00  0.00     0.092 C 
ATOM      8  H11 non d ame      -7.253   7.406  68.408  0.00  0.00     0.088 H 
BRANCH   7   9
ATOM      9  N3  non d ame      -7.184   9.313  67.607  0.00  0.00    -0.346 N 
ATOM     10  C7  non d ame      -6.807   8.760  66.329  0.00  0.00     0.240 C 
ATOM     11  O3  non d ame      -6.739   7.600  66.189  0.00  0.00    -0.271 OA
ATOM     12  H10 non d ame      -7.237  10.315  67.713  0.00  0.00     0.163 HD
BRANCH  10  13
ATOM     13  C6  non d ame      -6.486   9.714  65.137  0.00  0.00     0.086 C 
ATOM     14  H6  non d ame      -6.381   9.185  64.190  0.00  0.00     0.086 H 
BRANCH  13  15
ATOM     15  N2  non d ame      -7.587  10.649  64.972  0.00  0.00    -0.343 N 
ATOM     16  C5  non d ame      -8.811  10.210  64.299  0.00  0.00     0.273 C 
ATOM     17  O2  non d ame      -8.899   9.104  63.890  0.00  0.00    -0.266 OA
ATOM     18  H5  non d ame      -7.502  11.593  65.322  0.00  0.00     0.163 HD
BRANCH  16  19
ATOM     19  C4  non d ame      -9.983  11.188  64.119  0.00  0.00     0.154 A 
ATOM     20  C1  non d ame     -10.602  11.991  65.128  0.00  0.00    -0.017 A 
ATOM     21  C2  non d ame     -11.618  12.704  64.453  0.00  0.00     0.077 A 
ATOM     22  H1  non d ame     -10.353  12.047  66.188  0.00  0.00     0.091 H 
ATOM     23  O1  non d ame     -11.577  12.346  63.203  0.00  0.00    -0.218 OA
ATOM     24  N1  non d ame     -10.632  11.462  62.983  0.00  0.00    -0.123 NA
BRANCH  21  25
ATOM     25  C3  non d ame     -12.581  13.706  65.075  0.00  0.00    -0.029 C 
ATOM     26  H2  non d ame     -13.528  13.213  65.295  0.00  0.00     0.036 H 
ATOM     27  H3  non d ame     -12.152  14.098  65.998  0.00  0.00     0.036 H 
ATOM     28  H4  non d ame     -12.753  14.527  64.378  0.00  0.00     0.036 H 
ENDBRANCH  21  25
ENDBRANCH  16  19
ENDBRANCH  13  15
BRANCH  13  29
ATOM     29  C8  non d ame      -5.209  10.464  65.420  0.00  0.00    -0.049 C 
ATOM     30  H7  non d ame      -4.360   9.890  65.050  0.00  0.00     0.030 H 
ATOM     31  H8  non d ame      -5.239  11.433  64.921  0.00  0.00     0.030 H 
ATOM     32  H9  non d ame      -5.106  10.611  66.495  0.00  0.00     0.030 H 
ENDBRANCH  13  29
ENDBRANCH  10  13
ENDBRANCH   7   9
BRANCH   7  33
ATOM     33  C11 non d ame      -6.641   8.848  69.968  0.00  0.00    -0.033 C 
ATOM     34  H12 non d ame      -6.875   9.891  70.181  0.00  0.00     0.042 H 
BRANCH  33  35
ATOM     35  C12 non d ame      -7.022   8.014  71.231  0.00  0.00    -0.071 C 
ATOM     36  H13 non d ame      -6.214   7.320  71.465  0.00  0.00     0.028 H 
ATOM     37  H14 non d ame      -7.180   8.685  72.075  0.00  0.00     0.028 H 
ATOM     38  H15 non d ame      -7.936   7.455  71.034  0.00  0.00     0.028 H 
ENDBRANCH  33  35
BRANCH  33  39
ATOM     39  C13 non d ame      -5.112   8.749  69.663  0.00  0.00    -0.071 C 
ATOM     40  H16 non d ame      -4.564   8.611  70.595  0.00  0.00     0.028 H 
ATOM     41  H17 non d ame      -4.927   7.900  69.004  0.00  0.00     0.028 H 
ATOM     42  H18 non d ame      -4.778   9.666  69.177  0.00  0.00     0.028 H 
ENDBRANCH  33  39
ENDBRANCH   7  33
ENDBRANCH   4   7
ENDBRANCH   1   3
BRANCH   1  43
ATOM     43  C15 non d ame     -11.523  11.341  69.082  0.00  0.00     0.240 C 
ATOM     44  O5  non d ame     -12.359  11.375  68.239  0.00  0.00    -0.271 OA
ATOM     45  N6  non d ame     -10.987  12.612  69.647  0.00  0.00    -0.355 N 
ATOM     46  H46 non d ame     -10.279  12.595  70.367  0.00  0.00     0.162 HD
BRANCH  45  47
ATOM     47  C20 non d ame     -11.495  13.908  69.147  0.00  0.00     0.013 C 
ATOM     48  H30 non d ame     -12.532  13.766  68.841  0.00  0.00     0.072 H 
BRANCH  47  49
ATOM     49  C21 non d ame     -10.663  14.348  67.964  0.00  0.00    -0.038 C 
ATOM     50  H31 non d ame      -9.625  14.230  68.274  0.00  0.00     0.036 H 
ATOM     51  H32 non d ame     -11.046  13.788  67.111  0.00  0.00     0.036 H 
BRANCH  49  52
ATOM     52  C22 non d ame     -10.849  15.843  67.624  0.00  0.00     0.018 C 
ATOM     53  H33 non d ame     -11.915  15.972  67.432  0.00  0.00     0.048 H 
ATOM     54  H34 non d ame     -10.372  16.392  68.436  0.00  0.00     0.048 H 
BRANCH  52  55
ATOM     55  C23 non d ame     -10.123  16.284  66.323  0.00  0.00     0.259 C 
ATOM     56  O7  non d ame      -9.462  15.511  65.709  0.00  0.00    -0.265 OA
BRANCH  55  57
ATOM     57  O8  non d ame     -10.246  17.630  65.879  0.00  0.00    -0.317 OA
BRANCH  57  58
ATOM     58  C29 non d ame     -10.462  18.573  66.932  0.00  0.00     0.052 C 
ATOM     59  H47 non d ame     -11.047  19.380  66.490  0.00  0.00     0.082 H 
ATOM     60  H48 non d ame     -10.869  17.999  67.764  0.00  0.00     0.082 H 
BRANCH  58  61
ATOM     61  C35 non d ame      -9.082  19.142  67.358  0.00  0.00    -0.034 A 
ATOM     62  C30 non d ame      -8.411  20.034  66.528  0.00  0.00    -0.075 A 
ATOM     63  C31 non d ame      -7.171  20.545  66.909  0.00  0.00    -0.082 A 
ATOM     64  H49 non d ame      -8.856  20.334  65.579  0.00  0.00     0.084 H 
ATOM     65  C32 non d ame      -6.601  20.158  68.125  0.00  0.00    -0.083 A 
ATOM     66  H50 non d ame      -6.649  21.246  66.258  0.00  0.00     0.083 H 
ATOM     67  C33 non d ame      -7.274  19.265  68.948  0.00  0.00    -0.082 A 
ATOM     68  H51 non d ame      -5.633  20.553  68.431  0.00  0.00     0.083 H 
ATOM     69  C34 non d ame      -8.514  18.754  68.572  0.00  0.00    -0.075 A 
ATOM     70  H52 non d ame      -6.825  18.964  69.896  0.00  0.00     0.083 H 
ATOM     71  H53 non d ame      -9.036  18.054  69.225  0.00  0.00     0.084 H 
ENDBRANCH  58  61
ENDBRANCH  57  58
ENDBRANCH  55  57
ENDBRANCH  52  55
ENDBRANCH  49  52
ENDBRANCH  47  49
BRANCH  47  72
ATOM     72  C24 non d ame     -11.407  14.958  70.252  0.00  0.00    -0.039 C 
ATOM     73  H35 non d ame     -10.360  14.973  70.555  0.00  0.00     0.036 H 
ATOM     74  H36 non d ame     -11.867  15.855  69.838  0.00  0.00     0.036 H 
BRANCH  72  75
ATOM     75  C25 non d ame     -12.265  14.538  71.539  0.00  0.00    -0.001 C 
ATOM     76  C26 non d ame     -13.784  14.105  71.082  0.00  0.00    -0.035 C 
ATOM     77  C27 non d ame     -14.678  14.791  71.834  0.00  0.00     0.085 C 
ATOM     78  H38 non d ame     -13.983  14.453  70.069  0.00  0.00     0.036 H 
ATOM     79  H39 non d ame     -13.972  13.065  71.349  0.00  0.00     0.036 H 
ATOM     80  N5  non d ame     -13.915  15.891  72.532  0.00  0.00    -0.049 N 
ATOM     81  H40 non d ame     -15.374  15.238  71.123  0.00  0.00     0.075 H 
ATOM     82  H41 non d ame     -15.038  14.081  72.577  0.00  0.00     0.075 H 
ATOM     83  C28 non d ame     -12.353  15.514  72.380  0.00  0.00     0.193 C 
ATOM     84  H42 non d ame     -14.094  16.738  72.012  0.00  0.00     0.280 HD
ATOM     85  H43 non d ame     -14.165  15.836  73.510  0.00  0.00     0.280 HD
ATOM     86  H44 non d ame     -11.799  15.099  73.223  0.00  0.00     0.129 H 
ATOM     87  H37 non d ame     -11.725  13.847  72.187  0.00  0.00     0.046 H 
BRANCH  83  88
ATOM     88  O6  non d ame     -11.608  16.658  71.959  0.00  0.00    -0.369 OA
ATOM     89  H45 non d ame     -10.718  16.390  71.720  0.00  0.00     0.212 HD
ENDBRANCH  83  88
ENDBRANCH  72  75
ENDBRANCH  47  72
ENDBRANCH  45  47
ENDBRANCH   1  43
BRANCH   1  90
ATOM     90  C16 non d ame     -11.175   9.890  71.106  0.00  0.00    -0.035 C 
ATOM     91  H21 non d ame     -10.175   9.712  71.504  0.00  0.00     0.037 H 
ATOM     92  H22 non d ame     -11.718  10.794  71.382  0.00  0.00     0.037 H 
BRANCH  90  93
ATOM     93  C17 non d ame     -12.054   8.686  71.572  0.00  0.00    -0.059 C 
ATOM     94  H23 non d ame     -12.324   8.111  70.686  0.00  0.00     0.038 H 
BRANCH  93  95
ATOM     95  C18 non d ame     -11.284   7.734  72.543  0.00  0.00    -0.073 C 
ATOM     96  H24 non d ame     -11.284   6.723  72.135  0.00  0.00     0.028 H 
ATOM     97  H25 non d ame     -10.257   8.082  72.653  0.00  0.00     0.028 H 
ATOM     98  H26 non d ame     -11.775   7.735  73.516  0.00  0.00     0.028 H 
ENDBRANCH  93  95
BRANCH  93  99
ATOM     99  C19 non d ame     -13.357   9.176  72.209  0.00  0.00    -0.073 C 
ATOM    100  H27 non d ame     -13.130   9.908  72.985  0.00  0.00     0.028 H 
ATOM    101  H28 non d ame     -13.984   9.638  71.445  0.00  0.00     0.028 H 
ATOM    102  H29 non d ame     -13.886   8.331  72.650  0.00  0.00     0.028 H 
ENDBRANCH  93  99
ENDBRANCH  90  93
ENDBRANCH   1  90
TORSDOF 26
ENDMDL
MODEL 18
REMARK VINA RESULT:      -6.0      2.964      7.718
REMARK  26 active torsions:
REMARK  status: ('A' for Active; 'I' for Inactive)
REMARK    1  A    between atoms: C2_2  and  C3_3 
REMARK    2  A    between atoms: C4_6  and  C5_7 
REMARK       I    between atoms: C5_7  and  N2_9 
REMARK    3  A    between atoms: N2_9  and  C6_10 
REMARK    4  A    between atoms: C6_10  and  C7_11 
REMARK    5  A    between atoms: C6_10  and  C8_13 
REMARK       I    between atoms: C7_11  and  N3_14 
REMARK    6  A    between atoms: N3_14  and  C9_15 
REMARK    7  A    between atoms: C9_15  and  C10_16 
REMARK    8  A    between atoms: C9_15  and  C11_18 
REMARK       I    between atoms: C10_16  and  N4_21 
REMARK    9  A    between atoms: C11_18  and  C12_19 
REMARK   10  A    between atoms: C11_18  and  C13_20 
REMARK   11  A    between atoms: N4_21  and  C14_22 
REMARK   12  A    between atoms: C14_22  and  C15_23 
REMARK   13  A    between atoms: C14_22  and  C16_25 
REMARK       I    between atoms: C15_23  and  N6_40 
REMARK   14  A    between atoms: C16_25  and  C17_26 
REMARK   15  A    between atoms: C17_26  and  C18_27 
REMARK   16  A    between atoms: C17_26  and  C19_28 
REMARK   17  A    between atoms: C20_29  and  C21_30 
REMARK   18  A    between atoms: C20_29  and  C24_33 
REMARK   19  A    between atoms: C20_29  and  N6_40 
REMARK   20  A    between atoms: C21_30  and  C22_31 
REMARK   21  A    between atoms: C22_31  and  C23_32 
REMARK   22  A    between atoms: C23_32  and  O8_43 
REMARK   23  A    between atoms: C24_33  and  C25_34 
REMARK   24  A    between atoms: C28_38  and  O6_39 
REMARK   25  A    between atoms: C29_42  and  O8_43 
REMARK   26  A    between atoms: C29_42  and  C35_49 
ROOT
ATOM      1  C14 non d ame      -8.133  12.617  67.677  0.00  0.00     0.089 C 
ATOM      2  H20 non d ame      -8.204  13.327  66.852  0.00  0.00     0.087 H 
ENDROOT
BRANCH   1   3
ATOM      3  N4  non d ame      -9.367  12.708  68.442  0.00  0.00    -0.346 N 
ATOM      4  C10 non d ame     -10.497  13.585  67.963  0.00  0.00     0.241 C 
ATOM      5  O4  non d ame     -10.388  14.210  66.960  0.00  0.00    -0.271 OA
ATOM      6  H19 non d ame      -9.440  12.170  69.294  0.00  0.00     0.163 HD
BRANCH   4   7
ATOM      7  C9  non d ame     -11.770  13.663  68.764  0.00  0.00     0.092 C 
ATOM      8  H11 non d ame     -12.621  13.514  68.100  0.00  0.00     0.088 H 
BRANCH   7   9
ATOM      9  N3  non d ame     -11.794  12.579  69.751  0.00  0.00    -0.346 N 
ATOM     10  C7  non d ame     -11.970  11.215  69.318  0.00  0.00     0.240 C 
ATOM     11  O3  non d ame     -12.095  10.971  68.180  0.00  0.00    -0.271 OA
ATOM     12  H10 non d ame     -11.689  12.774  70.737  0.00  0.00     0.163 HD
BRANCH  10  13
ATOM     13  C6  non d ame     -11.998  10.066  70.374  0.00  0.00     0.086 C 
ATOM     14  H6  non d ame     -12.222   9.094  69.933  0.00  0.00     0.086 H 
BRANCH  13  15
ATOM     15  N2  non d ame     -10.683   9.953  70.983  0.00  0.00    -0.343 N 
ATOM     16  C5  non d ame     -10.236   8.658  71.500  0.00  0.00     0.273 C 
ATOM     17  O2  non d ame     -10.943   7.714  71.424  0.00  0.00    -0.266 OA
ATOM     18  H5  non d ame     -10.087  10.766  71.046  0.00  0.00     0.163 HD
BRANCH  16  19
ATOM     19  C4  non d ame      -8.848   8.524  72.145  0.00  0.00     0.154 A 
ATOM     20  C1  non d ame      -8.522   7.845  73.362  0.00  0.00    -0.017 A 
ATOM     21  C2  non d ame      -7.127   8.014  73.510  0.00  0.00     0.077 A 
ATOM     22  H1  non d ame      -9.194   7.311  74.034  0.00  0.00     0.091 H 
ATOM     23  O1  non d ame      -6.711   8.710  72.492  0.00  0.00    -0.218 OA
ATOM     24  N1  non d ame      -7.697   9.020  71.682  0.00  0.00    -0.123 NA
BRANCH  21  25
ATOM     25  C3  non d ame      -6.270   7.480  74.650  0.00  0.00    -0.029 C 
ATOM     26  H2  non d ame      -6.517   8.011  75.570  0.00  0.00     0.036 H 
ATOM     27  H3  non d ame      -6.463   6.416  74.782  0.00  0.00     0.036 H 
ATOM     28  H4  non d ame      -5.216   7.632  74.415  0.00  0.00     0.036 H 
ENDBRANCH  21  25
ENDBRANCH  16  19
ENDBRANCH  13  15
BRANCH  13  29
ATOM     29  C8  non d ame     -13.031  10.373  71.428  0.00  0.00    -0.049 C 
ATOM     30  H7  non d ame     -12.681  11.195  72.052  0.00  0.00     0.030 H 
ATOM     31  H8  non d ame     -13.968  10.655  70.947  0.00  0.00     0.030 H 
ATOM     32  H9  non d ame     -13.191   9.490  72.047  0.00  0.00     0.030 H 
ENDBRANCH  13  29
ENDBRANCH  10  13
ENDBRANCH   7   9
BRANCH   7  33
ATOM     33  C11 non d ame     -11.836  15.033  69.501  0.00  0.00    -0.033 C 
ATOM     34  H12 non d ame     -12.233  15.766  68.798  0.00  0.00     0.042 H 
BRANCH  33  35
ATOM     35  C12 non d ame     -12.809  14.977  70.720  0.00  0.00    -0.071 C 
ATOM     36  H13 non d ame     -13.149  15.985  70.960  0.00  0.00     0.028 H 
ATOM     37  H14 non d ame     -13.667  14.354  70.471  0.00  0.00     0.028 H 
ATOM     38  H15 non d ame     -12.290  14.555  71.580  0.00  0.00     0.028 H 
ENDBRANCH  33  35
BRANCH  33  39
ATOM     39  C13 non d ame     -10.410  15.504  69.935  0.00  0.00    -0.071 C 
ATOM     40  H16 non d ame     -10.381  15.621  71.018  0.00  0.00     0.028 H 
ATOM     41  H17 non d ame      -9.673  14.760  69.630  0.00  0.00     0.028 H 
ATOM     42  H18 non d ame     -10.183  16.458  69.460  0.00  0.00     0.028 H 
ENDBRANCH  33  39
ENDBRANCH   7  33
ENDBRANCH   4   7
ENDBRANCH   1   3
BRANCH   1  43
ATOM     43  C15 non d ame      -7.966  11.153  67.178  0.00  0.00     0.240 C 
ATOM     44  O5  non d ame      -6.997  10.533  67.478  0.00  0.00    -0.271 OA
ATOM     45  N6  non d ame      -9.019  10.520  66.334  0.00  0.00    -0.355 N 
ATOM     46  H46 non d ame      -9.848  11.035  66.076  0.00  0.00     0.162 HD
BRANCH  45  47
ATOM     47  C20 non d ame      -8.846   9.127  65.869  0.00  0.00     0.013 C 
ATOM     48  H30 non d ame      -7.940   8.730  66.327  0.00  0.00     0.072 H 
BRANCH  47  49
ATOM     49  C21 non d ame      -8.712   9.116  64.363  0.00  0.00    -0.038 C 
ATOM     50  H31 non d ame      -8.590   8.068  64.086  0.00  0.00     0.036 H 
ATOM     51  H32 non d ame      -9.563   9.684  63.987  0.00  0.00     0.036 H 
BRANCH  49  52
ATOM     52  C22 non d ame      -7.445   9.848  63.869  0.00  0.00     0.018 C 
ATOM     53  H33 non d ame      -7.615  10.051  62.811  0.00  0.00     0.048 H 
ATOM     54  H34 non d ame      -7.292  10.674  64.564  0.00  0.00     0.048 H 
BRANCH  52  55
ATOM     55  C23 non d ame      -6.155   8.985  63.938  0.00  0.00     0.259 C 
ATOM     56  O7  non d ame      -5.396   9.107  64.844  0.00  0.00    -0.265 OA
BRANCH  55  57
ATOM     57  O8  non d ame      -5.883   8.055  62.897  0.00  0.00    -0.317 OA
BRANCH  57  58
ATOM     58  C29 non d ame      -5.535   6.747  63.362  0.00  0.00     0.052 C 
ATOM     59  H47 non d ame      -5.128   6.225  62.496  0.00  0.00     0.082 H 
ATOM     60  H48 non d ame      -4.916   6.902  64.245  0.00  0.00     0.082 H 
BRANCH  58  61
ATOM     61  C35 non d ame      -6.841   6.031  63.798  0.00  0.00    -0.034 A 
ATOM     62  C30 non d ame      -7.054   5.724  65.138  0.00  0.00    -0.075 A 
ATOM     63  C31 non d ame      -8.226   5.081  65.530  0.00  0.00    -0.082 A 
ATOM     64  H49 non d ame      -6.301   5.988  65.881  0.00  0.00     0.084 H 
ATOM     65  C32 non d ame      -9.189   4.742  64.575  0.00  0.00    -0.083 A 
ATOM     66  H50 non d ame      -8.391   4.844  66.581  0.00  0.00     0.083 H 
ATOM     67  C33 non d ame      -8.971   5.047  63.238  0.00  0.00    -0.082 A 
ATOM     68  H51 non d ame     -10.109   4.239  64.872  0.00  0.00     0.083 H 
ATOM     69  C34 non d ame      -7.801   5.692  62.842  0.00  0.00    -0.075 A 
ATOM     70  H52 non d ame      -9.723   4.779  62.495  0.00  0.00     0.083 H 
ATOM     71  H53 non d ame      -7.638   5.929  61.791  0.00  0.00     0.084 H 
ENDBRANCH  58  61
ENDBRANCH  57  58
ENDBRANCH  55  57
ENDBRANCH  52  55
ENDBRANCH  49  52
ENDBRANCH  47  49
BRANCH  47  72
ATOM     72  C24 non d ame     -10.057   8.292  66.279  0.00  0.00    -0.039 C 
ATOM     73  H35 non d ame     -10.925   8.920  66.077  0.00  0.00     0.036 H 
ATOM     74  H36 non d ame      -9.942   7.340  65.761  0.00  0.00     0.036 H 
BRANCH  72  75
ATOM     75  C25 non d ame     -10.056   7.978  67.850  0.00  0.00    -0.001 C 
ATOM     76  C26 non d ame      -8.543   7.554  68.335  0.00  0.00    -0.035 C 
ATOM     77  C27 non d ame      -8.616   6.389  69.023  0.00  0.00     0.085 C 
ATOM     78  H38 non d ame      -7.931   7.302  67.471  0.00  0.00     0.036 H 
ATOM     79  H39 non d ame      -8.175   8.264  69.076  0.00  0.00     0.036 H 
ATOM     80  N5  non d ame      -9.988   5.813  68.771  0.00  0.00    -0.049 N 
ATOM     81  H40 non d ame      -7.868   5.737  68.571  0.00  0.00     0.075 H 
ATOM     82  H41 non d ame      -8.535   6.666  70.074  0.00  0.00     0.075 H 
ATOM     83  C28 non d ame     -10.863   7.011  68.134  0.00  0.00     0.193 C 
ATOM     84  H42 non d ame      -9.873   5.093  68.072  0.00  0.00     0.280 HD
ATOM     85  H43 non d ame     -10.372   5.581  69.676  0.00  0.00     0.280 HD
ATOM     86  H44 non d ame     -11.601   7.539  68.738  0.00  0.00     0.129 H 
ATOM     87  H37 non d ame     -10.563   8.752  68.426  0.00  0.00     0.046 H 
BRANCH  83  88
ATOM     88  O6  non d ame     -11.573   6.546  66.985  0.00  0.00    -0.369 OA
ATOM     89  H45 non d ame     -11.378   5.617  66.843  0.00  0.00     0.212 HD
ENDBRANCH  83  88
ENDBRANCH  72  75
ENDBRANCH  47  72
ENDBRANCH  45  47
ENDBRANCH   1  43
BRANCH   1  90
ATOM     90  C16 non d ame      -6.964  12.987  68.576  0.00  0.00    -0.035 C 
ATOM     91  H21 non d ame      -7.087  12.381  69.474  0.00  0.00     0.037 H 
ATOM     92  H22 non d ame      -6.075  12.869  67.956  0.00  0.00     0.037 H 
BRANCH  90  93
ATOM     93  C17 non d ame      -6.980  14.478  69.043  0.00  0.00    -0.059 C 
ATOM     94  H23 non d ame      -7.961  14.678  69.475  0.00  0.00     0.038 H 
BRANCH  93  95
ATOM     95  C18 non d ame      -5.908  14.762  70.144  0.00  0.00    -0.073 C 
ATOM     96  H24 non d ame      -5.411  15.708  69.930  0.00  0.00     0.028 H 
ATOM     97  H25 non d ame      -6.394  14.818  71.118  0.00  0.00     0.028 H 
ATOM     98  H26 non d ame      -5.173  13.958  70.150  0.00  0.00     0.028 H 
ENDBRANCH  93  95
BRANCH  93  99
ATOM     99  C19 non d ame      -6.805  15.425  67.854  0.00  0.00    -0.073 C 
ATOM    100  H27 non d ame      -5.847  15.230  67.371  0.00  0.00     0.028 H 
ATOM    101  H28 non d ame      -7.612  15.264  67.139  0.00  0.00     0.028 H 
ATOM    102  H29 non d ame      -6.832  16.457  68.204  0.00  0.00     0.028 H 
ENDBRANCH  93  99
ENDBRANCH  90  93
ENDBRANCH   1  90
TORSDOF 26
ENDMDL
MODEL 19
REMARK VINA RESULT:      -6.0      4.512     10.014
REMARK  26 active torsions:
REMARK  status: ('A' for Active; 'I' for Inactive)
REMARK    1  A    between atoms: C2_2  and  C3_3 
REMARK    2  A    between atoms: C4_6  and  C5_7 
REMARK       I    between atoms: C5_7  and  N2_9 
REMARK    3  A    between atoms: N2_9  and  C6_10 
REMARK    4  A    between atoms: C6_10  and  C7_11 
REMARK    5  A    between atoms: C6_10  and  C8_13 
REMARK       I    between atoms: C7_11  and  N3_14 
REMARK    6  A    between atoms: N3_14  and  C9_15 
REMARK    7  A    between atoms: C9_15  and  C10_16 
REMARK    8  A    between atoms: C9_15  and  C11_18 
REMARK       I    between atoms: C10_16  and  N4_21 
REMARK    9  A    between atoms: C11_18  and  C12_19 
REMARK   10  A    between atoms: C11_18  and  C13_20 
REMARK   11  A    between atoms: N4_21  and  C14_22 
REMARK   12  A    between atoms: C14_22  and  C15_23 
REMARK   13  A    between atoms: C14_22  and  C16_25 
REMARK       I    between atoms: C15_23  and  N6_40 
REMARK   14  A    between atoms: C16_25  and  C17_26 
REMARK   15  A    between atoms: C17_26  and  C18_27 
REMARK   16  A    between atoms: C17_26  and  C19_28 
REMARK   17  A    between atoms: C20_29  and  C21_30 
REMARK   18  A    between atoms: C20_29  and  C24_33 
REMARK   19  A    between atoms: C20_29  and  N6_40 
REMARK   20  A    between atoms: C21_30  and  C22_31 
REMARK   21  A    between atoms: C22_31  and  C23_32 
REMARK   22  A    between atoms: C23_32  and  O8_43 
REMARK   23  A    between atoms: C24_33  and  C25_34 
REMARK   24  A    between atoms: C28_38  and  O6_39 
REMARK   25  A    between atoms: C29_42  and  O8_43 
REMARK   26  A    between atoms: C29_42  and  C35_49 
ROOT
ATOM      1  C14 non d ame      -8.329   8.220  62.758  0.00  0.00     0.089 C 
ATOM      2  H20 non d ame      -8.970   8.235  61.877  0.00  0.00     0.087 H 
ENDROOT
BRANCH   1   3
ATOM      3  N4  non d ame      -8.980   9.016  63.788  0.00  0.00    -0.346 N 
ATOM      4  C10 non d ame      -9.488  10.400  63.473  0.00  0.00     0.241 C 
ATOM      5  O4  non d ame      -9.358  10.854  62.384  0.00  0.00    -0.271 OA
ATOM      6  H19 non d ame      -9.079   8.612  64.709  0.00  0.00     0.163 HD
BRANCH   4   7
ATOM      7  C9  non d ame     -10.165  11.207  64.550  0.00  0.00     0.092 C 
ATOM      8  H11 non d ame     -10.950  10.606  65.009  0.00  0.00     0.088 H 
BRANCH   7   9
ATOM      9  N3  non d ame      -9.196  11.531  65.601  0.00  0.00    -0.346 N 
ATOM     10  C7  non d ame      -9.056  10.663  66.744  0.00  0.00     0.240 C 
ATOM     11  O3  non d ame      -9.716   9.701  66.835  0.00  0.00    -0.271 OA
ATOM     12  H10 non d ame      -8.621  12.359  65.537  0.00  0.00     0.163 HD
BRANCH  10  13
ATOM     13  C6  non d ame      -8.025  11.015  67.861  0.00  0.00     0.086 C 
ATOM     14  H6  non d ame      -8.500  11.289  68.802  0.00  0.00     0.086 H 
BRANCH  13  15
ATOM     15  N2  non d ame      -7.207   9.845  68.133  0.00  0.00    -0.343 N 
ATOM     16  C5  non d ame      -7.485   9.029  69.317  0.00  0.00     0.273 C 
ATOM     17  O2  non d ame      -8.368   9.325  70.046  0.00  0.00    -0.266 OA
ATOM     18  H5  non d ame      -6.453   9.601  67.506  0.00  0.00     0.163 HD
BRANCH  16  19
ATOM     19  C4  non d ame      -6.630   7.788  69.616  0.00  0.00     0.154 A 
ATOM     20  C1  non d ame      -7.089   6.508  70.062  0.00  0.00    -0.017 A 
ATOM     21  C2  non d ame      -5.919   5.726  70.185  0.00  0.00     0.077 A 
ATOM     22  H1  non d ame      -8.113   6.196  70.265  0.00  0.00     0.091 H 
ATOM     23  O1  non d ame      -4.913   6.477  69.846  0.00  0.00    -0.218 OA
ATOM     24  N1  non d ame      -5.302   7.685  69.510  0.00  0.00    -0.123 NA
BRANCH  21  25
ATOM     25  C3  non d ame      -5.851   4.271  70.632  0.00  0.00    -0.029 C 
ATOM     26  H2  non d ame      -6.272   3.632  69.855  0.00  0.00     0.036 H 
ATOM     27  H3  non d ame      -4.811   3.994  70.807  0.00  0.00     0.036 H 
ATOM     28  H4  non d ame      -6.420   4.146  71.553  0.00  0.00     0.036 H 
ENDBRANCH  21  25
ENDBRANCH  16  19
ENDBRANCH  13  15
BRANCH  13  29
ATOM     29  C8  non d ame      -7.155  12.158  67.403  0.00  0.00    -0.049 C 
ATOM     30  H7  non d ame      -7.289  12.311  66.333  0.00  0.00     0.030 H 
ATOM     31  H8  non d ame      -7.436  13.065  67.939  0.00  0.00     0.030 H 
ATOM     32  H9  non d ame      -6.110  11.924  67.608  0.00  0.00     0.030 H 
ENDBRANCH  13  29
ENDBRANCH  10  13
ENDBRANCH   7   9
BRANCH   7  33
ATOM     33  C11 non d ame     -10.722  12.526  63.937  0.00  0.00    -0.033 C 
ATOM     34  H12 non d ame     -10.181  12.710  63.008  0.00  0.00     0.042 H 
BRANCH  33  35
ATOM     35  C12 non d ame     -12.235  12.392  63.579  0.00  0.00    -0.071 C 
ATOM     36  H13 non d ame     -12.345  12.284  62.500  0.00  0.00     0.028 H 
ATOM     37  H14 non d ame     -12.649  11.515  64.076  0.00  0.00     0.028 H 
ATOM     38  H15 non d ame     -12.766  13.283  63.912  0.00  0.00     0.028 H 
ENDBRANCH  33  35
BRANCH  33  39
ATOM     39  C13 non d ame     -10.470  13.737  64.891  0.00  0.00    -0.071 C 
ATOM     40  H16 non d ame      -9.474  14.141  64.710  0.00  0.00     0.028 H 
ATOM     41  H17 non d ame     -11.216  14.509  64.704  0.00  0.00     0.028 H 
ATOM     42  H18 non d ame     -10.544  13.404  65.927  0.00  0.00     0.028 H 
ENDBRANCH  33  39
ENDBRANCH   7  33
ENDBRANCH   4   7
ENDBRANCH   1   3
BRANCH   1  43
ATOM     43  C15 non d ame      -8.116   6.780  63.306  0.00  0.00     0.240 C 
ATOM     44  O5  non d ame      -7.553   5.972  62.640  0.00  0.00    -0.271 OA
ATOM     45  N6  non d ame      -8.606   6.410  64.664  0.00  0.00    -0.355 N 
ATOM     46  H46 non d ame      -9.081   7.089  65.240  0.00  0.00     0.162 HD
BRANCH  45  47
ATOM     47  C20 non d ame      -8.395   5.037  65.171  0.00  0.00     0.013 C 
ATOM     48  H30 non d ame      -7.980   4.440  64.359  0.00  0.00     0.072 H 
BRANCH  47  49
ATOM     49  C21 non d ame      -9.719   4.458  65.613  0.00  0.00    -0.038 C 
ATOM     50  H31 non d ame     -10.483   5.049  65.108  0.00  0.00     0.036 H 
ATOM     51  H32 non d ame      -9.648   3.386  65.428  0.00  0.00     0.036 H 
BRANCH  49  52
ATOM     52  C22 non d ame      -9.970   4.624  67.128  0.00  0.00     0.018 C 
ATOM     53  H33 non d ame     -10.578   3.768  67.422  0.00  0.00     0.048 H 
ATOM     54  H34 non d ame      -8.987   4.774  67.575  0.00  0.00     0.048 H 
BRANCH  52  55
ATOM     55  C23 non d ame     -10.802   5.885  67.490  0.00  0.00     0.259 C 
ATOM     56  O7  non d ame     -11.171   6.629  66.640  0.00  0.00    -0.265 OA
BRANCH  55  57
ATOM     57  O8  non d ame     -11.110   6.148  68.854  0.00  0.00    -0.317 OA
BRANCH  57  58
ATOM     58  C29 non d ame     -10.524   5.221  69.772  0.00  0.00     0.052 C 
ATOM     59  H47 non d ame     -11.200   4.367  69.800  0.00  0.00     0.082 H 
ATOM     60  H48 non d ame      -9.494   5.090  69.443  0.00  0.00     0.082 H 
BRANCH  58  61
ATOM     61  C35 non d ame     -10.510   5.882  71.176  0.00  0.00    -0.034 A 
ATOM     62  C30 non d ame     -10.919   7.203  71.329  0.00  0.00    -0.075 A 
ATOM     63  C31 non d ame     -10.906   7.798  72.590  0.00  0.00    -0.082 A 
ATOM     64  H49 non d ame     -11.250   7.773  70.460  0.00  0.00     0.084 H 
ATOM     65  C32 non d ame     -10.480   7.066  73.701  0.00  0.00    -0.083 A 
ATOM     66  H50 non d ame     -11.230   8.832  72.706  0.00  0.00     0.083 H 
ATOM     67  C33 non d ame     -10.070   5.749  73.544  0.00  0.00    -0.082 A 
ATOM     68  H51 non d ame     -10.468   7.522  74.691  0.00  0.00     0.083 H 
ATOM     69  C34 non d ame     -10.083   5.151  72.286  0.00  0.00    -0.075 A 
ATOM     70  H52 non d ame      -9.736   5.181  74.413  0.00  0.00     0.083 H 
ATOM     71  H53 non d ame      -9.760   4.115  72.171  0.00  0.00     0.084 H 
ENDBRANCH  58  61
ENDBRANCH  57  58
ENDBRANCH  55  57
ENDBRANCH  52  55
ENDBRANCH  49  52
ENDBRANCH  47  49
BRANCH  47  72
ATOM     72  C24 non d ame      -7.430   5.066  66.354  0.00  0.00    -0.039 C 
ATOM     73  H35 non d ame      -7.568   6.044  66.817  0.00  0.00     0.036 H 
ATOM     74  H36 non d ame      -7.641   4.160  66.923  0.00  0.00     0.036 H 
BRANCH  72  75
ATOM     75  C25 non d ame      -5.903   4.980  65.877  0.00  0.00    -0.001 C 
ATOM     76  C26 non d ame      -5.119   3.804  66.717  0.00  0.00    -0.035 C 
ATOM     77  C27 non d ame      -3.981   4.323  67.236  0.00  0.00     0.085 C 
ATOM     78  H38 non d ame      -5.697   3.525  67.598  0.00  0.00     0.036 H 
ATOM     79  H39 non d ame      -4.759   3.033  66.035  0.00  0.00     0.036 H 
ATOM     80  N5  non d ame      -4.080   5.824  67.103  0.00  0.00    -0.049 N 
ATOM     81  H40 non d ame      -3.995   4.059  68.294  0.00  0.00     0.075 H 
ATOM     82  H41 non d ame      -3.177   3.963  66.595  0.00  0.00     0.075 H 
ATOM     83  C28 non d ame      -5.289   6.099  66.070  0.00  0.00     0.193 C 
ATOM     84  H42 non d ame      -4.347   6.175  68.012  0.00  0.00     0.280 HD
ATOM     85  H43 non d ame      -3.217   6.131  66.677  0.00  0.00     0.280 HD
ATOM     86  H44 non d ame      -5.082   6.392  65.041  0.00  0.00     0.129 H 
ATOM     87  H37 non d ame      -5.811   4.959  64.791  0.00  0.00     0.046 H 
BRANCH  83  88
ATOM     88  O6  non d ame      -6.158   7.109  66.587  0.00  0.00    -0.369 OA
ATOM     89  H45 non d ame      -5.638   7.786  67.025  0.00  0.00     0.212 HD
ENDBRANCH  83  88
ENDBRANCH  72  75
ENDBRANCH  47  72
ENDBRANCH  45  47
ENDBRANCH   1  43
BRANCH   1  90
ATOM     90  C16 non d ame      -6.983   8.845  62.426  0.00  0.00    -0.035 C 
ATOM     91  H21 non d ame      -6.552   8.209  61.652  0.00  0.00     0.037 H 
ATOM     92  H22 non d ame      -7.196   9.893  62.213  0.00  0.00     0.037 H 
BRANCH  90  93
ATOM     93  C17 non d ame      -5.975   8.832  63.618  0.00  0.00    -0.059 C 
ATOM     94  H23 non d ame      -6.402   8.212  64.406  0.00  0.00     0.038 H 
BRANCH  93  95
ATOM     95  C18 non d ame      -4.597   8.213  63.219  0.00  0.00    -0.073 C 
ATOM     96  H24 non d ame      -4.214   7.616  64.047  0.00  0.00     0.028 H 
ATOM     97  H25 non d ame      -4.725   7.579  62.342  0.00  0.00     0.028 H 
ATOM     98  H26 non d ame      -3.892   9.013  62.990  0.00  0.00     0.028 H 
ENDBRANCH  93  95
BRANCH  93  99
ATOM     99  C19 non d ame      -5.793  10.239  64.195  0.00  0.00    -0.073 C 
ATOM    100  H27 non d ame      -5.507  10.167  65.245  0.00  0.00     0.028 H 
ATOM    101  H28 non d ame      -5.012  10.760  63.641  0.00  0.00     0.028 H 
ATOM    102  H29 non d ame      -6.729  10.790  64.110  0.00  0.00     0.028 H 
ENDBRANCH  93  99
ENDBRANCH  90  93
ENDBRANCH   1  90
TORSDOF 26
ENDMDL
MODEL 20
REMARK VINA RESULT:      -6.0      3.135      7.193
REMARK  26 active torsions:
REMARK  status: ('A' for Active; 'I' for Inactive)
REMARK    1  A    between atoms: C2_2  and  C3_3 
REMARK    2  A    between atoms: C4_6  and  C5_7 
REMARK       I    between atoms: C5_7  and  N2_9 
REMARK    3  A    between atoms: N2_9  and  C6_10 
REMARK    4  A    between atoms: C6_10  and  C7_11 
REMARK    5  A    between atoms: C6_10  and  C8_13 
REMARK       I    between atoms: C7_11  and  N3_14 
REMARK    6  A    between atoms: N3_14  and  C9_15 
REMARK    7  A    between atoms: C9_15  and  C10_16 
REMARK    8  A    between atoms: C9_15  and  C11_18 
REMARK       I    between atoms: C10_16  and  N4_21 
REMARK    9  A    between atoms: C11_18  and  C12_19 
REMARK   10  A    between atoms: C11_18  and  C13_20 
REMARK   11  A    between atoms: N4_21  and  C14_22 
REMARK   12  A    between atoms: C14_22  and  C15_23 
REMARK   13  A    between atoms: C14_22  and  C16_25 
REMARK       I    between atoms: C15_23  and  N6_40 
REMARK   14  A    between atoms: C16_25  and  C17_26 
REMARK   15  A    between atoms: C17_26  and  C18_27 
REMARK   16  A    between atoms: C17_26  and  C19_28 
REMARK   17  A    between atoms: C20_29  and  C21_30 
REMARK   18  A    between atoms: C20_29  and  C24_33 
REMARK   19  A    between atoms: C20_29  and  N6_40 
REMARK   20  A    between atoms: C21_30  and  C22_31 
REMARK   21  A    between atoms: C22_31  and  C23_32 
REMARK   22  A    between atoms: C23_32  and  O8_43 
REMARK   23  A    between atoms: C24_33  and  C25_34 
REMARK   24  A    between atoms: C28_38  and  O6_39 
REMARK   25  A    between atoms: C29_42  and  O8_43 
REMARK   26  A    between atoms: C29_42  and  C35_49 
ROOT
ATOM      1  C14 non d ame     -10.503   7.664  68.132  0.00  0.00     0.089 C 
ATOM      2  H20 non d ame     -11.430   7.148  67.881  0.00  0.00     0.087 H 
ENDROOT
BRANCH   1   3
ATOM      3  N4  non d ame      -9.400   6.810  67.716  0.00  0.00    -0.346 N 
ATOM      4  C10 non d ame      -9.661   5.575  66.892  0.00  0.00     0.241 C 
ATOM      5  O4  non d ame     -10.769   5.288  66.576  0.00  0.00    -0.271 OA
ATOM      6  H19 non d ame      -8.465   7.071  67.997  0.00  0.00     0.163 HD
BRANCH   4   7
ATOM      7  C9  non d ame      -8.507   4.706  66.466  0.00  0.00     0.092 C 
ATOM      8  H11 non d ame      -8.866   3.952  65.766  0.00  0.00     0.088 H 
BRANCH   7   9
ATOM      9  N3  non d ame      -7.517   5.521  65.756  0.00  0.00    -0.346 N 
ATOM     10  C7  non d ame      -7.690   5.803  64.352  0.00  0.00     0.240 C 
ATOM     11  O3  non d ame      -8.619   5.382  63.778  0.00  0.00    -0.271 OA
ATOM     12  H10 non d ame      -6.710   5.890  66.237  0.00  0.00     0.163 HD
BRANCH  10  13
ATOM     13  C6  non d ame      -6.631   6.669  63.601  0.00  0.00     0.086 C 
ATOM     14  H6  non d ame      -7.047   7.191  62.739  0.00  0.00     0.086 H 
BRANCH  13  15
ATOM     15  N2  non d ame      -6.131   7.691  64.505  0.00  0.00    -0.343 N 
ATOM     16  C5  non d ame      -6.716   9.033  64.470  0.00  0.00     0.273 C 
ATOM     17  O2  non d ame      -7.587   9.281  63.710  0.00  0.00    -0.266 OA
ATOM     18  H5  non d ame      -5.385   7.472  65.150  0.00  0.00     0.163 HD
BRANCH  16  19
ATOM     19  C4  non d ame      -6.199  10.124  65.421  0.00  0.00     0.154 A 
ATOM     20  C1  non d ame      -6.645  10.392  66.754  0.00  0.00    -0.017 A 
ATOM     21  C2  non d ame      -5.858  11.482  67.189  0.00  0.00     0.077 A 
ATOM     22  H1  non d ame      -7.421   9.875  67.319  0.00  0.00     0.091 H 
ATOM     23  O1  non d ame      -5.056  11.794  66.213  0.00  0.00    -0.218 OA
ATOM     24  N1  non d ame      -5.236  11.016  65.171  0.00  0.00    -0.123 NA
BRANCH  21  25
ATOM     25  C3  non d ame      -5.934  12.163  68.549  0.00  0.00    -0.029 C 
ATOM     26  H2  non d ame      -6.233  11.436  69.304  0.00  0.00     0.036 H 
ATOM     27  H3  non d ame      -4.957  12.572  68.805  0.00  0.00     0.036 H 
ATOM     28  H4  non d ame      -6.667  12.970  68.511  0.00  0.00     0.036 H 
ENDBRANCH  21  25
ENDBRANCH  16  19
ENDBRANCH  13  15
BRANCH  13  29
ATOM     29  C8  non d ame      -5.497   5.790  63.138  0.00  0.00    -0.049 C 
ATOM     30  H7  non d ame      -4.608   5.998  63.734  0.00  0.00     0.030 H 
ATOM     31  H8  non d ame      -5.777   4.743  63.255  0.00  0.00     0.030 H 
ATOM     32  H9  non d ame      -5.284   5.994  62.089  0.00  0.00     0.030 H 
ENDBRANCH  13  29
ENDBRANCH  10  13
ENDBRANCH   7   9
BRANCH   7  33
ATOM     33  C11 non d ame      -7.846   4.070  67.724  0.00  0.00    -0.033 C 
ATOM     34  H12 non d ame      -7.452   4.882  68.334  0.00  0.00     0.042 H 
BRANCH  33  35
ATOM     35  C12 non d ame      -8.892   3.299  68.588  0.00  0.00    -0.071 C 
ATOM     36  H13 non d ame      -9.771   3.927  68.739  0.00  0.00     0.028 H 
ATOM     37  H14 non d ame      -9.185   2.384  68.073  0.00  0.00     0.028 H 
ATOM     38  H15 non d ame      -8.453   3.050  69.553  0.00  0.00     0.028 H 
ENDBRANCH  33  35
BRANCH  33  39
ATOM     39  C13 non d ame      -6.653   3.145  67.321  0.00  0.00    -0.071 C 
ATOM     40  H16 non d ame      -6.951   2.509  66.487  0.00  0.00     0.028 H 
ATOM     41  H17 non d ame      -5.802   3.758  67.023  0.00  0.00     0.028 H 
ATOM     42  H18 non d ame      -6.373   2.523  68.171  0.00  0.00     0.028 H 
ENDBRANCH  33  39
ENDBRANCH   7  33
ENDBRANCH   4   7
ENDBRANCH   1   3
BRANCH   1  43
ATOM     43  C15 non d ame     -10.375   9.030  67.398  0.00  0.00     0.240 C 
ATOM     44  O5  non d ame     -10.235   9.057  66.218  0.00  0.00    -0.271 OA
ATOM     45  N6  non d ame     -10.435  10.306  68.166  0.00  0.00    -0.355 N 
ATOM     46  H46 non d ame     -10.559  10.297  69.168  0.00  0.00     0.162 HD
BRANCH  45  47
ATOM     47  C20 non d ame     -10.314  11.597  67.454  0.00  0.00     0.013 C 
ATOM     48  H30 non d ame      -9.807  11.411  66.507  0.00  0.00     0.072 H 
BRANCH  47  49
ATOM     49  C21 non d ame      -9.503  12.557  68.294  0.00  0.00    -0.038 C 
ATOM     50  H31 non d ame     -10.168  12.884  69.093  0.00  0.00     0.036 H 
ATOM     51  H32 non d ame      -8.579  12.029  68.535  0.00  0.00     0.036 H 
BRANCH  49  52
ATOM     52  C22 non d ame      -9.090  13.829  67.522  0.00  0.00     0.018 C 
ATOM     53  H33 non d ame      -8.070  14.049  67.838  0.00  0.00     0.048 H 
ATOM     54  H34 non d ame      -9.302  13.619  66.473  0.00  0.00     0.048 H 
BRANCH  52  55
ATOM     55  C23 non d ame      -9.932  15.083  67.886  0.00  0.00     0.259 C 
ATOM     56  O7  non d ame     -10.305  15.826  67.037  0.00  0.00    -0.265 OA
BRANCH  55  57
ATOM     57  O8  non d ame     -10.242  15.342  69.249  0.00  0.00    -0.317 OA
BRANCH  57  58
ATOM     58  C29 non d ame     -11.542  15.903  69.455  0.00  0.00     0.052 C 
ATOM     59  H47 non d ame     -11.375  16.864  69.941  0.00  0.00     0.082 H 
ATOM     60  H48 non d ame     -12.037  15.862  68.485  0.00  0.00     0.082 H 
BRANCH  58  61
ATOM     61  C35 non d ame     -12.311  14.982  70.438  0.00  0.00    -0.034 A 
ATOM     62  C30 non d ame     -12.059  13.613  70.453  0.00  0.00    -0.075 A 
ATOM     63  C31 non d ame     -12.750  12.785  71.336  0.00  0.00    -0.082 A 
ATOM     64  H49 non d ame     -11.319  13.190  69.773  0.00  0.00     0.084 H 
ATOM     65  C32 non d ame     -13.699  13.330  72.206  0.00  0.00    -0.083 A 
ATOM     66  H50 non d ame     -12.548  11.714  71.347  0.00  0.00     0.083 H 
ATOM     67  C33 non d ame     -13.949  14.695  72.185  0.00  0.00    -0.082 A 
ATOM     68  H51 non d ame     -14.243  12.690  72.900  0.00  0.00     0.083 H 
ATOM     69  C34 non d ame     -13.259  15.527  71.306  0.00  0.00    -0.075 A 
ATOM     70  H52 non d ame     -14.692  15.117  72.863  0.00  0.00     0.083 H 
ATOM     71  H53 non d ame     -13.461  16.598  71.296  0.00  0.00     0.084 H 
ENDBRANCH  58  61
ENDBRANCH  57  58
ENDBRANCH  55  57
ENDBRANCH  52  55
ENDBRANCH  49  52
ENDBRANCH  47  49
BRANCH  47  72
ATOM     72  C24 non d ame     -11.702  12.183  67.206  0.00  0.00    -0.039 C 
ATOM     73  H35 non d ame     -12.403  11.440  67.586  0.00  0.00     0.036 H 
ATOM     74  H36 non d ame     -11.677  13.182  67.643  0.00  0.00     0.036 H 
BRANCH  72  75
ATOM     75  C25 non d ame     -12.001  12.358  65.642  0.00  0.00    -0.001 C 
ATOM     76  C26 non d ame     -10.606  12.204  64.785  0.00  0.00    -0.035 C 
ATOM     77  C27 non d ame     -10.483  13.269  63.956  0.00  0.00     0.085 C 
ATOM     78  H38 non d ame      -9.747  12.297  65.449  0.00  0.00     0.036 H 
ATOM     79  H39 non d ame     -10.679  11.357  64.102  0.00  0.00     0.036 H 
ATOM     80  N5  non d ame     -11.495  14.295  64.404  0.00  0.00    -0.049 N 
ATOM     81  H40 non d ame      -9.480  13.659  64.131  0.00  0.00     0.075 H 
ATOM     82  H41 non d ame     -10.761  12.902  62.969  0.00  0.00     0.075 H 
ATOM     83  C28 non d ame     -12.509  13.518  65.391  0.00  0.00     0.193 C 
ATOM     84  H42 non d ame     -10.987  14.983  64.941  0.00  0.00     0.280 HD
ATOM     85  H43 non d ame     -12.004  14.575  63.577  0.00  0.00     0.280 HD
ATOM     86  H44 non d ame     -13.503  13.229  65.048  0.00  0.00     0.129 H 
ATOM     87  H37 non d ame     -12.853  11.762  65.315  0.00  0.00     0.046 H 
BRANCH  83  88
ATOM     88  O6  non d ame     -12.723  14.283  66.579  0.00  0.00    -0.369 OA
ATOM     89  H45 non d ame     -11.885  14.419  67.026  0.00  0.00     0.212 HD
ENDBRANCH  83  88
ENDBRANCH  72  75
ENDBRANCH  47  72
ENDBRANCH  45  47
ENDBRANCH   1  43
BRANCH   1  90
ATOM     90  C16 non d ame     -10.423   7.882  69.634  0.00  0.00    -0.035 C 
ATOM     91  H21 non d ame     -10.599   8.948  69.781  0.00  0.00     0.037 H 
ATOM     92  H22 non d ame     -11.107   7.152  70.068  0.00  0.00     0.037 H 
BRANCH  90  93
ATOM     93  C17 non d ame      -9.015   7.580  70.238  0.00  0.00    -0.059 C 
ATOM     94  H23 non d ame      -8.399   7.155  69.445  0.00  0.00     0.038 H 
BRANCH  93  95
ATOM     95  C18 non d ame      -8.304   8.873  70.752  0.00  0.00    -0.073 C 
ATOM     96  H24 non d ame      -7.687   9.289  69.955  0.00  0.00     0.028 H 
ATOM     97  H25 non d ame      -9.055   9.605  71.050  0.00  0.00     0.028 H 
ATOM     98  H26 non d ame      -7.676   8.626  71.608  0.00  0.00     0.028 H 
ENDBRANCH  93  95
BRANCH  93  99
ATOM     99  C19 non d ame      -9.110   6.532  71.350  0.00  0.00    -0.073 C 
ATOM    100  H27 non d ame     -10.010   5.933  71.209  0.00  0.00     0.028 H 
ATOM    101  H28 non d ame      -8.233   5.884  71.314  0.00  0.00     0.028 H 
ATOM    102  H29 non d ame      -9.152   7.032  72.317  0.00  0.00     0.028 H 
ENDBRANCH  93  99
ENDBRANCH  90  93
ENDBRANCH   1  90
TORSDOF 26
ENDMDL
