MODEL 1
REMARK VINA RESULT:      -6.9      0.000      0.000
REMARK  26 active torsions:
REMARK  status: ('A' for Active; 'I' for Inactive)
REMARK    1  A    between atoms: C2_2  and  C3_3 
REMARK    2  A    between atoms: C4_6  and  C5_7 
REMARK       I    between atoms: C5_7  and  N2_9 
REMARK    3  A    between atoms: N2_9  and  C6_10 
REMARK    4  A    between atoms: C6_10  and  C7_11 
REMARK    5  A    between atoms: C6_10  and  C8_13 
REMARK       I    between atoms: C7_11  and  N3_14 
REMARK    6  A    between atoms: N3_14  and  C9_15 
REMARK    7  A    between atoms: C9_15  and  C10_16 
REMARK    8  A    between atoms: C9_15  and  C11_18 
REMARK       I    between atoms: C10_16  and  N4_21 
REMARK    9  A    between atoms: C11_18  and  C12_19 
REMARK   10  A    between atoms: C11_18  and  C13_20 
REMARK   11  A    between atoms: N4_21  and  C14_22 
REMARK   12  A    between atoms: C14_22  and  C15_23 
REMARK   13  A    between atoms: C14_22  and  C16_25 
REMARK       I    between atoms: C15_23  and  N6_40 
REMARK   14  A    between atoms: C16_25  and  C17_26 
REMARK   15  A    between atoms: C17_26  and  C18_27 
REMARK   16  A    between atoms: C17_26  and  C19_28 
REMARK   17  A    between atoms: C20_29  and  C21_30 
REMARK   18  A    between atoms: C20_29  and  C24_33 
REMARK   19  A    between atoms: C20_29  and  N6_40 
REMARK   20  A    between atoms: C21_30  and  C22_31 
REMARK   21  A    between atoms: C22_31  and  C23_32 
REMARK   22  A    between atoms: C23_32  and  O8_43 
REMARK   23  A    between atoms: C24_33  and  C25_34 
REMARK   24  A    between atoms: C28_38  and  O6_39 
REMARK   25  A    between atoms: C29_42  and  O8_43 
REMARK   26  A    between atoms: C29_42  and  C35_49 
ROOT
ATOM      1  C14 non d ame      -7.980   7.852  63.694  0.00  0.00     0.089 C 
ATOM      2  H20 non d ame      -8.143   8.053  62.635  0.00  0.00     0.087 H 
ENDROOT
BRANCH   1   3
ATOM      3  N4  non d ame      -8.872   8.719  64.448  0.00  0.00    -0.346 N 
ATOM      4  C10 non d ame      -9.486   9.933  63.795  0.00  0.00     0.241 C 
ATOM      5  O4  non d ame      -9.243  10.192  62.663  0.00  0.00    -0.271 OA
ATOM      6  H19 non d ame      -9.064   8.482  65.411  0.00  0.00     0.163 HD
BRANCH   4   7
ATOM      7  C9  non d ame     -10.412  10.816  64.589  0.00  0.00     0.092 C 
ATOM      8  H11 non d ame     -11.229  10.214  64.986  0.00  0.00     0.088 H 
BRANCH   7   9
ATOM      9  N3  non d ame      -9.690  11.377  65.735  0.00  0.00    -0.346 N 
ATOM     10  C7  non d ame     -10.007  10.936  67.072  0.00  0.00     0.240 C 
ATOM     11  O3  non d ame     -10.840  10.132  67.243  0.00  0.00    -0.271 OA
ATOM     12  H10 non d ame      -8.970  12.073  65.603  0.00  0.00     0.163 HD
BRANCH  10  13
ATOM     13  C6  non d ame      -9.237  11.539  68.288  0.00  0.00     0.086 C 
ATOM     14  H6  non d ame      -8.452  12.233  67.988  0.00  0.00     0.086 H 
BRANCH  13  15
ATOM     15  N2  non d ame     -10.170  12.295  69.108  0.00  0.00    -0.343 N 
ATOM     16  C5  non d ame     -10.470  13.686  68.763  0.00  0.00     0.273 C 
ATOM     17  O2  non d ame      -9.954  14.189  67.826  0.00  0.00    -0.266 OA
ATOM     18  H5  non d ame     -10.604  11.858  69.908  0.00  0.00     0.163 HD
BRANCH  16  19
ATOM     19  C4  non d ame     -11.454  14.497  69.620  0.00  0.00     0.154 A 
ATOM     20  C1  non d ame     -12.515  13.986  70.434  0.00  0.00    -0.017 A 
ATOM     21  C2  non d ame     -13.115  15.130  71.008  0.00  0.00     0.077 A 
ATOM     22  H1  non d ame     -12.805  12.946  70.585  0.00  0.00     0.091 H 
ATOM     23  O1  non d ame     -12.466  16.169  70.569  0.00  0.00    -0.218 OA
ATOM     24  N1  non d ame     -11.493  15.825  69.758  0.00  0.00    -0.123 NA
BRANCH  21  25
ATOM     25  C3  non d ame     -14.301  15.142  71.963  0.00  0.00    -0.029 C 
ATOM     26  H2  non d ame     -15.207  15.403  71.416  0.00  0.00     0.036 H 
ATOM     27  H3  non d ame     -14.417  14.154  72.410  0.00  0.00     0.036 H 
ATOM     28  H4  non d ame     -14.126  15.877  72.750  0.00  0.00     0.036 H 
ENDBRANCH  21  25
ENDBRANCH  16  19
ENDBRANCH  13  15
BRANCH  13  29
ATOM     29  C8  non d ame      -8.621  10.427  69.098  0.00  0.00    -0.049 C 
ATOM     30  H7  non d ame      -8.384  10.793  70.097  0.00  0.00     0.030 H 
ATOM     31  H8  non d ame      -9.326   9.598  69.172  0.00  0.00     0.030 H 
ATOM     32  H9  non d ame      -7.708  10.085  68.611  0.00  0.00     0.030 H 
ENDBRANCH  13  29
ENDBRANCH  10  13
ENDBRANCH   7   9
BRANCH   7  33
ATOM     33  C11 non d ame     -10.924  11.975  63.685  0.00  0.00    -0.033 C 
ATOM     34  H12 non d ame     -10.402  11.904  62.731  0.00  0.00     0.042 H 
BRANCH  33  35
ATOM     35  C12 non d ame     -12.451  11.837  63.394  0.00  0.00    -0.071 C 
ATOM     36  H13 non d ame     -12.971  11.547  64.308  0.00  0.00     0.028 H 
ATOM     37  H14 non d ame     -12.842  12.791  63.042  0.00  0.00     0.028 H 
ATOM     38  H15 non d ame     -12.608  11.076  62.630  0.00  0.00     0.028 H 
ENDBRANCH  33  35
BRANCH  33  39
ATOM     39  C13 non d ame     -10.592  13.366  64.315  0.00  0.00    -0.071 C 
ATOM     40  H16 non d ame     -11.130  14.146  63.778  0.00  0.00     0.028 H 
ATOM     41  H17 non d ame     -10.894  13.371  65.363  0.00  0.00     0.028 H 
ATOM     42  H18 non d ame      -9.520  13.549  64.245  0.00  0.00     0.028 H 
ENDBRANCH  33  39
ENDBRANCH   7  33
ENDBRANCH   4   7
ENDBRANCH   1   3
BRANCH   1  43
ATOM     43  C15 non d ame      -8.293   6.374  64.066  0.00  0.00     0.240 C 
ATOM     44  O5  non d ame      -8.427   5.564  63.208  0.00  0.00    -0.271 OA
ATOM     45  N6  non d ame      -8.417   5.968  65.495  0.00  0.00    -0.355 N 
ATOM     46  H46 non d ame      -8.301   6.647  66.234  0.00  0.00     0.162 HD
BRANCH  45  47
ATOM     47  C20 non d ame      -8.714   4.559  65.833  0.00  0.00     0.013 C 
ATOM     48  H30 non d ame      -8.628   3.970  64.920  0.00  0.00     0.072 H 
BRANCH  47  49
ATOM     49  C21 non d ame     -10.120   4.462  66.380  0.00  0.00    -0.038 C 
ATOM     50  H31 non d ame     -10.727   4.070  65.564  0.00  0.00     0.036 H 
ATOM     51  H32 non d ame     -10.035   3.905  67.314  0.00  0.00     0.036 H 
BRANCH  49  52
ATOM     52  C22 non d ame     -10.717   5.838  66.746  0.00  0.00     0.018 C 
ATOM     53  H33 non d ame     -10.162   6.568  66.156  0.00  0.00     0.048 H 
ATOM     54  H34 non d ame     -11.795   5.737  66.615  0.00  0.00     0.048 H 
BRANCH  52  55
ATOM     55  C23 non d ame     -10.503   6.238  68.233  0.00  0.00     0.259 C 
ATOM     56  O7  non d ame      -9.431   6.577  68.618  0.00  0.00    -0.265 OA
BRANCH  55  57
ATOM     57  O8  non d ame     -11.602   6.183  69.134  0.00  0.00    -0.317 OA
BRANCH  57  58
ATOM     58  C29 non d ame     -11.244   6.398  70.502  0.00  0.00     0.052 C 
ATOM     59  H47 non d ame     -11.646   5.545  71.049  0.00  0.00     0.082 H 
ATOM     60  H48 non d ame     -10.171   6.587  70.500  0.00  0.00     0.082 H 
BRANCH  58  61
ATOM     61  C35 non d ame     -11.967   7.681  70.991  0.00  0.00    -0.034 A 
ATOM     62  C30 non d ame     -13.151   7.580  71.715  0.00  0.00    -0.075 A 
ATOM     63  C31 non d ame     -13.801   8.732  72.154  0.00  0.00    -0.082 A 
ATOM     64  H49 non d ame     -13.570   6.598  71.938  0.00  0.00     0.084 H 
ATOM     65  C32 non d ame     -13.264   9.990  71.865  0.00  0.00    -0.083 A 
ATOM     66  H50 non d ame     -14.728   8.650  72.723  0.00  0.00     0.083 H 
ATOM     67  C33 non d ame     -12.084  10.085  71.140  0.00  0.00    -0.082 A 
ATOM     68  H51 non d ame     -13.766  10.896  72.205  0.00  0.00     0.083 H 
ATOM     69  C34 non d ame     -11.430   8.936  70.701  0.00  0.00    -0.075 A 
ATOM     70  H52 non d ame     -11.669  11.068  70.914  0.00  0.00     0.083 H 
ATOM     71  H53 non d ame     -10.503   9.019  70.133  0.00  0.00     0.084 H 
ENDBRANCH  58  61
ENDBRANCH  57  58
ENDBRANCH  55  57
ENDBRANCH  52  55
ENDBRANCH  49  52
ENDBRANCH  47  49
BRANCH  47  72
ATOM     72  C24 non d ame      -7.723   4.060  66.882  0.00  0.00    -0.039 C 
ATOM     73  H35 non d ame      -7.968   4.603  67.795  0.00  0.00     0.036 H 
ATOM     74  H36 non d ame      -7.798   2.973  66.859  0.00  0.00     0.036 H 
BRANCH  72  75
ATOM     75  C25 non d ame      -6.214   4.437  66.499  0.00  0.00    -0.001 C 
ATOM     76  C26 non d ame      -5.263   3.098  66.582  0.00  0.00    -0.035 C 
ATOM     77  C27 non d ame      -4.181   3.377  67.347  0.00  0.00     0.085 C 
ATOM     78  H38 non d ame      -5.773   2.312  67.138  0.00  0.00     0.036 H 
ATOM     79  H39 non d ame      -4.835   2.883  65.603  0.00  0.00     0.036 H 
ATOM     80  N5  non d ame      -4.468   4.676  68.061  0.00  0.00    -0.049 N 
ATOM     81  H40 non d ame      -4.128   2.572  68.081  0.00  0.00     0.075 H 
ATOM     82  H41 non d ame      -3.361   3.531  66.646  0.00  0.00     0.075 H 
ATOM     83  C28 non d ame      -5.736   5.328  67.303  0.00  0.00     0.193 C 
ATOM     84  H42 non d ame      -4.746   4.431  69.000  0.00  0.00     0.280 HD
ATOM     85  H43 non d ame      -3.665   5.269  67.910  0.00  0.00     0.280 HD
ATOM     86  H44 non d ame      -5.601   6.163  66.616  0.00  0.00     0.129 H 
ATOM     87  H37 non d ame      -6.156   5.032  65.587  0.00  0.00     0.046 H 
BRANCH  83  88
ATOM     88  O6  non d ame      -6.705   5.770  68.255  0.00  0.00    -0.369 OA
ATOM     89  H45 non d ame      -6.979   5.029  68.800  0.00  0.00     0.212 HD
ENDBRANCH  83  88
ENDBRANCH  72  75
ENDBRANCH  47  72
ENDBRANCH  45  47
ENDBRANCH   1  43
BRANCH   1  90
ATOM     90  C16 non d ame      -6.542   8.178  64.063  0.00  0.00    -0.035 C 
ATOM     91  H21 non d ame      -6.474   9.266  64.027  0.00  0.00     0.037 H 
ATOM     92  H22 non d ame      -6.358   7.652  65.000  0.00  0.00     0.037 H 
BRANCH  90  93
ATOM     93  C17 non d ame      -5.493   7.637  63.040  0.00  0.00    -0.059 C 
ATOM     94  H23 non d ame      -6.005   7.489  62.089  0.00  0.00     0.038 H 
BRANCH  93  95
ATOM     95  C18 non d ame      -4.326   8.648  62.801  0.00  0.00    -0.073 C 
ATOM     96  H24 non d ame      -3.753   8.340  61.927  0.00  0.00     0.028 H 
ATOM     97  H25 non d ame      -4.737   9.644  62.634  0.00  0.00     0.028 H 
ATOM     98  H26 non d ame      -3.676   8.666  63.676  0.00  0.00     0.028 H 
ENDBRANCH  93  95
BRANCH  93  99
ATOM     99  C19 non d ame      -4.951   6.275  63.481  0.00  0.00    -0.073 C 
ATOM    100  H27 non d ame      -5.780   5.636  63.788  0.00  0.00     0.028 H 
ATOM    101  H28 non d ame      -4.421   5.809  62.650  0.00  0.00     0.028 H 
ATOM    102  H29 non d ame      -4.267   6.410  64.319  0.00  0.00     0.028 H 
ENDBRANCH  93  99
ENDBRANCH  90  93
ENDBRANCH   1  90
TORSDOF 26
ENDMDL
MODEL 2
REMARK VINA RESULT:      -6.8      3.594      8.442
REMARK  26 active torsions:
REMARK  status: ('A' for Active; 'I' for Inactive)
REMARK    1  A    between atoms: C2_2  and  C3_3 
REMARK    2  A    between atoms: C4_6  and  C5_7 
REMARK       I    between atoms: C5_7  and  N2_9 
REMARK    3  A    between atoms: N2_9  and  C6_10 
REMARK    4  A    between atoms: C6_10  and  C7_11 
REMARK    5  A    between atoms: C6_10  and  C8_13 
REMARK       I    between atoms: C7_11  and  N3_14 
REMARK    6  A    between atoms: N3_14  and  C9_15 
REMARK    7  A    between atoms: C9_15  and  C10_16 
REMARK    8  A    between atoms: C9_15  and  C11_18 
REMARK       I    between atoms: C10_16  and  N4_21 
REMARK    9  A    between atoms: C11_18  and  C12_19 
REMARK   10  A    between atoms: C11_18  and  C13_20 
REMARK   11  A    between atoms: N4_21  and  C14_22 
REMARK   12  A    between atoms: C14_22  and  C15_23 
REMARK   13  A    between atoms: C14_22  and  C16_25 
REMARK       I    between atoms: C15_23  and  N6_40 
REMARK   14  A    between atoms: C16_25  and  C17_26 
REMARK   15  A    between atoms: C17_26  and  C18_27 
REMARK   16  A    between atoms: C17_26  and  C19_28 
REMARK   17  A    between atoms: C20_29  and  C21_30 
REMARK   18  A    between atoms: C20_29  and  C24_33 
REMARK   19  A    between atoms: C20_29  and  N6_40 
REMARK   20  A    between atoms: C21_30  and  C22_31 
REMARK   21  A    between atoms: C22_31  and  C23_32 
REMARK   22  A    between atoms: C23_32  and  O8_43 
REMARK   23  A    between atoms: C24_33  and  C25_34 
REMARK   24  A    between atoms: C28_38  and  O6_39 
REMARK   25  A    between atoms: C29_42  and  O8_43 
REMARK   26  A    between atoms: C29_42  and  C35_49 
ROOT
ATOM      1  C14 non d ame      -6.659  15.842  67.847  0.00  0.00     0.089 C 
ATOM      2  H20 non d ame      -5.999  16.299  67.109  0.00  0.00     0.087 H 
ENDROOT
BRANCH   1   3
ATOM      3  N4  non d ame      -8.028  16.037  67.393  0.00  0.00    -0.346 N 
ATOM      4  C10 non d ame      -8.359  17.151  66.431  0.00  0.00     0.241 C 
ATOM      5  O4  non d ame      -7.508  17.879  66.039  0.00  0.00    -0.271 OA
ATOM      6  H19 non d ame      -8.738  15.408  67.740  0.00  0.00     0.163 HD
BRANCH   4   7
ATOM      7  C9  non d ame      -9.780  17.335  65.967  0.00  0.00     0.092 C 
ATOM      8  H11 non d ame      -9.778  17.822  64.992  0.00  0.00     0.088 H 
BRANCH   7   9
ATOM      9  N3  non d ame     -10.412  16.023  65.794  0.00  0.00    -0.346 N 
ATOM     10  C7  non d ame     -11.301  15.793  64.682  0.00  0.00     0.240 C 
ATOM     11  O3  non d ame     -11.519  16.651  63.917  0.00  0.00    -0.271 OA
ATOM     12  H10 non d ame     -10.234  15.273  66.447  0.00  0.00     0.163 HD
BRANCH  10  13
ATOM     13  C6  non d ame     -11.973  14.396  64.505  0.00  0.00     0.086 C 
ATOM     14  H6  non d ame     -12.586  14.333  63.606  0.00  0.00     0.086 H 
BRANCH  13  15
ATOM     15  N2  non d ame     -10.935  13.387  64.371  0.00  0.00    -0.343 N 
ATOM     16  C5  non d ame     -11.213  12.162  63.617  0.00  0.00     0.273 C 
ATOM     17  O2  non d ame     -12.274  11.997  63.124  0.00  0.00    -0.266 OA
ATOM     18  H5  non d ame     -10.031  13.535  64.797  0.00  0.00     0.163 HD
BRANCH  16  19
ATOM     19  C4  non d ame     -10.124  11.088  63.466  0.00  0.00     0.154 A 
ATOM     20  C1  non d ame      -9.038  11.083  62.534  0.00  0.00    -0.017 A 
ATOM     21  C2  non d ame      -8.334   9.887  62.803  0.00  0.00     0.077 A 
ATOM     22  H1  non d ame      -8.797  11.831  61.779  0.00  0.00     0.091 H 
ATOM     23  O1  non d ame      -8.951   9.286  63.778  0.00  0.00    -0.218 OA
ATOM     24  N1  non d ame      -9.999   9.967  64.181  0.00  0.00    -0.123 NA
BRANCH  21  25
ATOM     25  C3  non d ame      -7.084   9.396  62.086  0.00  0.00    -0.029 C 
ATOM     26  H2  non d ame      -6.924   8.342  62.315  0.00  0.00     0.036 H 
ATOM     27  H3  non d ame      -7.211   9.519  61.010  0.00  0.00     0.036 H 
ATOM     28  H4  non d ame      -6.222   9.976  62.418  0.00  0.00     0.036 H 
ENDBRANCH  21  25
ENDBRANCH  16  19
ENDBRANCH  13  15
BRANCH  13  29
ATOM     29  C8  non d ame     -12.834  14.094  65.705  0.00  0.00    -0.049 C 
ATOM     30  H7  non d ame     -12.596  13.100  66.083  0.00  0.00     0.030 H 
ATOM     31  H8  non d ame     -12.646  14.834  66.482  0.00  0.00     0.030 H 
ATOM     32  H9  non d ame     -13.884  14.129  65.415  0.00  0.00     0.030 H 
ENDBRANCH  13  29
ENDBRANCH  10  13
ENDBRANCH   7   9
BRANCH   7  33
ATOM     33  C11 non d ame     -10.571  18.153  67.029  0.00  0.00    -0.033 C 
ATOM     34  H12 non d ame     -11.621  17.876  66.942  0.00  0.00     0.042 H 
BRANCH  33  35
ATOM     35  C12 non d ame     -10.111  17.799  68.478  0.00  0.00    -0.071 C 
ATOM     36  H13 non d ame      -9.833  16.745  68.523  0.00  0.00     0.028 H 
ATOM     37  H14 non d ame      -9.251  18.412  68.745  0.00  0.00     0.028 H 
ATOM     38  H15 non d ame     -10.926  17.990  69.175  0.00  0.00     0.028 H 
ENDBRANCH  33  35
BRANCH  33  39
ATOM     39  C13 non d ame     -10.452  19.687  66.756  0.00  0.00    -0.071 C 
ATOM     40  H16 non d ame     -10.436  19.864  65.681  0.00  0.00     0.028 H 
ATOM     41  H17 non d ame     -11.306  20.202  67.197  0.00  0.00     0.028 H 
ATOM     42  H18 non d ame      -9.531  20.064  67.201  0.00  0.00     0.028 H 
ENDBRANCH  33  39
ENDBRANCH   7  33
ENDBRANCH   4   7
ENDBRANCH   1   3
BRANCH   1  43
ATOM     43  C15 non d ame      -6.401  14.315  68.000  0.00  0.00     0.240 C 
ATOM     44  O5  non d ame      -5.705  13.918  68.878  0.00  0.00    -0.271 OA
ATOM     45  N6  non d ame      -7.029  13.347  67.056  0.00  0.00    -0.355 N 
ATOM     46  H46 non d ame      -7.626  13.672  66.310  0.00  0.00     0.162 HD
BRANCH  45  47
ATOM     47  C20 non d ame      -6.775  11.899  67.216  0.00  0.00     0.013 C 
ATOM     48  H30 non d ame      -6.685  11.689  68.282  0.00  0.00     0.072 H 
BRANCH  47  49
ATOM     49  C21 non d ame      -5.490  11.536  66.507  0.00  0.00    -0.038 C 
ATOM     50  H31 non d ame      -5.198  12.427  65.951  0.00  0.00     0.036 H 
ATOM     51  H32 non d ame      -4.832  11.135  67.278  0.00  0.00     0.036 H 
BRANCH  49  52
ATOM     52  C22 non d ame      -5.677  10.412  65.465  0.00  0.00     0.018 C 
ATOM     53  H33 non d ame      -6.686  10.030  65.620  0.00  0.00     0.048 H 
ATOM     54  H34 non d ame      -5.402  10.851  64.505  0.00  0.00     0.048 H 
BRANCH  52  55
ATOM     55  C23 non d ame      -4.724   9.202  65.670  0.00  0.00     0.259 C 
ATOM     56  O7  non d ame      -3.823   9.268  66.442  0.00  0.00    -0.265 OA
BRANCH  55  57
ATOM     57  O8  non d ame      -4.934   8.014  64.916  0.00  0.00    -0.317 OA
BRANCH  57  58
ATOM     58  C29 non d ame      -5.457   6.924  65.679  0.00  0.00     0.052 C 
ATOM     59  H47 non d ame      -4.644   6.203  65.759  0.00  0.00     0.082 H 
ATOM     60  H48 non d ame      -5.880   7.370  66.579  0.00  0.00     0.082 H 
BRANCH  58  61
ATOM     61  C35 non d ame      -6.608   6.277  64.864  0.00  0.00    -0.034 A 
ATOM     62  C30 non d ame      -6.563   6.277  63.474  0.00  0.00    -0.075 A 
ATOM     63  C31 non d ame      -7.597   5.697  62.741  0.00  0.00    -0.082 A 
ATOM     64  H49 non d ame      -5.717   6.731  62.958  0.00  0.00     0.084 H 
ATOM     65  C32 non d ame      -8.682   5.117  63.405  0.00  0.00    -0.083 A 
ATOM     66  H50 non d ame      -7.558   5.696  61.652  0.00  0.00     0.083 H 
ATOM     67  C33 non d ame      -8.725   5.123  64.792  0.00  0.00    -0.082 A 
ATOM     68  H51 non d ame      -9.495   4.661  62.840  0.00  0.00     0.083 H 
ATOM     69  C34 non d ame      -7.692   5.700  65.528  0.00  0.00    -0.075 A 
ATOM     70  H52 non d ame      -9.574   4.672  65.307  0.00  0.00     0.083 H 
ATOM     71  H53 non d ame      -7.732   5.699  66.618  0.00  0.00     0.084 H 
ENDBRANCH  58  61
ENDBRANCH  57  58
ENDBRANCH  55  57
ENDBRANCH  52  55
ENDBRANCH  49  52
ENDBRANCH  47  49
BRANCH  47  72
ATOM     72  C24 non d ame      -7.931  11.102  66.615  0.00  0.00    -0.039 C 
ATOM     73  H35 non d ame      -8.618  11.847  66.211  0.00  0.00     0.036 H 
ATOM     74  H36 non d ame      -7.467  10.373  65.951  0.00  0.00     0.036 H 
BRANCH  72  75
ATOM     75  C25 non d ame      -8.731  10.281  67.734  0.00  0.00    -0.001 C 
ATOM     76  C26 non d ame      -8.680   8.673  67.393  0.00  0.00    -0.035 C 
ATOM     77  C27 non d ame      -9.941   8.181  67.422  0.00  0.00     0.085 C 
ATOM     78  H38 non d ame      -8.370   8.521  66.359  0.00  0.00     0.036 H 
ATOM     79  H39 non d ame      -8.177   8.136  68.197  0.00  0.00     0.036 H 
ATOM     80  N5  non d ame     -10.877   9.365  67.429  0.00  0.00    -0.049 N 
ATOM     81  H40 non d ame     -10.063   7.637  66.485  0.00  0.00     0.075 H 
ATOM     82  H41 non d ame     -10.026   7.656  68.373  0.00  0.00     0.075 H 
ATOM     83  C28 non d ame      -9.967  10.649  67.790  0.00  0.00     0.193 C 
ATOM     84  H42 non d ame     -11.217   9.467  66.483  0.00  0.00     0.280 HD
ATOM     85  H43 non d ame     -11.529   9.211  68.185  0.00  0.00     0.280 HD
ATOM     86  H44 non d ame      -9.999  11.087  68.788  0.00  0.00     0.129 H 
ATOM     87  H37 non d ame      -8.453  10.583  68.745  0.00  0.00     0.046 H 
BRANCH  83  88
ATOM     88  O6  non d ame     -10.251  11.723  66.892  0.00  0.00    -0.369 OA
ATOM     89  H45 non d ame     -10.829  12.356  67.324  0.00  0.00     0.212 HD
ENDBRANCH  83  88
ENDBRANCH  72  75
ENDBRANCH  47  72
ENDBRANCH  45  47
ENDBRANCH   1  43
BRANCH   1  90
ATOM     90  C16 non d ame      -6.480  16.527  69.192  0.00  0.00    -0.035 C 
ATOM     91  H21 non d ame      -7.489  16.762  69.533  0.00  0.00     0.037 H 
ATOM     92  H22 non d ame      -5.851  15.856  69.777  0.00  0.00     0.037 H 
BRANCH  90  93
ATOM     93  C17 non d ame      -5.716  17.887  69.106  0.00  0.00    -0.059 C 
ATOM     94  H23 non d ame      -5.233  17.934  68.130  0.00  0.00     0.038 H 
BRANCH  93  95
ATOM     95  C18 non d ame      -6.678  19.112  69.221  0.00  0.00    -0.073 C 
ATOM     96  H24 non d ame      -6.501  19.792  68.388  0.00  0.00     0.028 H 
ATOM     97  H25 non d ame      -7.712  18.766  69.195  0.00  0.00     0.028 H 
ATOM     98  H26 non d ame      -6.493  19.632  70.161  0.00  0.00     0.028 H 
ENDBRANCH  93  95
BRANCH  93  99
ATOM     99  C19 non d ame      -4.611  17.961  70.163  0.00  0.00    -0.073 C 
ATOM    100  H27 non d ame      -5.035  18.302  71.108  0.00  0.00     0.028 H 
ATOM    101  H28 non d ame      -4.171  16.972  70.298  0.00  0.00     0.028 H 
ATOM    102  H29 non d ame      -3.842  18.660  69.836  0.00  0.00     0.028 H 
ENDBRANCH  93  99
ENDBRANCH  90  93
ENDBRANCH   1  90
TORSDOF 26
ENDMDL
MODEL 3
REMARK VINA RESULT:      -6.6      3.781      7.825
REMARK  26 active torsions:
REMARK  status: ('A' for Active; 'I' for Inactive)
REMARK    1  A    between atoms: C2_2  and  C3_3 
REMARK    2  A    between atoms: C4_6  and  C5_7 
REMARK       I    between atoms: C5_7  and  N2_9 
REMARK    3  A    between atoms: N2_9  and  C6_10 
REMARK    4  A    between atoms: C6_10  and  C7_11 
REMARK    5  A    between atoms: C6_10  and  C8_13 
REMARK       I    between atoms: C7_11  and  N3_14 
REMARK    6  A    between atoms: N3_14  and  C9_15 
REMARK    7  A    between atoms: C9_15  and  C10_16 
REMARK    8  A    between atoms: C9_15  and  C11_18 
REMARK       I    between atoms: C10_16  and  N4_21 
REMARK    9  A    between atoms: C11_18  and  C12_19 
REMARK   10  A    between atoms: C11_18  and  C13_20 
REMARK   11  A    between atoms: N4_21  and  C14_22 
REMARK   12  A    between atoms: C14_22  and  C15_23 
REMARK   13  A    between atoms: C14_22  and  C16_25 
REMARK       I    between atoms: C15_23  and  N6_40 
REMARK   14  A    between atoms: C16_25  and  C17_26 
REMARK   15  A    between atoms: C17_26  and  C18_27 
REMARK   16  A    between atoms: C17_26  and  C19_28 
REMARK   17  A    between atoms: C20_29  and  C21_30 
REMARK   18  A    between atoms: C20_29  and  C24_33 
REMARK   19  A    between atoms: C20_29  and  N6_40 
REMARK   20  A    between atoms: C21_30  and  C22_31 
REMARK   21  A    between atoms: C22_31  and  C23_32 
REMARK   22  A    between atoms: C23_32  and  O8_43 
REMARK   23  A    between atoms: C24_33  and  C25_34 
REMARK   24  A    between atoms: C28_38  and  O6_39 
REMARK   25  A    between atoms: C29_42  and  O8_43 
REMARK   26  A    between atoms: C29_42  and  C35_49 
ROOT
ATOM      1  C14 non d ame      -6.508  16.305  67.776  0.00  0.00     0.089 C 
ATOM      2  H20 non d ame      -5.941  16.906  67.065  0.00  0.00     0.087 H 
ENDROOT
BRANCH   1   3
ATOM      3  N4  non d ame      -7.917  16.433  67.434  0.00  0.00    -0.346 N 
ATOM      4  C10 non d ame      -8.344  17.307  66.281  0.00  0.00     0.241 C 
ATOM      5  O4  non d ame      -7.536  17.899  65.646  0.00  0.00    -0.271 OA
ATOM      6  H19 non d ame      -8.589  15.922  67.988  0.00  0.00     0.163 HD
BRANCH   4   7
ATOM      7  C9  non d ame      -9.806  17.423  65.937  0.00  0.00     0.092 C 
ATOM      8  H11 non d ame      -9.908  17.912  64.968  0.00  0.00     0.088 H 
BRANCH   7   9
ATOM      9  N3  non d ame     -10.387  16.083  65.810  0.00  0.00    -0.346 N 
ATOM     10  C7  non d ame     -11.298  15.793  64.731  0.00  0.00     0.240 C 
ATOM     11  O3  non d ame     -11.576  16.626  63.957  0.00  0.00    -0.271 OA
ATOM     12  H10 non d ame     -10.158  15.355  66.471  0.00  0.00     0.163 HD
BRANCH  10  13
ATOM     13  C6  non d ame     -11.916  14.366  64.602  0.00  0.00     0.086 C 
ATOM     14  H6  non d ame     -12.576  14.268  63.741  0.00  0.00     0.086 H 
BRANCH  13  15
ATOM     15  N2  non d ame     -10.843  13.403  64.416  0.00  0.00    -0.343 N 
ATOM     16  C5  non d ame     -11.108  12.159  63.689  0.00  0.00     0.273 C 
ATOM     17  O2  non d ame     -12.188  11.942  63.261  0.00  0.00    -0.266 OA
ATOM     18  H5  non d ame      -9.924  13.596  64.788  0.00  0.00     0.163 HD
BRANCH  16  19
ATOM     19  C4  non d ame      -9.983  11.133  63.484  0.00  0.00     0.154 A 
ATOM     20  C1  non d ame      -8.987  11.136  62.457  0.00  0.00    -0.017 A 
ATOM     21  C2  non d ame      -8.200   9.991  62.710  0.00  0.00     0.077 A 
ATOM     22  H1  non d ame      -8.855  11.859  61.651  0.00  0.00     0.091 H 
ATOM     23  O1  non d ame      -8.693   9.407  63.762  0.00  0.00    -0.218 OA
ATOM     24  N1  non d ame      -9.735  10.054  64.232  0.00  0.00    -0.123 NA
BRANCH  21  25
ATOM     25  C3  non d ame      -6.995   9.527  61.901  0.00  0.00    -0.029 C 
ATOM     26  H2  non d ame      -6.165  10.217  62.057  0.00  0.00     0.036 H 
ATOM     27  H3  non d ame      -6.704   8.528  62.224  0.00  0.00     0.036 H 
ATOM     28  H4  non d ame      -7.255   9.505  60.842  0.00  0.00     0.036 H 
ENDBRANCH  21  25
ENDBRANCH  16  19
ENDBRANCH  13  15
BRANCH  13  29
ATOM     29  C8  non d ame     -12.694  14.037  65.851  0.00  0.00    -0.049 C 
ATOM     30  H7  non d ame     -12.127  13.331  66.457  0.00  0.00     0.030 H 
ATOM     31  H8  non d ame     -12.866  14.950  66.422  0.00  0.00     0.030 H 
ATOM     32  H9  non d ame     -13.651  13.594  65.577  0.00  0.00     0.030 H 
ENDBRANCH  13  29
ENDBRANCH  10  13
ENDBRANCH   7   9
BRANCH   7  33
ATOM     33  C11 non d ame     -10.544  18.201  67.066  0.00  0.00    -0.033 C 
ATOM     34  H12 non d ame     -11.581  18.325  66.756  0.00  0.00     0.042 H 
BRANCH  33  35
ATOM     35  C12 non d ame     -10.547  17.395  68.402  0.00  0.00    -0.071 C 
ATOM     36  H13 non d ame     -10.220  16.372  68.211  0.00  0.00     0.028 H 
ATOM     37  H14 non d ame      -9.868  17.866  69.112  0.00  0.00     0.028 H 
ATOM     38  H15 non d ame     -11.555  17.382  68.816  0.00  0.00     0.028 H 
ENDBRANCH  33  35
BRANCH  33  39
ATOM     39  C13 non d ame      -9.925  19.622  67.263  0.00  0.00    -0.071 C 
ATOM     40  H16 non d ame      -9.281  19.619  68.142  0.00  0.00     0.028 H 
ATOM     41  H17 non d ame      -9.338  19.888  66.384  0.00  0.00     0.028 H 
ATOM     42  H18 non d ame     -10.725  20.350  67.401  0.00  0.00     0.028 H 
ENDBRANCH  33  39
ENDBRANCH   7  33
ENDBRANCH   4   7
ENDBRANCH   1   3
BRANCH   1  43
ATOM     43  C15 non d ame      -6.119  14.800  67.715  0.00  0.00     0.240 C 
ATOM     44  O5  non d ame      -4.979  14.489  67.587  0.00  0.00    -0.271 OA
ATOM     45  N6  non d ame      -7.167  13.745  67.824  0.00  0.00    -0.355 N 
ATOM     46  H46 non d ame      -8.138  13.997  67.937  0.00  0.00     0.162 HD
BRANCH  45  47
ATOM     47  C20 non d ame      -6.780  12.319  67.765  0.00  0.00     0.013 C 
ATOM     48  H30 non d ame      -5.790  12.258  67.314  0.00  0.00     0.072 H 
BRANCH  47  49
ATOM     49  C21 non d ame      -7.780  11.564  66.919  0.00  0.00    -0.038 C 
ATOM     50  H31 non d ame      -8.732  12.077  67.060  0.00  0.00     0.036 H 
ATOM     51  H32 non d ame      -7.337  11.501  65.925  0.00  0.00     0.036 H 
BRANCH  49  52
ATOM     52  C22 non d ame      -7.992  10.111  67.395  0.00  0.00     0.018 C 
ATOM     53  H33 non d ame      -7.834   9.486  66.516  0.00  0.00     0.048 H 
ATOM     54  H34 non d ame      -7.354   9.991  68.271  0.00  0.00     0.048 H 
BRANCH  52  55
ATOM     55  C23 non d ame      -9.440   9.814  67.876  0.00  0.00     0.259 C 
ATOM     56  O7  non d ame     -10.037   8.878  67.452  0.00  0.00    -0.265 OA
BRANCH  55  57
ATOM     57  O8  non d ame     -10.052  10.683  68.822  0.00  0.00    -0.317 OA
BRANCH  57  58
ATOM     58  C29 non d ame     -11.395  11.049  68.493  0.00  0.00     0.052 C 
ATOM     59  H47 non d ame     -11.313  11.771  67.680  0.00  0.00     0.082 H 
ATOM     60  H48 non d ame     -11.926  10.111  68.337  0.00  0.00     0.082 H 
BRANCH  58  61
ATOM     61  C35 non d ame     -12.012  11.764  69.724  0.00  0.00    -0.034 A 
ATOM     62  C30 non d ame     -11.970  13.151  69.818  0.00  0.00    -0.075 A 
ATOM     63  C31 non d ame     -12.524  13.794  70.924  0.00  0.00    -0.082 A 
ATOM     64  H49 non d ame     -11.504  13.735  69.024  0.00  0.00     0.084 H 
ATOM     65  C32 non d ame     -13.120  13.043  71.941  0.00  0.00    -0.083 A 
ATOM     66  H50 non d ame     -12.492  14.881  70.993  0.00  0.00     0.083 H 
ATOM     67  C33 non d ame     -13.156  11.658  71.845  0.00  0.00    -0.082 A 
ATOM     68  H51 non d ame     -13.556  13.537  72.809  0.00  0.00     0.083 H 
ATOM     69  C34 non d ame     -12.606  11.012  70.740  0.00  0.00    -0.075 A 
ATOM     70  H52 non d ame     -13.620  11.075  72.641  0.00  0.00     0.083 H 
ATOM     71  H53 non d ame     -12.639   9.925  70.671  0.00  0.00     0.084 H 
ENDBRANCH  58  61
ENDBRANCH  57  58
ENDBRANCH  55  57
ENDBRANCH  52  55
ENDBRANCH  49  52
ENDBRANCH  47  49
BRANCH  47  72
ATOM     72  C24 non d ame      -6.758  11.731  69.175  0.00  0.00    -0.039 C 
ATOM     73  H35 non d ame      -7.347  12.417  69.784  0.00  0.00     0.036 H 
ATOM     74  H36 non d ame      -7.073  10.694  69.061  0.00  0.00     0.036 H 
BRANCH  72  75
ATOM     75  C25 non d ame      -5.277  11.711  69.785  0.00  0.00    -0.001 C 
ATOM     76  C26 non d ame      -4.924  10.207  70.350  0.00  0.00    -0.035 C 
ATOM     77  C27 non d ame      -4.471  10.314  71.622  0.00  0.00     0.085 C 
ATOM     78  H38 non d ame      -5.838   9.623  70.453  0.00  0.00     0.036 H 
ATOM     79  H39 non d ame      -4.072   9.795  69.810  0.00  0.00     0.036 H 
ATOM     80  N5  non d ame      -4.790  11.714  72.088  0.00  0.00    -0.049 N 
ATOM     81  H40 non d ame      -5.061   9.603  72.202  0.00  0.00     0.075 H 
ATOM     82  H41 non d ame      -3.390  10.200  71.556  0.00  0.00     0.075 H 
ATOM     83  C28 non d ame      -5.161  12.551  70.758  0.00  0.00     0.193 C 
ATOM     84  H42 non d ame      -5.617  11.643  72.664  0.00  0.00     0.280 HD
ATOM     85  H43 non d ame      -3.936  12.088  72.476  0.00  0.00     0.280 HD
ATOM     86  H44 non d ame      -4.446  13.254  70.330  0.00  0.00     0.129 H 
ATOM     87  H37 non d ame      -4.549  12.173  69.118  0.00  0.00     0.046 H 
BRANCH  83  88
ATOM     88  O6  non d ame      -6.357  13.303  70.967  0.00  0.00    -0.369 OA
ATOM     89  H45 non d ame      -6.612  13.250  71.891  0.00  0.00     0.212 HD
ENDBRANCH  83  88
ENDBRANCH  72  75
ENDBRANCH  47  72
ENDBRANCH  45  47
ENDBRANCH   1  43
BRANCH   1  90
ATOM     90  C16 non d ame      -6.291  16.832  69.185  0.00  0.00    -0.035 C 
ATOM     91  H21 non d ame      -7.285  16.894  69.628  0.00  0.00     0.037 H 
ATOM     92  H22 non d ame      -5.539  16.177  69.626  0.00  0.00     0.037 H 
BRANCH  90  93
ATOM     93  C17 non d ame      -5.697  18.276  69.229  0.00  0.00    -0.059 C 
ATOM     94  H23 non d ame      -5.088  18.356  70.129  0.00  0.00     0.038 H 
BRANCH  93  95
ATOM     95  C18 non d ame      -4.777  18.573  68.002  0.00  0.00    -0.073 C 
ATOM     96  H24 non d ame      -3.818  18.074  68.139  0.00  0.00     0.028 H 
ATOM     97  H25 non d ame      -5.253  18.203  67.093  0.00  0.00     0.028 H 
ATOM     98  H26 non d ame      -4.619  19.648  67.918  0.00  0.00     0.028 H 
ENDBRANCH  93  95
BRANCH  93  99
ATOM     99  C19 non d ame      -6.811  19.321  69.340  0.00  0.00    -0.073 C 
ATOM    100  H27 non d ame      -7.764  18.867  69.069  0.00  0.00     0.028 H 
ATOM    101  H28 non d ame      -6.861  19.690  70.365  0.00  0.00     0.028 H 
ATOM    102  H29 non d ame      -6.599  20.150  68.665  0.00  0.00     0.028 H 
ENDBRANCH  93  99
ENDBRANCH  90  93
ENDBRANCH   1  90
TORSDOF 26
ENDMDL
MODEL 4
REMARK VINA RESULT:      -6.5      2.261      5.915
REMARK  26 active torsions:
REMARK  status: ('A' for Active; 'I' for Inactive)
REMARK    1  A    between atoms: C2_2  and  C3_3 
REMARK    2  A    between atoms: C4_6  and  C5_7 
REMARK       I    between atoms: C5_7  and  N2_9 
REMARK    3  A    between atoms: N2_9  and  C6_10 
REMARK    4  A    between atoms: C6_10  and  C7_11 
REMARK    5  A    between atoms: C6_10  and  C8_13 
REMARK       I    between atoms: C7_11  and  N3_14 
REMARK    6  A    between atoms: N3_14  and  C9_15 
REMARK    7  A    between atoms: C9_15  and  C10_16 
REMARK    8  A    between atoms: C9_15  and  C11_18 
REMARK       I    between atoms: C10_16  and  N4_21 
REMARK    9  A    between atoms: C11_18  and  C12_19 
REMARK   10  A    between atoms: C11_18  and  C13_20 
REMARK   11  A    between atoms: N4_21  and  C14_22 
REMARK   12  A    between atoms: C14_22  and  C15_23 
REMARK   13  A    between atoms: C14_22  and  C16_25 
REMARK       I    between atoms: C15_23  and  N6_40 
REMARK   14  A    between atoms: C16_25  and  C17_26 
REMARK   15  A    between atoms: C17_26  and  C18_27 
REMARK   16  A    between atoms: C17_26  and  C19_28 
REMARK   17  A    between atoms: C20_29  and  C21_30 
REMARK   18  A    between atoms: C20_29  and  C24_33 
REMARK   19  A    between atoms: C20_29  and  N6_40 
REMARK   20  A    between atoms: C21_30  and  C22_31 
REMARK   21  A    between atoms: C22_31  and  C23_32 
REMARK   22  A    between atoms: C23_32  and  O8_43 
REMARK   23  A    between atoms: C24_33  and  C25_34 
REMARK   24  A    between atoms: C28_38  and  O6_39 
REMARK   25  A    between atoms: C29_42  and  O8_43 
REMARK   26  A    between atoms: C29_42  and  C35_49 
ROOT
ATOM      1  C14 non d ame      -7.916   9.013  68.052  0.00  0.00     0.089 C 
ATOM      2  H20 non d ame      -7.670   8.204  67.364  0.00  0.00     0.087 H 
ENDROOT
BRANCH   1   3
ATOM      3  N4  non d ame      -8.647  10.021  67.299  0.00  0.00    -0.346 N 
ATOM      4  C10 non d ame      -9.765   9.617  66.371  0.00  0.00     0.241 C 
ATOM      5  O4  non d ame     -10.056   8.474  66.245  0.00  0.00    -0.271 OA
ATOM      6  H19 non d ame      -8.382  10.989  67.419  0.00  0.00     0.163 HD
BRANCH   4   7
ATOM      7  C9  non d ame     -10.515  10.675  65.604  0.00  0.00     0.092 C 
ATOM      8  H11 non d ame     -11.586  10.505  65.714  0.00  0.00     0.088 H 
BRANCH   7   9
ATOM      9  N3  non d ame     -10.224  11.993  66.177  0.00  0.00    -0.346 N 
ATOM     10  C7  non d ame     -11.212  12.658  66.990  0.00  0.00     0.240 C 
ATOM     11  O3  non d ame     -12.246  12.149  67.193  0.00  0.00    -0.271 OA
ATOM     12  H10 non d ame      -9.337  12.446  66.009  0.00  0.00     0.163 HD
BRANCH  10  13
ATOM     13  C6  non d ame     -10.898  14.062  67.594  0.00  0.00     0.086 C 
ATOM     14  H6  non d ame     -11.354  14.876  67.030  0.00  0.00     0.086 H 
BRANCH  13  15
ATOM     15  N2  non d ame     -11.445  14.130  68.939  0.00  0.00    -0.343 N 
ATOM     16  C5  non d ame     -11.887  15.420  69.474  0.00  0.00     0.273 C 
ATOM     17  O2  non d ame     -11.794  16.398  68.815  0.00  0.00    -0.266 OA
ATOM     18  H5  non d ame     -11.518  13.291  69.496  0.00  0.00     0.163 HD
BRANCH  16  19
ATOM     19  C4  non d ame     -12.469  15.507  70.893  0.00  0.00     0.154 A 
ATOM     20  C1  non d ame     -11.752  15.739  72.109  0.00  0.00    -0.017 A 
ATOM     21  C2  non d ame     -12.738  15.727  73.121  0.00  0.00     0.077 A 
ATOM     22  H1  non d ame     -10.681  15.892  72.238  0.00  0.00     0.091 H 
ATOM     23  O1  non d ame     -13.884  15.514  72.542  0.00  0.00    -0.218 OA
ATOM     24  N1  non d ame     -13.753  15.382  71.242  0.00  0.00    -0.123 NA
BRANCH  21  25
ATOM     25  C3  non d ame     -12.503  15.927  74.612  0.00  0.00    -0.029 C 
ATOM     26  H2  non d ame     -12.131  16.937  74.789  0.00  0.00     0.036 H 
ATOM     27  H3  non d ame     -13.441  15.786  75.150  0.00  0.00     0.036 H 
ATOM     28  H4  non d ame     -11.769  15.202  74.965  0.00  0.00     0.036 H 
ENDBRANCH  21  25
ENDBRANCH  16  19
ENDBRANCH  13  15
BRANCH  13  29
ATOM     29  C8  non d ame      -9.405  14.273  67.633  0.00  0.00    -0.049 C 
ATOM     30  H7  non d ame      -9.022  13.979  68.610  0.00  0.00     0.030 H 
ATOM     31  H8  non d ame      -8.932  13.668  66.860  0.00  0.00     0.030 H 
ATOM     32  H9  non d ame      -9.183  15.326  67.459  0.00  0.00     0.030 H 
ENDBRANCH  13  29
ENDBRANCH  10  13
ENDBRANCH   7   9
BRANCH   7  33
ATOM     33  C11 non d ame     -10.067  10.650  64.114  0.00  0.00    -0.033 C 
ATOM     34  H12 non d ame     -10.584   9.821  63.629  0.00  0.00     0.042 H 
BRANCH  33  35
ATOM     35  C12 non d ame     -10.482  11.959  63.373  0.00  0.00    -0.071 C 
ATOM     36  H13 non d ame     -11.129  12.552  64.020  0.00  0.00     0.028 H 
ATOM     37  H14 non d ame      -9.591  12.535  63.126  0.00  0.00     0.028 H 
ATOM     38  H15 non d ame     -11.017  11.705  62.458  0.00  0.00     0.028 H 
ENDBRANCH  33  35
BRANCH  33  39
ATOM     39  C13 non d ame      -8.530  10.395  63.995  0.00  0.00    -0.071 C 
ATOM     40  H16 non d ame      -8.187   9.832  64.863  0.00  0.00     0.028 H 
ATOM     41  H17 non d ame      -8.324   9.826  63.088  0.00  0.00     0.028 H 
ATOM     42  H18 non d ame      -8.007  11.350  63.951  0.00  0.00     0.028 H 
ENDBRANCH  33  39
ENDBRANCH   7  33
ENDBRANCH   4   7
ENDBRANCH   1   3
BRANCH   1  43
ATOM     43  C15 non d ame      -8.809   8.530  69.230  0.00  0.00     0.240 C 
ATOM     44  O5  non d ame      -8.942   9.217  70.191  0.00  0.00    -0.271 OA
ATOM     45  N6  non d ame      -9.506   7.214  69.157  0.00  0.00    -0.355 N 
ATOM     46  H46 non d ame      -9.405   6.624  68.344  0.00  0.00     0.162 HD
BRANCH  45  47
ATOM     47  C20 non d ame     -10.353   6.770  70.286  0.00  0.00     0.013 C 
ATOM     48  H30 non d ame      -9.788   6.915  71.206  0.00  0.00     0.072 H 
BRANCH  47  49
ATOM     49  C21 non d ame     -10.691   5.307  70.111  0.00  0.00    -0.038 C 
ATOM     50  H31 non d ame     -11.004   4.957  71.095  0.00  0.00     0.036 H 
ATOM     51  H32 non d ame     -11.384   5.263  69.271  0.00  0.00     0.036 H 
BRANCH  49  52
ATOM     52  C22 non d ame      -9.468   4.453  69.713  0.00  0.00     0.018 C 
ATOM     53  H33 non d ame      -8.598   5.094  69.862  0.00  0.00     0.048 H 
ATOM     54  H34 non d ame      -9.562   3.523  70.274  0.00  0.00     0.048 H 
BRANCH  52  55
ATOM     55  C23 non d ame      -9.448   4.048  68.213  0.00  0.00     0.259 C 
ATOM     56  O7  non d ame      -9.568   2.910  67.893  0.00  0.00    -0.265 OA
BRANCH  55  57
ATOM     57  O8  non d ame      -9.272   5.053  67.222  0.00  0.00    -0.317 OA
BRANCH  57  58
ATOM     58  C29 non d ame      -9.349   4.567  65.879  0.00  0.00     0.052 C 
ATOM     59  H47 non d ame      -9.288   3.481  65.954  0.00  0.00     0.082 H 
ATOM     60  H48 non d ame     -10.233   5.034  65.446  0.00  0.00     0.082 H 
BRANCH  58  61
ATOM     61  C35 non d ame      -8.099   5.077  65.113  0.00  0.00    -0.034 A 
ATOM     62  C30 non d ame      -8.233   5.598  63.830  0.00  0.00    -0.075 A 
ATOM     63  C31 non d ame      -7.110   6.056  63.142  0.00  0.00    -0.082 A 
ATOM     64  H49 non d ame      -9.217   5.648  63.364  0.00  0.00     0.084 H 
ATOM     65  C32 non d ame      -5.849   5.989  63.741  0.00  0.00    -0.083 A 
ATOM     66  H50 non d ame      -7.218   6.465  62.137  0.00  0.00     0.083 H 
ATOM     67  C33 non d ame      -5.720   5.465  65.020  0.00  0.00    -0.082 A 
ATOM     68  H51 non d ame      -4.966   6.345  63.210  0.00  0.00     0.083 H 
ATOM     69  C34 non d ame      -6.840   5.009  65.712  0.00  0.00    -0.075 A 
ATOM     70  H52 non d ame      -4.735   5.412  65.483  0.00  0.00     0.083 H 
ATOM     71  H53 non d ame      -6.730   4.600  66.717  0.00  0.00     0.084 H 
ENDBRANCH  58  61
ENDBRANCH  57  58
ENDBRANCH  55  57
ENDBRANCH  52  55
ENDBRANCH  49  52
ENDBRANCH  47  49
BRANCH  47  72
ATOM     72  C24 non d ame     -11.641   7.591  70.319  0.00  0.00    -0.039 C 
ATOM     73  H35 non d ame     -11.324   8.631  70.243  0.00  0.00     0.036 H 
ATOM     74  H36 non d ame     -12.280   7.158  69.549  0.00  0.00     0.036 H 
BRANCH  72  75
ATOM     75  C25 non d ame     -12.409   7.431  71.716  0.00  0.00    -0.001 C 
ATOM     76  C26 non d ame     -13.999   7.111  71.447  0.00  0.00    -0.035 C 
ATOM     77  C27 non d ame     -14.747   7.979  72.170  0.00  0.00     0.085 C 
ATOM     78  H38 non d ame     -14.259   7.348  70.416  0.00  0.00     0.036 H 
ATOM     79  H39 non d ame     -14.261   6.139  71.866  0.00  0.00     0.036 H 
ATOM     80  N5  non d ame     -13.819   9.069  72.649  0.00  0.00    -0.049 N 
ATOM     81  H40 non d ame     -15.461   8.406  71.465  0.00  0.00     0.075 H 
ATOM     82  H41 non d ame     -15.102   7.412  73.029  0.00  0.00     0.075 H 
ATOM     83  C28 non d ame     -12.322   8.509  72.423  0.00  0.00     0.193 C 
ATOM     84  H42 non d ame     -13.963   9.858  72.036  0.00  0.00     0.280 HD
ATOM     85  H43 non d ame     -13.979   9.165  73.642  0.00  0.00     0.280 HD
ATOM     86  H44 non d ame     -11.733   8.146  73.265  0.00  0.00     0.129 H 
ATOM     87  H37 non d ame     -11.880   6.773  72.405  0.00  0.00     0.046 H 
BRANCH  83  88
ATOM     88  O6  non d ame     -11.513   9.503  71.792  0.00  0.00    -0.369 OA
ATOM     89  H45 non d ame     -10.606   9.417  72.093  0.00  0.00     0.212 HD
ENDBRANCH  83  88
ENDBRANCH  72  75
ENDBRANCH  47  72
ENDBRANCH  45  47
ENDBRANCH   1  43
BRANCH   1  90
ATOM     90  C16 non d ame      -6.639   9.631  68.598  0.00  0.00    -0.035 C 
ATOM     91  H21 non d ame      -6.956  10.527  69.131  0.00  0.00     0.037 H 
ATOM     92  H22 non d ame      -6.136   8.827  69.136  0.00  0.00     0.037 H 
BRANCH  90  93
ATOM     93  C17 non d ame      -5.647  10.105  67.488  0.00  0.00    -0.059 C 
ATOM     94  H23 non d ame      -6.167  10.838  66.872  0.00  0.00     0.038 H 
BRANCH  93  95
ATOM     95  C18 non d ame      -4.381  10.797  68.085  0.00  0.00    -0.073 C 
ATOM     96  H24 non d ame      -3.607  10.860  67.321  0.00  0.00     0.028 H 
ATOM     97  H25 non d ame      -4.640  11.801  68.423  0.00  0.00     0.028 H 
ATOM     98  H26 non d ame      -4.012  10.213  68.929  0.00  0.00     0.028 H 
ENDBRANCH  93  95
BRANCH  93  99
ATOM     99  C19 non d ame      -5.253   8.942  66.574  0.00  0.00    -0.073 C 
ATOM    100  H27 non d ame      -5.481   9.199  65.539  0.00  0.00     0.028 H 
ATOM    101  H28 non d ame      -4.184   8.749  66.673  0.00  0.00     0.028 H 
ATOM    102  H29 non d ame      -5.810   8.050  66.859  0.00  0.00     0.028 H 
ENDBRANCH  93  99
ENDBRANCH  90  93
ENDBRANCH   1  90
TORSDOF 26
ENDMDL
MODEL 5
REMARK VINA RESULT:      -6.5      2.457      6.936
REMARK  26 active torsions:
REMARK  status: ('A' for Active; 'I' for Inactive)
REMARK    1  A    between atoms: C2_2  and  C3_3 
REMARK    2  A    between atoms: C4_6  and  C5_7 
REMARK       I    between atoms: C5_7  and  N2_9 
REMARK    3  A    between atoms: N2_9  and  C6_10 
REMARK    4  A    between atoms: C6_10  and  C7_11 
REMARK    5  A    between atoms: C6_10  and  C8_13 
REMARK       I    between atoms: C7_11  and  N3_14 
REMARK    6  A    between atoms: N3_14  and  C9_15 
REMARK    7  A    between atoms: C9_15  and  C10_16 
REMARK    8  A    between atoms: C9_15  and  C11_18 
REMARK       I    between atoms: C10_16  and  N4_21 
REMARK    9  A    between atoms: C11_18  and  C12_19 
REMARK   10  A    between atoms: C11_18  and  C13_20 
REMARK   11  A    between atoms: N4_21  and  C14_22 
REMARK   12  A    between atoms: C14_22  and  C15_23 
REMARK   13  A    between atoms: C14_22  and  C16_25 
REMARK       I    between atoms: C15_23  and  N6_40 
REMARK   14  A    between atoms: C16_25  and  C17_26 
REMARK   15  A    between atoms: C17_26  and  C18_27 
REMARK   16  A    between atoms: C17_26  and  C19_28 
REMARK   17  A    between atoms: C20_29  and  C21_30 
REMARK   18  A    between atoms: C20_29  and  C24_33 
REMARK   19  A    between atoms: C20_29  and  N6_40 
REMARK   20  A    between atoms: C21_30  and  C22_31 
REMARK   21  A    between atoms: C22_31  and  C23_32 
REMARK   22  A    between atoms: C23_32  and  O8_43 
REMARK   23  A    between atoms: C24_33  and  C25_34 
REMARK   24  A    between atoms: C28_38  and  O6_39 
REMARK   25  A    between atoms: C29_42  and  O8_43 
REMARK   26  A    between atoms: C29_42  and  C35_49 
ROOT
ATOM      1  C14 non d ame      -9.474  10.586  68.876  0.00  0.00     0.089 C 
ATOM      2  H20 non d ame      -8.535  10.086  69.116  0.00  0.00     0.087 H 
ENDROOT
BRANCH   1   3
ATOM      3  N4  non d ame      -9.194  12.008  68.752  0.00  0.00    -0.346 N 
ATOM      4  C10 non d ame      -7.893  12.480  68.152  0.00  0.00     0.241 C 
ATOM      5  O4  non d ame      -7.085  11.694  67.779  0.00  0.00    -0.271 OA
ATOM      6  H19 non d ame      -9.894  12.660  69.077  0.00  0.00     0.163 HD
BRANCH   4   7
ATOM      7  C9  non d ame      -7.623  13.956  68.026  0.00  0.00     0.092 C 
ATOM      8  H11 non d ame      -7.331  14.181  67.000  0.00  0.00     0.088 H 
BRANCH   7   9
ATOM      9  N3  non d ame      -8.854  14.704  68.299  0.00  0.00    -0.346 N 
ATOM     10  C7  non d ame      -9.368  15.629  67.319  0.00  0.00     0.240 C 
ATOM     11  O3  non d ame      -8.803  15.784  66.306  0.00  0.00    -0.271 OA
ATOM     12  H10 non d ame      -9.352  14.581  69.170  0.00  0.00     0.163 HD
BRANCH  10  13
ATOM     13  C6  non d ame     -10.677  16.424  67.617  0.00  0.00     0.086 C 
ATOM     14  H6  non d ame     -11.531  16.059  67.047  0.00  0.00     0.086 H 
BRANCH  13  15
ATOM     15  N2  non d ame     -11.016  16.264  69.022  0.00  0.00    -0.343 N 
ATOM     16  C5  non d ame     -11.801  15.103  69.447  0.00  0.00     0.273 C 
ATOM     17  O2  non d ame     -12.156  14.305  68.651  0.00  0.00    -0.266 OA
ATOM     18  H5  non d ame     -10.710  16.953  69.694  0.00  0.00     0.163 HD
BRANCH  16  19
ATOM     19  C4  non d ame     -12.165  14.921  70.929  0.00  0.00     0.154 A 
ATOM     20  C1  non d ame     -11.935  15.847  71.996  0.00  0.00    -0.017 A 
ATOM     21  C2  non d ame     -12.450  15.209  73.147  0.00  0.00     0.077 A 
ATOM     22  H1  non d ame     -11.467  16.830  71.943  0.00  0.00     0.091 H 
ATOM     23  O1  non d ame     -12.918  14.055  72.773  0.00  0.00    -0.218 OA
ATOM     24  N1  non d ame     -12.763  13.863  71.484  0.00  0.00    -0.123 NA
BRANCH  21  25
ATOM     25  C3  non d ame     -12.455  15.772  74.562  0.00  0.00    -0.029 C 
ATOM     26  H2  non d ame     -11.512  15.529  75.053  0.00  0.00     0.036 H 
ATOM     27  H3  non d ame     -12.576  16.854  74.522  0.00  0.00     0.036 H 
ATOM     28  H4  non d ame     -13.281  15.334  75.124  0.00  0.00     0.036 H 
ENDBRANCH  21  25
ENDBRANCH  16  19
ENDBRANCH  13  15
BRANCH  13  29
ATOM     29  C8  non d ame     -10.466  17.882  67.299  0.00  0.00    -0.049 C 
ATOM     30  H7  non d ame     -11.416  18.412  67.374  0.00  0.00     0.030 H 
ATOM     31  H8  non d ame      -9.755  18.309  68.006  0.00  0.00     0.030 H 
ATOM     32  H9  non d ame     -10.075  17.980  66.287  0.00  0.00     0.030 H 
ENDBRANCH  13  29
ENDBRANCH  10  13
ENDBRANCH   7   9
BRANCH   7  33
ATOM     33  C11 non d ame      -6.528  14.372  69.051  0.00  0.00    -0.033 C 
ATOM     34  H12 non d ame      -6.522  13.627  69.846  0.00  0.00     0.042 H 
BRANCH  33  35
ATOM     35  C12 non d ame      -5.110  14.375  68.399  0.00  0.00    -0.071 C 
ATOM     36  H13 non d ame      -4.386  13.963  69.103  0.00  0.00     0.028 H 
ATOM     37  H14 non d ame      -5.125  13.766  67.496  0.00  0.00     0.028 H 
ATOM     38  H15 non d ame      -4.830  15.396  68.145  0.00  0.00     0.028 H 
ENDBRANCH  33  35
BRANCH  33  39
ATOM     39  C13 non d ame      -6.860  15.758  69.692  0.00  0.00    -0.071 C 
ATOM     40  H16 non d ame      -6.075  16.472  69.441  0.00  0.00     0.028 H 
ATOM     41  H17 non d ame      -7.814  16.118  69.306  0.00  0.00     0.028 H 
ATOM     42  H18 non d ame      -6.922  15.652  70.775  0.00  0.00     0.028 H 
ENDBRANCH  33  39
ENDBRANCH   7  33
ENDBRANCH   4   7
ENDBRANCH   1   3
BRANCH   1  43
ATOM     43  C15 non d ame     -10.082  10.081  67.536  0.00  0.00     0.240 C 
ATOM     44  O5  non d ame     -11.144   9.548  67.532  0.00  0.00    -0.271 OA
ATOM     45  N6  non d ame      -9.343  10.271  66.255  0.00  0.00    -0.355 N 
ATOM     46  H46 non d ame      -8.442  10.727  66.245  0.00  0.00     0.162 HD
BRANCH  45  47
ATOM     47  C20 non d ame      -9.935   9.787  64.989  0.00  0.00     0.013 C 
ATOM     48  H30 non d ame     -10.567   8.930  65.220  0.00  0.00     0.072 H 
BRANCH  47  49
ATOM     49  C21 non d ame      -8.828   9.372  64.046  0.00  0.00    -0.038 C 
ATOM     50  H31 non d ame      -8.904   8.288  63.960  0.00  0.00     0.036 H 
ATOM     51  H32 non d ame      -8.944   9.999  63.162  0.00  0.00     0.036 H 
BRANCH  49  52
ATOM     52  C22 non d ame      -7.420   9.667  64.608  0.00  0.00     0.018 C 
ATOM     53  H33 non d ame      -7.019  10.472  63.992  0.00  0.00     0.048 H 
ATOM     54  H34 non d ame      -7.555   9.816  65.680  0.00  0.00     0.048 H 
BRANCH  52  55
ATOM     55  C23 non d ame      -6.427   8.481  64.463  0.00  0.00     0.259 C 
ATOM     56  O7  non d ame      -5.270   8.631  64.690  0.00  0.00    -0.265 OA
BRANCH  55  57
ATOM     57  O8  non d ame      -6.913   7.212  64.041  0.00  0.00    -0.317 OA
BRANCH  57  58
ATOM     58  C29 non d ame      -6.723   6.168  65.000  0.00  0.00     0.052 C 
ATOM     59  H47 non d ame      -6.423   5.291  64.426  0.00  0.00     0.082 H 
ATOM     60  H48 non d ame      -6.054   6.579  65.756  0.00  0.00     0.082 H 
BRANCH  58  61
ATOM     61  C35 non d ame      -8.093   5.874  65.666  0.00  0.00    -0.034 A 
ATOM     62  C30 non d ame      -8.889   4.836  65.194  0.00  0.00    -0.075 A 
ATOM     63  C31 non d ame     -10.121   4.572  65.791  0.00  0.00    -0.082 A 
ATOM     64  H49 non d ame      -8.548   4.229  64.355  0.00  0.00     0.084 H 
ATOM     65  C32 non d ame     -10.557   5.353  66.865  0.00  0.00    -0.083 A 
ATOM     66  H50 non d ame     -10.741   3.756  65.420  0.00  0.00     0.083 H 
ATOM     67  C33 non d ame      -9.760   6.390  67.331  0.00  0.00    -0.082 A 
ATOM     68  H51 non d ame     -11.518   5.153  67.339  0.00  0.00     0.083 H 
ATOM     69  C34 non d ame      -8.528   6.656  66.738  0.00  0.00    -0.075 A 
ATOM     70  H52 non d ame     -10.105   6.999  68.168  0.00  0.00     0.083 H 
ATOM     71  H53 non d ame      -7.908   7.472  67.111  0.00  0.00     0.084 H 
ENDBRANCH  58  61
ENDBRANCH  57  58
ENDBRANCH  55  57
ENDBRANCH  52  55
ENDBRANCH  49  52
ENDBRANCH  47  49
BRANCH  47  72
ATOM     72  C24 non d ame     -10.761  10.899  64.347  0.00  0.00    -0.039 C 
ATOM     73  H35 non d ame     -10.283  11.099  63.388  0.00  0.00     0.036 H 
ATOM     74  H36 non d ame     -11.793  10.549  64.379  0.00  0.00     0.036 H 
BRANCH  72  75
ATOM     75  C25 non d ame     -10.696  12.254  65.199  0.00  0.00    -0.001 C 
ATOM     76  C26 non d ame     -12.217  12.764  65.558  0.00  0.00    -0.035 C 
ATOM     77  C27 non d ame     -12.338  14.064  65.196  0.00  0.00     0.085 C 
ATOM     78  H38 non d ame     -12.941  12.255  64.923  0.00  0.00     0.036 H 
ATOM     79  H39 non d ame     -12.360  12.786  66.638  0.00  0.00     0.036 H 
ATOM     80  N5  non d ame     -11.148  14.393  64.328  0.00  0.00    -0.049 N 
ATOM     81  H40 non d ame     -13.244  14.116  64.592  0.00  0.00     0.075 H 
ATOM     82  H41 non d ame     -12.268  14.632  66.124  0.00  0.00     0.075 H 
ATOM     83  C28 non d ame     -10.094  13.190  64.544  0.00  0.00     0.193 C 
ATOM     84  H42 non d ame     -11.474  14.367  63.373  0.00  0.00     0.280 HD
ATOM     85  H43 non d ame     -10.747  15.242  64.701  0.00  0.00     0.280 HD
ATOM     86  H44 non d ame      -9.211  13.332  65.168  0.00  0.00     0.129 H 
ATOM     87  H37 non d ame      -9.987  12.188  66.025  0.00  0.00     0.046 H 
BRANCH  83  88
ATOM     88  O6  non d ame      -9.601  12.733  63.283  0.00  0.00    -0.369 OA
ATOM     89  H45 non d ame      -8.789  12.240  63.417  0.00  0.00     0.212 HD
ENDBRANCH  83  88
ENDBRANCH  72  75
ENDBRANCH  47  72
ENDBRANCH  45  47
ENDBRANCH   1  43
BRANCH   1  90
ATOM     90  C16 non d ame     -10.472  10.373  70.002  0.00  0.00    -0.035 C 
ATOM     91  H21 non d ame     -10.451  11.294  70.585  0.00  0.00     0.037 H 
ATOM     92  H22 non d ame     -11.395  10.058  69.514  0.00  0.00     0.037 H 
BRANCH  90  93
ATOM     93  C17 non d ame     -10.076   9.222  70.982  0.00  0.00    -0.059 C 
ATOM     94  H23 non d ame     -10.257   9.575  71.997  0.00  0.00     0.038 H 
BRANCH  93  95
ATOM     95  C18 non d ame     -10.940   7.939  70.763  0.00  0.00    -0.073 C 
ATOM     96  H24 non d ame     -10.303   7.129  70.407  0.00  0.00     0.028 H 
ATOM     97  H25 non d ame     -11.404   7.648  71.706  0.00  0.00     0.028 H 
ATOM     98  H26 non d ame     -11.715   8.144  70.024  0.00  0.00     0.028 H 
ENDBRANCH  93  95
BRANCH  93  99
ATOM     99  C19 non d ame      -8.584   8.900  70.872  0.00  0.00    -0.073 C 
ATOM    100  H27 non d ame      -8.405   8.311  69.972  0.00  0.00     0.028 H 
ATOM    101  H28 non d ame      -8.015   9.829  70.818  0.00  0.00     0.028 H 
ATOM    102  H29 non d ame      -8.269   8.332  71.747  0.00  0.00     0.028 H 
ENDBRANCH  93  99
ENDBRANCH  90  93
ENDBRANCH   1  90
TORSDOF 26
ENDMDL
MODEL 6
REMARK VINA RESULT:      -6.4      2.696      6.683
REMARK  26 active torsions:
REMARK  status: ('A' for Active; 'I' for Inactive)
REMARK    1  A    between atoms: C2_2  and  C3_3 
REMARK    2  A    between atoms: C4_6  and  C5_7 
REMARK       I    between atoms: C5_7  and  N2_9 
REMARK    3  A    between atoms: N2_9  and  C6_10 
REMARK    4  A    between atoms: C6_10  and  C7_11 
REMARK    5  A    between atoms: C6_10  and  C8_13 
REMARK       I    between atoms: C7_11  and  N3_14 
REMARK    6  A    between atoms: N3_14  and  C9_15 
REMARK    7  A    between atoms: C9_15  and  C10_16 
REMARK    8  A    between atoms: C9_15  and  C11_18 
REMARK       I    between atoms: C10_16  and  N4_21 
REMARK    9  A    between atoms: C11_18  and  C12_19 
REMARK   10  A    between atoms: C11_18  and  C13_20 
REMARK   11  A    between atoms: N4_21  and  C14_22 
REMARK   12  A    between atoms: C14_22  and  C15_23 
REMARK   13  A    between atoms: C14_22  and  C16_25 
REMARK       I    between atoms: C15_23  and  N6_40 
REMARK   14  A    between atoms: C16_25  and  C17_26 
REMARK   15  A    between atoms: C17_26  and  C18_27 
REMARK   16  A    between atoms: C17_26  and  C19_28 
REMARK   17  A    between atoms: C20_29  and  C21_30 
REMARK   18  A    between atoms: C20_29  and  C24_33 
REMARK   19  A    between atoms: C20_29  and  N6_40 
REMARK   20  A    between atoms: C21_30  and  C22_31 
REMARK   21  A    between atoms: C22_31  and  C23_32 
REMARK   22  A    between atoms: C23_32  and  O8_43 
REMARK   23  A    between atoms: C24_33  and  C25_34 
REMARK   24  A    between atoms: C28_38  and  O6_39 
REMARK   25  A    between atoms: C29_42  and  O8_43 
REMARK   26  A    between atoms: C29_42  and  C35_49 
ROOT
ATOM      1  C14 non d ame     -10.697  10.716  64.688  0.00  0.00     0.089 C 
ATOM      2  H20 non d ame     -11.510   9.990  64.697  0.00  0.00     0.087 H 
ENDROOT
BRANCH   1   3
ATOM      3  N4  non d ame     -10.188  10.821  66.047  0.00  0.00    -0.346 N 
ATOM      4  C10 non d ame     -10.169   9.614  66.949  0.00  0.00     0.241 C 
ATOM      5  O4  non d ame     -10.572   8.567  66.560  0.00  0.00    -0.271 OA
ATOM      6  H19 non d ame      -9.852  11.721  66.360  0.00  0.00     0.163 HD
BRANCH   4   7
ATOM      7  C9  non d ame      -9.634   9.740  68.352  0.00  0.00     0.092 C 
ATOM      8  H11 non d ame      -9.428  10.789  68.564  0.00  0.00     0.088 H 
BRANCH   7   9
ATOM      9  N3  non d ame     -10.654   9.297  69.306  0.00  0.00    -0.346 N 
ATOM     10  C7  non d ame     -11.456  10.270  70.007  0.00  0.00     0.240 C 
ATOM     11  O3  non d ame     -11.293  11.413  69.815  0.00  0.00    -0.271 OA
ATOM     12  H10 non d ame     -10.805   8.314  69.483  0.00  0.00     0.163 HD
BRANCH  10  13
ATOM     13  C6  non d ame     -12.539   9.792  71.024  0.00  0.00     0.086 C 
ATOM     14  H6  non d ame     -13.337   9.219  70.553  0.00  0.00     0.086 H 
BRANCH  13  15
ATOM     15  N2  non d ame     -11.915   8.911  71.998  0.00  0.00    -0.343 N 
ATOM     16  C5  non d ame     -11.973   7.461  71.800  0.00  0.00     0.273 C 
ATOM     17  O2  non d ame     -12.528   7.013  70.857  0.00  0.00    -0.266 OA
ATOM     18  H5  non d ame     -11.445   9.303  72.802  0.00  0.00     0.163 HD
BRANCH  16  19
ATOM     19  C4  non d ame     -11.317   6.518  72.821  0.00  0.00     0.154 A 
ATOM     20  C1  non d ame     -10.354   6.863  73.822  0.00  0.00    -0.017 A 
ATOM     21  C2  non d ame     -10.074   5.650  74.490  0.00  0.00     0.077 A 
ATOM     22  H1  non d ame      -9.925   7.843  74.032  0.00  0.00     0.091 H 
ATOM     23  O1  non d ame     -10.797   4.724  73.931  0.00  0.00    -0.218 OA
ATOM     24  N1  non d ame     -11.530   5.206  72.954  0.00  0.00    -0.123 NA
BRANCH  21  25
ATOM     25  C3  non d ame      -9.105   5.462  75.650  0.00  0.00    -0.029 C 
ATOM     26  H2  non d ame      -8.889   4.401  75.775  0.00  0.00     0.036 H 
ATOM     27  H3  non d ame      -8.180   6.000  75.441  0.00  0.00     0.036 H 
ATOM     28  H4  non d ame      -9.553   5.852  76.565  0.00  0.00     0.036 H 
ENDBRANCH  21  25
ENDBRANCH  16  19
ENDBRANCH  13  15
BRANCH  13  29
ATOM     29  C8  non d ame     -13.141  10.986  71.720  0.00  0.00    -0.049 C 
ATOM     30  H7  non d ame     -14.132  10.729  72.092  0.00  0.00     0.030 H 
ATOM     31  H8  non d ame     -12.504  11.280  72.554  0.00  0.00     0.030 H 
ATOM     32  H9  non d ame     -13.222  11.813  71.015  0.00  0.00     0.030 H 
ENDBRANCH  13  29
ENDBRANCH  10  13
ENDBRANCH   7   9
BRANCH   7  33
ATOM     33  C11 non d ame      -8.364   8.852  68.504  0.00  0.00    -0.033 C 
ATOM     34  H12 non d ame      -8.584   7.885  68.052  0.00  0.00     0.042 H 
BRANCH  33  35
ATOM     35  C12 non d ame      -7.149   9.462  67.739  0.00  0.00    -0.071 C 
ATOM     36  H13 non d ame      -6.263   8.852  67.919  0.00  0.00     0.028 H 
ATOM     37  H14 non d ame      -7.365   9.482  66.671  0.00  0.00     0.028 H 
ATOM     38  H15 non d ame      -6.969  10.477  68.093  0.00  0.00     0.028 H 
ENDBRANCH  33  35
BRANCH  33  39
ATOM     39  C13 non d ame      -8.025   8.615  70.011  0.00  0.00    -0.071 C 
ATOM     40  H16 non d ame      -8.057   9.565  70.544  0.00  0.00     0.028 H 
ATOM     41  H17 non d ame      -8.754   7.930  70.444  0.00  0.00     0.028 H 
ATOM     42  H18 non d ame      -7.027   8.185  70.094  0.00  0.00     0.028 H 
ENDBRANCH  33  39
ENDBRANCH   7  33
ENDBRANCH   4   7
ENDBRANCH   1   3
BRANCH   1  43
ATOM     43  C15 non d ame      -9.531  10.279  63.755  0.00  0.00     0.240 C 
ATOM     44  O5  non d ame      -9.031  11.071  63.023  0.00  0.00    -0.271 OA
ATOM     45  N6  non d ame      -9.032   8.874  63.780  0.00  0.00    -0.355 N 
ATOM     46  H46 non d ame      -9.445   8.194  64.401  0.00  0.00     0.162 HD
BRANCH  45  47
ATOM     47  C20 non d ame      -7.921   8.475  62.888  0.00  0.00     0.013 C 
ATOM     48  H30 non d ame      -7.920   9.149  62.032  0.00  0.00     0.072 H 
BRANCH  47  49
ATOM     49  C21 non d ame      -8.139   7.052  62.426  0.00  0.00    -0.038 C 
ATOM     50  H31 non d ame      -9.220   6.913  62.398  0.00  0.00     0.036 H 
ATOM     51  H32 non d ame      -7.552   6.947  61.513  0.00  0.00     0.036 H 
BRANCH  49  52
ATOM     52  C22 non d ame      -7.590   6.008  63.422  0.00  0.00     0.018 C 
ATOM     53  H33 non d ame      -6.886   5.399  62.854  0.00  0.00     0.048 H 
ATOM     54  H34 non d ame      -7.245   6.576  64.286  0.00  0.00     0.048 H 
BRANCH  52  55
ATOM     55  C23 non d ame      -8.669   5.026  63.958  0.00  0.00     0.259 C 
ATOM     56  O7  non d ame      -9.436   4.507  63.213  0.00  0.00    -0.265 OA
BRANCH  55  57
ATOM     57  O8  non d ame      -8.739   4.764  65.354  0.00  0.00    -0.317 OA
BRANCH  57  58
ATOM     58  C29 non d ame      -8.301   5.851  66.174  0.00  0.00     0.052 C 
ATOM     59  H47 non d ame      -7.223   5.917  66.025  0.00  0.00     0.082 H 
ATOM     60  H48 non d ame      -8.940   6.694  65.912  0.00  0.00     0.082 H 
BRANCH  58  61
ATOM     61  C35 non d ame      -8.570   5.473  67.655  0.00  0.00    -0.034 A 
ATOM     62  C30 non d ame      -7.507   5.183  68.504  0.00  0.00    -0.075 A 
ATOM     63  C31 non d ame      -7.749   4.843  69.835  0.00  0.00    -0.082 A 
ATOM     64  H49 non d ame      -6.485   5.222  68.128  0.00  0.00     0.084 H 
ATOM     65  C32 non d ame      -9.061   4.791  70.314  0.00  0.00    -0.083 A 
ATOM     66  H50 non d ame      -6.914   4.619  70.498  0.00  0.00     0.083 H 
ATOM     67  C33 non d ame     -10.118   5.078  69.462  0.00  0.00    -0.082 A 
ATOM     68  H51 non d ame      -9.258   4.527  71.353  0.00  0.00     0.083 H 
ATOM     69  C34 non d ame      -9.881   5.421  68.133  0.00  0.00    -0.075 A 
ATOM     70  H52 non d ame     -11.141   5.035  69.839  0.00  0.00     0.083 H 
ATOM     71  H53 non d ame     -10.717   5.646  67.470  0.00  0.00     0.084 H 
ENDBRANCH  58  61
ENDBRANCH  57  58
ENDBRANCH  55  57
ENDBRANCH  52  55
ENDBRANCH  49  52
ENDBRANCH  47  49
BRANCH  47  72
ATOM     72  C24 non d ame      -6.595   8.570  63.640  0.00  0.00    -0.039 C 
ATOM     73  H35 non d ame      -6.827   9.084  64.573  0.00  0.00     0.036 H 
ATOM     74  H36 non d ame      -6.201   7.554  63.661  0.00  0.00     0.036 H 
BRANCH  72  75
ATOM     75  C25 non d ame      -5.532   9.474  62.854  0.00  0.00    -0.001 C 
ATOM     76  C26 non d ame      -4.064   8.733  62.846  0.00  0.00    -0.035 C 
ATOM     77  C27 non d ame      -3.129   9.611  63.282  0.00  0.00     0.085 C 
ATOM     78  H38 non d ame      -4.041   7.942  63.595  0.00  0.00     0.036 H 
ATOM     79  H39 non d ame      -3.757   8.522  61.821  0.00  0.00     0.036 H 
ATOM     80  N5  non d ame      -3.869  10.775  63.895  0.00  0.00    -0.049 N 
ATOM     81  H40 non d ame      -2.579   9.086  64.064  0.00  0.00     0.075 H 
ATOM     82  H41 non d ame      -2.610   9.952  62.387  0.00  0.00     0.075 H 
ATOM     83  C28 non d ame      -5.402  10.633  63.409  0.00  0.00     0.193 C 
ATOM     84  H42 non d ame      -3.835  10.640  64.896  0.00  0.00     0.280 HD
ATOM     85  H43 non d ame      -3.478  11.611  63.485  0.00  0.00     0.280 HD
ATOM     86  H44 non d ame      -5.795  11.275  62.622  0.00  0.00     0.129 H 
ATOM     87  H37 non d ame      -5.916   9.824  61.896  0.00  0.00     0.046 H 
BRANCH  83  88
ATOM     88  O6  non d ame      -6.288  10.801  64.518  0.00  0.00    -0.369 OA
ATOM     89  H45 non d ame      -5.782  11.040  65.298  0.00  0.00     0.212 HD
ENDBRANCH  83  88
ENDBRANCH  72  75
ENDBRANCH  47  72
ENDBRANCH  45  47
ENDBRANCH   1  43
BRANCH   1  90
ATOM     90  C16 non d ame     -11.222  12.073  64.248  0.00  0.00    -0.035 C 
ATOM     91  H21 non d ame     -10.519  12.424  63.492  0.00  0.00     0.037 H 
ATOM     92  H22 non d ame     -12.267  11.906  63.984  0.00  0.00     0.037 H 
BRANCH  90  93
ATOM     93  C17 non d ame     -11.219  13.144  65.384  0.00  0.00    -0.059 C 
ATOM     94  H23 non d ame     -10.880  12.657  66.297  0.00  0.00     0.038 H 
BRANCH  93  95
ATOM     95  C18 non d ame     -10.239  14.323  65.080  0.00  0.00    -0.073 C 
ATOM     96  H24 non d ame      -9.771  14.653  66.007  0.00  0.00     0.028 H 
ATOM     97  H25 non d ame      -9.471  13.985  64.384  0.00  0.00     0.028 H 
ATOM     98  H26 non d ame     -10.793  15.150  64.637  0.00  0.00     0.028 H 
ENDBRANCH  93  95
BRANCH  93  99
ATOM     99  C19 non d ame     -12.634  13.667  65.646  0.00  0.00    -0.073 C 
ATOM    100  H27 non d ame     -12.810  13.715  66.721  0.00  0.00     0.028 H 
ATOM    101  H28 non d ame     -12.739  14.663  65.216  0.00  0.00     0.028 H 
ATOM    102  H29 non d ame     -13.360  12.995  65.188  0.00  0.00     0.028 H 
ENDBRANCH  93  99
ENDBRANCH  90  93
ENDBRANCH   1  90
TORSDOF 26
ENDMDL
MODEL 7
REMARK VINA RESULT:      -6.4      2.157      9.131
REMARK  26 active torsions:
REMARK  status: ('A' for Active; 'I' for Inactive)
REMARK    1  A    between atoms: C2_2  and  C3_3 
REMARK    2  A    between atoms: C4_6  and  C5_7 
REMARK       I    between atoms: C5_7  and  N2_9 
REMARK    3  A    between atoms: N2_9  and  C6_10 
REMARK    4  A    between atoms: C6_10  and  C7_11 
REMARK    5  A    between atoms: C6_10  and  C8_13 
REMARK       I    between atoms: C7_11  and  N3_14 
REMARK    6  A    between atoms: N3_14  and  C9_15 
REMARK    7  A    between atoms: C9_15  and  C10_16 
REMARK    8  A    between atoms: C9_15  and  C11_18 
REMARK       I    between atoms: C10_16  and  N4_21 
REMARK    9  A    between atoms: C11_18  and  C12_19 
REMARK   10  A    between atoms: C11_18  and  C13_20 
REMARK   11  A    between atoms: N4_21  and  C14_22 
REMARK   12  A    between atoms: C14_22  and  C15_23 
REMARK   13  A    between atoms: C14_22  and  C16_25 
REMARK       I    between atoms: C15_23  and  N6_40 
REMARK   14  A    between atoms: C16_25  and  C17_26 
REMARK   15  A    between atoms: C17_26  and  C18_27 
REMARK   16  A    between atoms: C17_26  and  C19_28 
REMARK   17  A    between atoms: C20_29  and  C21_30 
REMARK   18  A    between atoms: C20_29  and  C24_33 
REMARK   19  A    between atoms: C20_29  and  N6_40 
REMARK   20  A    between atoms: C21_30  and  C22_31 
REMARK   21  A    between atoms: C22_31  and  C23_32 
REMARK   22  A    between atoms: C23_32  and  O8_43 
REMARK   23  A    between atoms: C24_33  and  C25_34 
REMARK   24  A    between atoms: C28_38  and  O6_39 
REMARK   25  A    between atoms: C29_42  and  O8_43 
REMARK   26  A    between atoms: C29_42  and  C35_49 
ROOT
ATOM      1  C14 non d ame     -10.614   8.964  68.965  0.00  0.00     0.089 C 
ATOM      2  H20 non d ame     -11.677   8.731  69.031  0.00  0.00     0.087 H 
ENDROOT
BRANCH   1   3
ATOM      3  N4  non d ame      -9.905   7.714  68.740  0.00  0.00    -0.346 N 
ATOM      4  C10 non d ame     -10.594   6.394  68.975  0.00  0.00     0.241 C 
ATOM      5  O4  non d ame     -11.720   6.363  69.348  0.00  0.00    -0.271 OA
ATOM      6  H19 non d ame      -8.946   7.762  68.424  0.00  0.00     0.163 HD
BRANCH   4   7
ATOM      7  C9  non d ame      -9.846   5.109  68.731  0.00  0.00     0.092 C 
ATOM      8  H11 non d ame     -10.494   4.413  68.199  0.00  0.00     0.088 H 
BRANCH   7   9
ATOM      9  N3  non d ame      -8.691   5.372  67.868  0.00  0.00    -0.346 N 
ATOM     10  C7  non d ame      -8.451   4.543  66.713  0.00  0.00     0.240 C 
ATOM     11  O3  non d ame      -9.177   3.659  66.464  0.00  0.00    -0.271 OA
ATOM     12  H10 non d ame      -8.055   6.130  68.071  0.00  0.00     0.163 HD
BRANCH  10  13
ATOM     13  C6  non d ame      -7.218   4.825  65.800  0.00  0.00     0.086 C 
ATOM     14  H6  non d ame      -7.196   4.192  64.913  0.00  0.00     0.086 H 
BRANCH  13  15
ATOM     15  N2  non d ame      -7.286   6.199  65.328  0.00  0.00    -0.343 N 
ATOM     16  C5  non d ame      -6.792   6.527  63.989  0.00  0.00     0.273 C 
ATOM     17  O2  non d ame      -6.339   5.679  63.300  0.00  0.00    -0.266 OA
ATOM     18  H5  non d ame      -7.672   6.917  65.924  0.00  0.00     0.163 HD
BRANCH  16  19
ATOM     19  C4  non d ame      -6.858   7.974  63.477  0.00  0.00     0.154 A 
ATOM     20  C1  non d ame      -7.672   8.478  62.412  0.00  0.00    -0.017 A 
ATOM     21  C2  non d ame      -7.365   9.855  62.341  0.00  0.00     0.077 A 
ATOM     22  H1  non d ame      -8.376   7.928  61.788  0.00  0.00     0.091 H 
ATOM     23  O1  non d ame      -6.480  10.103  63.262  0.00  0.00    -0.218 OA
ATOM     24  N1  non d ame      -6.168   9.021  63.937  0.00  0.00    -0.123 NA
BRANCH  21  25
ATOM     25  C3  non d ame      -7.961  10.862  61.367  0.00  0.00    -0.029 C 
ATOM     26  H2  non d ame      -8.920  10.492  61.002  0.00  0.00     0.036 H 
ATOM     27  H3  non d ame      -8.110  11.815  61.876  0.00  0.00     0.036 H 
ATOM     28  H4  non d ame      -7.282  11.002  60.526  0.00  0.00     0.036 H 
ENDBRANCH  21  25
ENDBRANCH  16  19
ENDBRANCH  13  15
BRANCH  13  29
ATOM     29  C8  non d ame      -5.949   4.611  66.584  0.00  0.00    -0.049 C 
ATOM     30  H7  non d ame      -5.161   4.264  65.914  0.00  0.00     0.030 H 
ATOM     31  H8  non d ame      -5.645   5.549  67.047  0.00  0.00     0.030 H 
ATOM     32  H9  non d ame      -6.122   3.863  67.357  0.00  0.00     0.030 H 
ENDBRANCH  13  29
ENDBRANCH  10  13
ENDBRANCH   7   9
BRANCH   7  33
ATOM     33  C11 non d ame      -9.354   4.530  70.090  0.00  0.00    -0.033 C 
ATOM     34  H12 non d ame     -10.066   4.838  70.856  0.00  0.00     0.042 H 
BRANCH  33  35
ATOM     35  C12 non d ame      -9.333   2.970  70.069  0.00  0.00    -0.071 C 
ATOM     36  H13 non d ame      -9.257   2.622  69.038  0.00  0.00     0.028 H 
ATOM     37  H14 non d ame      -8.475   2.611  70.637  0.00  0.00     0.028 H 
ATOM     38  H15 non d ame     -10.251   2.588  70.515  0.00  0.00     0.028 H 
ENDBRANCH  33  35
BRANCH  33  39
ATOM     39  C13 non d ame      -7.954   5.111  70.471  0.00  0.00    -0.071 C 
ATOM     40  H16 non d ame      -7.715   4.838  71.499  0.00  0.00     0.028 H 
ATOM     41  H17 non d ame      -7.197   4.702  69.802  0.00  0.00     0.028 H 
ATOM     42  H18 non d ame      -7.974   6.196  70.378  0.00  0.00     0.028 H 
ENDBRANCH  33  39
ENDBRANCH   7  33
ENDBRANCH   4   7
ENDBRANCH   1   3
BRANCH   1  43
ATOM     43  C15 non d ame     -10.297   9.933  67.790  0.00  0.00     0.240 C 
ATOM     44  O5  non d ame     -10.405   9.556  66.668  0.00  0.00    -0.271 OA
ATOM     45  N6  non d ame      -9.866  11.333  68.063  0.00  0.00    -0.355 N 
ATOM     46  H46 non d ame      -9.774  11.666  69.012  0.00  0.00     0.162 HD
BRANCH  45  47
ATOM     47  C20 non d ame      -9.569  12.242  66.934  0.00  0.00     0.013 C 
ATOM     48  H30 non d ame      -9.103  11.654  66.144  0.00  0.00     0.072 H 
BRANCH  47  49
ATOM     49  C21 non d ame      -8.621  13.324  67.400  0.00  0.00    -0.038 C 
ATOM     50  H31 non d ame      -7.629  12.872  67.388  0.00  0.00     0.036 H 
ATOM     51  H32 non d ame      -8.833  14.191  66.774  0.00  0.00     0.036 H 
BRANCH  49  52
ATOM     52  C22 non d ame      -8.882  13.763  68.857  0.00  0.00     0.018 C 
ATOM     53  H33 non d ame      -9.808  13.269  69.153  0.00  0.00     0.048 H 
ATOM     54  H34 non d ame      -7.958  13.558  69.398  0.00  0.00     0.048 H 
BRANCH  52  55
ATOM     55  C23 non d ame      -9.140  15.288  69.015  0.00  0.00     0.259 C 
ATOM     56  O7  non d ame      -8.231  16.051  69.062  0.00  0.00    -0.265 OA
BRANCH  55  57
ATOM     57  O8  non d ame     -10.478  15.761  69.116  0.00  0.00    -0.317 OA
BRANCH  57  58
ATOM     58  C29 non d ame     -11.448  14.728  69.310  0.00  0.00     0.052 C 
ATOM     59  H47 non d ame     -12.255  14.946  68.610  0.00  0.00     0.082 H 
ATOM     60  H48 non d ame     -10.899  13.790  69.234  0.00  0.00     0.082 H 
BRANCH  58  61
ATOM     61  C35 non d ame     -12.002  14.857  70.754  0.00  0.00    -0.034 A 
ATOM     62  C30 non d ame     -12.747  13.821  71.309  0.00  0.00    -0.075 A 
ATOM     63  C31 non d ame     -13.245  13.937  72.606  0.00  0.00    -0.082 A 
ATOM     64  H49 non d ame     -12.939  12.919  70.729  0.00  0.00     0.084 H 
ATOM     65  C32 non d ame     -12.999  15.095  73.347  0.00  0.00    -0.083 A 
ATOM     66  H50 non d ame     -13.826  13.122  73.039  0.00  0.00     0.083 H 
ATOM     67  C33 non d ame     -12.258  16.128  72.787  0.00  0.00    -0.082 A 
ATOM     68  H51 non d ame     -13.384  15.194  74.362  0.00  0.00     0.083 H 
ATOM     69  C34 non d ame     -11.757  16.016  71.493  0.00  0.00    -0.075 A 
ATOM     70  H52 non d ame     -12.070  17.032  73.368  0.00  0.00     0.083 H 
ATOM     71  H53 non d ame     -11.175  16.830  71.060  0.00  0.00     0.084 H 
ENDBRANCH  58  61
ENDBRANCH  57  58
ENDBRANCH  55  57
ENDBRANCH  52  55
ENDBRANCH  49  52
ENDBRANCH  47  49
BRANCH  47  72
ATOM     72  C24 non d ame     -10.862  12.879  66.431  0.00  0.00    -0.039 C 
ATOM     73  H35 non d ame     -11.538  12.047  66.232  0.00  0.00     0.036 H 
ATOM     74  H36 non d ame     -11.126  13.629  67.177  0.00  0.00     0.036 H 
BRANCH  72  75
ATOM     75  C25 non d ame     -10.642  13.651  65.044  0.00  0.00    -0.001 C 
ATOM     76  C26 non d ame     -10.438  15.258  65.323  0.00  0.00    -0.035 C 
ATOM     77  C27 non d ame     -11.291  15.950  64.531  0.00  0.00     0.085 C 
ATOM     78  H38 non d ame     -10.769  15.507  66.331  0.00  0.00     0.036 H 
ATOM     79  H39 non d ame      -9.455  15.576  64.978  0.00  0.00     0.036 H 
ATOM     80  N5  non d ame     -12.284  14.957  63.977  0.00  0.00    -0.049 N 
ATOM     81  H40 non d ame     -11.812  16.640  65.195  0.00  0.00     0.075 H 
ATOM     82  H41 non d ame     -10.682  16.336  63.714  0.00  0.00     0.075 H 
ATOM     83  C28 non d ame     -11.655  13.497  64.258  0.00  0.00     0.193 C 
ATOM     84  H42 non d ame     -13.125  15.056  64.526  0.00  0.00     0.280 HD
ATOM     85  H43 non d ame     -12.312  15.107  62.978  0.00  0.00     0.280 HD
ATOM     86  H44 non d ame     -11.194  12.928  63.450  0.00  0.00     0.129 H 
ATOM     87  H37 non d ame      -9.902  13.160  64.411  0.00  0.00     0.046 H 
BRANCH  83  88
ATOM     88  O6  non d ame     -12.645  12.633  64.817  0.00  0.00    -0.369 OA
ATOM     89  H45 non d ame     -13.167  12.244  64.111  0.00  0.00     0.212 HD
ENDBRANCH  83  88
ENDBRANCH  72  75
ENDBRANCH  47  72
ENDBRANCH  45  47
ENDBRANCH   1  43
BRANCH   1  90
ATOM     90  C16 non d ame     -10.139   9.576  70.273  0.00  0.00    -0.035 C 
ATOM     91  H21 non d ame      -9.380   8.891  70.653  0.00  0.00     0.037 H 
ATOM     92  H22 non d ame      -9.873  10.605  70.031  0.00  0.00     0.037 H 
BRANCH  90  93
ATOM     93  C17 non d ame     -11.251   9.654  71.368  0.00  0.00    -0.059 C 
ATOM     94  H23 non d ame     -10.969  10.439  72.070  0.00  0.00     0.038 H 
BRANCH  93  95
ATOM     95  C18 non d ame     -12.644  10.028  70.768  0.00  0.00    -0.073 C 
ATOM     96  H24 non d ame     -12.754  11.112  70.755  0.00  0.00     0.028 H 
ATOM     97  H25 non d ame     -12.716   9.642  69.751  0.00  0.00     0.028 H 
ATOM     98  H26 non d ame     -13.432   9.589  71.380  0.00  0.00     0.028 H 
ENDBRANCH  93  95
BRANCH  93  99
ATOM     99  C19 non d ame     -11.332   8.346  72.159  0.00  0.00    -0.073 C 
ATOM    100  H27 non d ame     -10.367   7.838  72.123  0.00  0.00     0.028 H 
ATOM    101  H28 non d ame     -11.589   8.564  73.196  0.00  0.00     0.028 H 
ATOM    102  H29 non d ame     -12.097   7.704  71.723  0.00  0.00     0.028 H 
ENDBRANCH  93  99
ENDBRANCH  90  93
ENDBRANCH   1  90
TORSDOF 26
ENDMDL
MODEL 8
REMARK VINA RESULT:      -6.2      3.759      8.837
REMARK  26 active torsions:
REMARK  status: ('A' for Active; 'I' for Inactive)
REMARK    1  A    between atoms: C2_2  and  C3_3 
REMARK    2  A    between atoms: C4_6  and  C5_7 
REMARK       I    between atoms: C5_7  and  N2_9 
REMARK    3  A    between atoms: N2_9  and  C6_10 
REMARK    4  A    between atoms: C6_10  and  C7_11 
REMARK    5  A    between atoms: C6_10  and  C8_13 
REMARK       I    between atoms: C7_11  and  N3_14 
REMARK    6  A    between atoms: N3_14  and  C9_15 
REMARK    7  A    between atoms: C9_15  and  C10_16 
REMARK    8  A    between atoms: C9_15  and  C11_18 
REMARK       I    between atoms: C10_16  and  N4_21 
REMARK    9  A    between atoms: C11_18  and  C12_19 
REMARK   10  A    between atoms: C11_18  and  C13_20 
REMARK   11  A    between atoms: N4_21  and  C14_22 
REMARK   12  A    between atoms: C14_22  and  C15_23 
REMARK   13  A    between atoms: C14_22  and  C16_25 
REMARK       I    between atoms: C15_23  and  N6_40 
REMARK   14  A    between atoms: C16_25  and  C17_26 
REMARK   15  A    between atoms: C17_26  and  C18_27 
REMARK   16  A    between atoms: C17_26  and  C19_28 
REMARK   17  A    between atoms: C20_29  and  C21_30 
REMARK   18  A    between atoms: C20_29  and  C24_33 
REMARK   19  A    between atoms: C20_29  and  N6_40 
REMARK   20  A    between atoms: C21_30  and  C22_31 
REMARK   21  A    between atoms: C22_31  and  C23_32 
REMARK   22  A    between atoms: C23_32  and  O8_43 
REMARK   23  A    between atoms: C24_33  and  C25_34 
REMARK   24  A    between atoms: C28_38  and  O6_39 
REMARK   25  A    between atoms: C29_42  and  O8_43 
REMARK   26  A    between atoms: C29_42  and  C35_49 
ROOT
ATOM      1  C14 non d ame     -10.780  14.917  66.941  0.00  0.00     0.089 C 
ATOM      2  H20 non d ame     -11.784  15.306  66.769  0.00  0.00     0.087 H 
ENDROOT
BRANCH   1   3
ATOM      3  N4  non d ame      -9.885  16.057  67.072  0.00  0.00    -0.346 N 
ATOM      4  C10 non d ame     -10.224  17.188  68.010  0.00  0.00     0.241 C 
ATOM      5  O4  non d ame     -11.225  17.160  68.647  0.00  0.00    -0.271 OA
ATOM      6  H19 non d ame      -9.039  16.063  66.520  0.00  0.00     0.163 HD
BRANCH   4   7
ATOM      7  C9  non d ame      -9.283  18.358  68.137  0.00  0.00     0.092 C 
ATOM      8  H11 non d ame      -9.076  18.538  69.192  0.00  0.00     0.088 H 
BRANCH   7   9
ATOM      9  N3  non d ame      -8.007  18.030  67.495  0.00  0.00    -0.346 N 
ATOM     10  C7  non d ame      -6.858  17.699  68.302  0.00  0.00     0.240 C 
ATOM     11  O3  non d ame      -6.943  17.692  69.469  0.00  0.00    -0.271 OA
ATOM     12  H10 non d ame      -7.918  18.034  66.489  0.00  0.00     0.163 HD
BRANCH  10  13
ATOM     13  C6  non d ame      -5.501  17.355  67.612  0.00  0.00     0.086 C 
ATOM     14  H6  non d ame      -4.677  17.969  67.973  0.00  0.00     0.086 H 
BRANCH  13  15
ATOM     15  N2  non d ame      -5.155  15.976  67.914  0.00  0.00    -0.343 N 
ATOM     16  C5  non d ame      -6.091  14.904  67.566  0.00  0.00     0.273 C 
ATOM     17  O2  non d ame      -7.121  15.163  67.045  0.00  0.00    -0.266 OA
ATOM     18  H5  non d ame      -4.275  15.764  68.362  0.00  0.00     0.163 HD
BRANCH  16  19
ATOM     19  C4  non d ame      -5.738  13.442  67.878  0.00  0.00     0.154 A 
ATOM     20  C1  non d ame      -5.933  12.751  69.116  0.00  0.00    -0.017 A 
ATOM     21  C2  non d ame      -5.448  11.444  68.883  0.00  0.00     0.077 A 
ATOM     22  H1  non d ame      -6.360  13.137  70.041  0.00  0.00     0.091 H 
ATOM     23  O1  non d ame      -5.028  11.401  67.652  0.00  0.00    -0.218 OA
ATOM     24  N1  non d ame      -5.186  12.555  67.046  0.00  0.00    -0.123 NA
BRANCH  21  25
ATOM     25  C3  non d ame      -5.423  10.299  69.887  0.00  0.00    -0.029 C 
ATOM     26  H2  non d ame      -4.512   9.716  69.751  0.00  0.00     0.036 H 
ATOM     27  H3  non d ame      -5.449  10.703  70.899  0.00  0.00     0.036 H 
ATOM     28  H4  non d ame      -6.291   9.658  69.729  0.00  0.00     0.036 H 
ENDBRANCH  21  25
ENDBRANCH  16  19
ENDBRANCH  13  15
BRANCH  13  29
ATOM     29  C8  non d ame      -5.631  17.540  66.122  0.00  0.00    -0.049 C 
ATOM     30  H7  non d ame      -4.740  17.151  65.628  0.00  0.00     0.030 H 
ATOM     31  H8  non d ame      -6.509  17.003  65.764  0.00  0.00     0.030 H 
ATOM     32  H9  non d ame      -5.736  18.601  65.896  0.00  0.00     0.030 H 
ENDBRANCH  13  29
ENDBRANCH  10  13
ENDBRANCH   7   9
BRANCH   7  33
ATOM     33  C11 non d ame      -9.907  19.603  67.442  0.00  0.00    -0.033 C 
ATOM     34  H12 non d ame     -10.731  19.949  68.065  0.00  0.00     0.042 H 
BRANCH  33  35
ATOM     35  C12 non d ame      -8.876  20.770  67.335  0.00  0.00    -0.071 C 
ATOM     36  H13 non d ame      -8.570  20.890  66.296  0.00  0.00     0.028 H 
ATOM     37  H14 non d ame      -9.336  21.693  67.686  0.00  0.00     0.028 H 
ATOM     38  H15 non d ame      -8.004  20.541  67.947  0.00  0.00     0.028 H 
ENDBRANCH  33  35
BRANCH  33  39
ATOM     39  C13 non d ame     -10.486  19.229  66.039  0.00  0.00    -0.071 C 
ATOM     40  H16 non d ame      -9.842  18.487  65.566  0.00  0.00     0.028 H 
ATOM     41  H17 non d ame     -11.488  18.817  66.158  0.00  0.00     0.028 H 
ATOM     42  H18 non d ame     -10.532  20.121  65.416  0.00  0.00     0.028 H 
ENDBRANCH  33  39
ENDBRANCH   7  33
ENDBRANCH   4   7
ENDBRANCH   1   3
BRANCH   1  43
ATOM     43  C15 non d ame     -10.694  14.068  68.242  0.00  0.00     0.240 C 
ATOM     44  O5  non d ame      -9.632  13.786  68.695  0.00  0.00    -0.271 OA
ATOM     45  N6  non d ame     -11.937  13.614  68.929  0.00  0.00    -0.355 N 
ATOM     46  H46 non d ame     -12.845  13.852  68.556  0.00  0.00     0.162 HD
BRANCH  45  47
ATOM     47  C20 non d ame     -11.839  12.809  70.165  0.00  0.00     0.013 C 
ATOM     48  H30 non d ame     -10.854  12.981  70.600  0.00  0.00     0.072 H 
BRANCH  47  49
ATOM     49  C21 non d ame     -12.003  11.345  69.823  0.00  0.00    -0.038 C 
ATOM     50  H31 non d ame     -12.941  11.275  69.272  0.00  0.00     0.036 H 
ATOM     51  H32 non d ame     -11.068  11.047  69.348  0.00  0.00     0.036 H 
BRANCH  49  52
ATOM     52  C22 non d ame     -12.163  10.452  71.072  0.00  0.00     0.018 C 
ATOM     53  H33 non d ame     -11.916  11.087  71.923  0.00  0.00     0.048 H 
ATOM     54  H34 non d ame     -13.156  10.009  70.993  0.00  0.00     0.048 H 
BRANCH  52  55
ATOM     55  C23 non d ame     -11.166   9.261  71.123  0.00  0.00     0.259 C 
ATOM     56  O7  non d ame     -10.902   8.739  72.157  0.00  0.00    -0.265 OA
BRANCH  55  57
ATOM     57  O8  non d ame     -10.559   8.809  69.918  0.00  0.00    -0.317 OA
BRANCH  57  58
ATOM     58  C29 non d ame      -9.130   8.866  69.929  0.00  0.00     0.052 C 
ATOM     59  H47 non d ame      -8.871   9.646  70.644  0.00  0.00     0.082 H 
ATOM     60  H48 non d ame      -8.795   7.842  70.095  0.00  0.00     0.082 H 
BRANCH  58  61
ATOM     61  C35 non d ame      -8.657   9.314  68.520  0.00  0.00    -0.034 A 
ATOM     62  C30 non d ame      -8.957  10.592  68.059  0.00  0.00    -0.075 A 
ATOM     63  C31 non d ame      -8.533  10.995  66.794  0.00  0.00    -0.082 A 
ATOM     64  H49 non d ame      -9.523  11.278  68.689  0.00  0.00     0.084 H 
ATOM     65  C32 non d ame      -7.809  10.113  65.987  0.00  0.00    -0.083 A 
ATOM     66  H50 non d ame      -8.767  11.998  66.436  0.00  0.00     0.083 H 
ATOM     67  C33 non d ame      -7.515   8.838  66.450  0.00  0.00    -0.082 A 
ATOM     68  H51 non d ame      -7.473  10.420  64.997  0.00  0.00     0.083 H 
ATOM     69  C34 non d ame      -7.935   8.432  67.715  0.00  0.00    -0.075 A 
ATOM     70  H52 non d ame      -6.952   8.151  65.817  0.00  0.00     0.083 H 
ATOM     71  H53 non d ame      -7.700   7.429  68.072  0.00  0.00     0.084 H 
ENDBRANCH  58  61
ENDBRANCH  57  58
ENDBRANCH  55  57
ENDBRANCH  52  55
ENDBRANCH  49  52
ENDBRANCH  47  49
BRANCH  47  72
ATOM     72  C24 non d ame     -12.933  13.230  71.144  0.00  0.00    -0.039 C 
ATOM     73  H35 non d ame     -13.868  12.890  70.698  0.00  0.00     0.036 H 
ATOM     74  H36 non d ame     -12.619  12.842  72.114  0.00  0.00     0.036 H 
BRANCH  72  75
ATOM     75  C25 non d ame     -13.026  14.823  71.280  0.00  0.00    -0.001 C 
ATOM     76  C26 non d ame     -11.739  15.389  72.133  0.00  0.00    -0.035 C 
ATOM     77  C27 non d ame     -12.193  16.185  73.131  0.00  0.00     0.085 C 
ATOM     78  H38 non d ame     -11.252  14.570  72.662  0.00  0.00     0.036 H 
ATOM     79  H39 non d ame     -11.149  16.066  71.515  0.00  0.00     0.036 H 
ATOM     80  N5  non d ame     -13.681  15.953  73.238  0.00  0.00    -0.049 N 
ATOM     81  H40 non d ame     -11.710  15.819  74.038  0.00  0.00     0.075 H 
ATOM     82  H41 non d ame     -12.016  17.205  72.792  0.00  0.00     0.075 H 
ATOM     83  C28 non d ame     -14.108  15.178  71.888  0.00  0.00     0.193 C 
ATOM     84  H42 non d ame     -13.817  15.331  74.023  0.00  0.00     0.280 HD
ATOM     85  H43 non d ame     -14.113  16.865  73.236  0.00  0.00     0.280 HD
ATOM     86  H44 non d ame     -14.622  15.708  71.085  0.00  0.00     0.129 H 
ATOM     87  H37 non d ame     -13.240  15.307  70.326  0.00  0.00     0.046 H 
BRANCH  83  88
ATOM     88  O6  non d ame     -14.941  14.061  72.203  0.00  0.00    -0.369 OA
ATOM     89  H45 non d ame     -14.821  13.823  73.125  0.00  0.00     0.212 HD
ENDBRANCH  83  88
ENDBRANCH  72  75
ENDBRANCH  47  72
ENDBRANCH  45  47
ENDBRANCH   1  43
BRANCH   1  90
ATOM     90  C16 non d ame     -10.342  14.077  65.753  0.00  0.00    -0.035 C 
ATOM     91  H21 non d ame      -9.633  14.698  65.205  0.00  0.00     0.037 H 
ATOM     92  H22 non d ame     -10.019  13.125  66.175  0.00  0.00     0.037 H 
BRANCH  90  93
ATOM     93  C17 non d ame     -11.500  13.748  64.758  0.00  0.00    -0.059 C 
ATOM     94  H23 non d ame     -11.451  14.469  63.942  0.00  0.00     0.038 H 
BRANCH  93  95
ATOM     95  C18 non d ame     -11.358  12.320  64.139  0.00  0.00    -0.073 C 
ATOM     96  H24 non d ame     -10.753  12.375  63.234  0.00  0.00     0.028 H 
ATOM     97  H25 non d ame     -10.876  11.658  64.859  0.00  0.00     0.028 H 
ATOM     98  H26 non d ame     -12.346  11.931  63.893  0.00  0.00     0.028 H 
ENDBRANCH  93  95
BRANCH  93  99
ATOM     99  C19 non d ame     -12.864  13.916  65.432  0.00  0.00    -0.073 C 
ATOM    100  H27 non d ame     -13.220  12.945  65.779  0.00  0.00     0.028 H 
ATOM    101  H28 non d ame     -12.769  14.593  66.281  0.00  0.00     0.028 H 
ATOM    102  H29 non d ame     -13.575  14.329  64.716  0.00  0.00     0.028 H 
ENDBRANCH  93  99
ENDBRANCH  90  93
ENDBRANCH   1  90
TORSDOF 26
ENDMDL
MODEL 9
REMARK VINA RESULT:      -6.2      2.283      7.838
REMARK  26 active torsions:
REMARK  status: ('A' for Active; 'I' for Inactive)
REMARK    1  A    between atoms: C2_2  and  C3_3 
REMARK    2  A    between atoms: C4_6  and  C5_7 
REMARK       I    between atoms: C5_7  and  N2_9 
REMARK    3  A    between atoms: N2_9  and  C6_10 
REMARK    4  A    between atoms: C6_10  and  C7_11 
REMARK    5  A    between atoms: C6_10  and  C8_13 
REMARK       I    between atoms: C7_11  and  N3_14 
REMARK    6  A    between atoms: N3_14  and  C9_15 
REMARK    7  A    between atoms: C9_15  and  C10_16 
REMARK    8  A    between atoms: C9_15  and  C11_18 
REMARK       I    between atoms: C10_16  and  N4_21 
REMARK    9  A    between atoms: C11_18  and  C12_19 
REMARK   10  A    between atoms: C11_18  and  C13_20 
REMARK   11  A    between atoms: N4_21  and  C14_22 
REMARK   12  A    between atoms: C14_22  and  C15_23 
REMARK   13  A    between atoms: C14_22  and  C16_25 
REMARK       I    between atoms: C15_23  and  N6_40 
REMARK   14  A    between atoms: C16_25  and  C17_26 
REMARK   15  A    between atoms: C17_26  and  C18_27 
REMARK   16  A    between atoms: C17_26  and  C19_28 
REMARK   17  A    between atoms: C20_29  and  C21_30 
REMARK   18  A    between atoms: C20_29  and  C24_33 
REMARK   19  A    between atoms: C20_29  and  N6_40 
REMARK   20  A    between atoms: C21_30  and  C22_31 
REMARK   21  A    between atoms: C22_31  and  C23_32 
REMARK   22  A    between atoms: C23_32  and  O8_43 
REMARK   23  A    between atoms: C24_33  and  C25_34 
REMARK   24  A    between atoms: C28_38  and  O6_39 
REMARK   25  A    between atoms: C29_42  and  O8_43 
REMARK   26  A    between atoms: C29_42  and  C35_49 
ROOT
ATOM      1  C14 non d ame      -9.105   7.715  67.406  0.00  0.00     0.089 C 
ATOM      2  H20 non d ame      -8.069   7.883  67.700  0.00  0.00     0.087 H 
ENDROOT
BRANCH   1   3
ATOM      3  N4  non d ame      -9.788   7.102  68.536  0.00  0.00    -0.346 N 
ATOM      4  C10 non d ame      -9.318   7.367  69.944  0.00  0.00     0.241 C 
ATOM      5  O4  non d ame      -8.386   8.075  70.143  0.00  0.00    -0.271 OA
ATOM      6  H19 non d ame     -10.577   6.501  68.346  0.00  0.00     0.163 HD
BRANCH   4   7
ATOM      7  C9  non d ame     -10.040   6.729  71.102  0.00  0.00     0.092 C 
ATOM      8  H11 non d ame      -9.580   7.056  72.035  0.00  0.00     0.088 H 
BRANCH   7   9
ATOM      9  N3  non d ame     -11.433   7.187  71.123  0.00  0.00    -0.346 N 
ATOM     10  C7  non d ame     -11.955   7.853  72.291  0.00  0.00     0.240 C 
ATOM     11  O3  non d ame     -11.269   8.028  73.223  0.00  0.00    -0.271 OA
ATOM     12  H10 non d ame     -12.037   7.042  70.327  0.00  0.00     0.163 HD
BRANCH  10  13
ATOM     13  C6  non d ame     -13.439   8.335  72.308  0.00  0.00     0.086 C 
ATOM     14  H6  non d ame     -13.981   8.002  73.192  0.00  0.00     0.086 H 
BRANCH  13  15
ATOM     15  N2  non d ame     -13.462   9.789  72.329  0.00  0.00    -0.343 N 
ATOM     16  C5  non d ame     -12.759  10.537  71.285  0.00  0.00     0.273 C 
ATOM     17  O2  non d ame     -12.176   9.961  70.434  0.00  0.00    -0.266 OA
ATOM     18  H5  non d ame     -13.961  10.273  73.062  0.00  0.00     0.163 HD
BRANCH  16  19
ATOM     19  C4  non d ame     -12.777  12.074  71.295  0.00  0.00     0.154 A 
ATOM     20  C1  non d ame     -13.482  12.924  72.204  0.00  0.00    -0.017 A 
ATOM     21  C2  non d ame     -13.170  14.238  71.789  0.00  0.00     0.077 A 
ATOM     22  H1  non d ame     -14.122  12.633  73.037  0.00  0.00     0.091 H 
ATOM     23  O1  non d ame     -12.377  14.142  70.762  0.00  0.00    -0.218 OA
ATOM     24  N1  non d ame     -12.133  12.889  70.455  0.00  0.00    -0.123 NA
BRANCH  21  25
ATOM     25  C3  non d ame     -13.669  15.528  72.426  0.00  0.00    -0.029 C 
ATOM     26  H2  non d ame     -14.648  15.357  72.874  0.00  0.00     0.036 H 
ATOM     27  H3  non d ame     -12.968  15.847  73.197  0.00  0.00     0.036 H 
ATOM     28  H4  non d ame     -13.749  16.304  71.664  0.00  0.00     0.036 H 
ENDBRANCH  21  25
ENDBRANCH  16  19
ENDBRANCH  13  15
BRANCH  13  29
ATOM     29  C8  non d ame     -14.150   7.826  71.080  0.00  0.00    -0.049 C 
ATOM     30  H7  non d ame     -13.416   7.568  70.316  0.00  0.00     0.030 H 
ATOM     31  H8  non d ame     -14.732   6.941  71.338  0.00  0.00     0.030 H 
ATOM     32  H9  non d ame     -14.814   8.600  70.697  0.00  0.00     0.030 H 
ENDBRANCH  13  29
ENDBRANCH  10  13
ENDBRANCH   7   9
BRANCH   7  33
ATOM     33  C11 non d ame     -10.008   5.181  70.944  0.00  0.00    -0.033 C 
ATOM     34  H12 non d ame     -10.712   4.917  70.154  0.00  0.00     0.042 H 
BRANCH  33  35
ATOM     35  C12 non d ame      -8.597   4.684  70.500  0.00  0.00    -0.071 C 
ATOM     36  H13 non d ame      -7.897   4.791  71.329  0.00  0.00     0.028 H 
ATOM     37  H14 non d ame      -8.656   3.635  70.209  0.00  0.00     0.028 H 
ATOM     38  H15 non d ame      -8.252   5.278  69.655  0.00  0.00     0.028 H 
ENDBRANCH  33  35
BRANCH  33  39
ATOM     39  C13 non d ame     -10.470   4.474  72.259  0.00  0.00    -0.071 C 
ATOM     40  H16 non d ame     -11.491   4.113  72.138  0.00  0.00     0.028 H 
ATOM     41  H17 non d ame      -9.810   3.633  72.471  0.00  0.00     0.028 H 
ATOM     42  H18 non d ame     -10.432   5.184  73.085  0.00  0.00     0.028 H 
ENDBRANCH  33  39
ENDBRANCH   7  33
ENDBRANCH   4   7
ENDBRANCH   1   3
BRANCH   1  43
ATOM     43  C15 non d ame      -9.836   9.040  67.046  0.00  0.00     0.240 C 
ATOM     44  O5  non d ame     -10.861   9.314  67.580  0.00  0.00    -0.271 OA
ATOM     45  N6  non d ame      -9.251   9.973  66.040  0.00  0.00    -0.355 N 
ATOM     46  H46 non d ame      -8.378   9.754  65.584  0.00  0.00     0.162 HD
BRANCH  45  47
ATOM     47  C20 non d ame      -9.957  11.230  65.710  0.00  0.00     0.013 C 
ATOM     48  H30 non d ame     -11.016  11.086  65.923  0.00  0.00     0.072 H 
BRANCH  47  49
ATOM     49  C21 non d ame      -9.762  11.541  64.243  0.00  0.00    -0.038 C 
ATOM     50  H31 non d ame     -10.707  11.966  63.904  0.00  0.00     0.036 H 
ATOM     51  H32 non d ame      -8.847  12.132  64.186  0.00  0.00     0.036 H 
BRANCH  49  52
ATOM     52  C22 non d ame      -9.520  10.278  63.389  0.00  0.00     0.018 C 
ATOM     53  H33 non d ame      -9.345   9.470  64.100  0.00  0.00     0.048 H 
ATOM     54  H34 non d ame     -10.361  10.222  62.698  0.00  0.00     0.048 H 
BRANCH  52  55
ATOM     55  C23 non d ame      -8.244  10.354  62.505  0.00  0.00     0.259 C 
ATOM     56  O7  non d ame      -8.323  10.650  61.357  0.00  0.00    -0.265 OA
BRANCH  55  57
ATOM     57  O8  non d ame      -6.978  10.054  63.081  0.00  0.00    -0.317 OA
BRANCH  57  58
ATOM     58  C29 non d ame      -6.297   8.964  62.452  0.00  0.00     0.052 C 
ATOM     59  H47 non d ame      -7.031   8.496  61.796  0.00  0.00     0.082 H 
ATOM     60  H48 non d ame      -5.385   9.389  62.033  0.00  0.00     0.082 H 
BRANCH  58  61
ATOM     61  C35 non d ame      -5.902   7.946  63.554  0.00  0.00    -0.034 A 
ATOM     62  C30 non d ame      -5.557   6.643  63.208  0.00  0.00    -0.075 A 
ATOM     63  C31 non d ame      -5.203   5.728  64.198  0.00  0.00    -0.082 A 
ATOM     64  H49 non d ame      -5.564   6.340  62.161  0.00  0.00     0.084 H 
ATOM     65  C32 non d ame      -5.198   6.119  65.540  0.00  0.00    -0.083 A 
ATOM     66  H50 non d ame      -4.931   4.709  63.923  0.00  0.00     0.083 H 
ATOM     67  C33 non d ame      -5.546   7.418  65.881  0.00  0.00    -0.082 A 
ATOM     68  H51 non d ame      -4.922   5.409  66.320  0.00  0.00     0.083 H 
ATOM     69  C34 non d ame      -5.899   8.337  64.894  0.00  0.00    -0.075 A 
ATOM     70  H52 non d ame      -5.543   7.719  66.929  0.00  0.00     0.083 H 
ATOM     71  H53 non d ame      -6.170   9.357  65.170  0.00  0.00     0.084 H 
ENDBRANCH  58  61
ENDBRANCH  57  58
ENDBRANCH  55  57
ENDBRANCH  52  55
ENDBRANCH  49  52
ENDBRANCH  47  49
BRANCH  47  72
ATOM     72  C24 non d ame      -9.396  12.374  66.553  0.00  0.00    -0.039 C 
ATOM     73  H35 non d ame      -9.054  11.911  67.479  0.00  0.00     0.036 H 
ATOM     74  H36 non d ame      -8.686  12.889  65.906  0.00  0.00     0.036 H 
BRANCH  72  75
ATOM     75  C25 non d ame     -10.533  13.433  66.945  0.00  0.00    -0.001 C 
ATOM     76  C26 non d ame     -11.978  12.960  66.319  0.00  0.00    -0.035 C 
ATOM     77  C27 non d ame     -12.519  13.998  65.637  0.00  0.00     0.085 C 
ATOM     78  H38 non d ame     -11.824  12.203  65.551  0.00  0.00     0.036 H 
ATOM     79  H39 non d ame     -12.694  12.784  67.123  0.00  0.00     0.036 H 
ATOM     80  N5  non d ame     -11.429  15.028  65.463  0.00  0.00    -0.049 N 
ATOM     81  H40 non d ame     -12.787  13.596  64.659  0.00  0.00     0.075 H 
ATOM     82  H41 non d ame     -13.291  14.405  66.289  0.00  0.00     0.075 H 
ATOM     83  C28 non d ame     -10.254  14.608  66.488  0.00  0.00     0.193 C 
ATOM     84  H42 non d ame     -11.084  14.924  64.519  0.00  0.00     0.280 HD
ATOM     85  H43 non d ame     -11.818  15.910  65.764  0.00  0.00     0.280 HD
ATOM     86  H44 non d ame     -10.112  15.154  67.421  0.00  0.00     0.129 H 
ATOM     87  H37 non d ame     -10.511  13.689  68.004  0.00  0.00     0.046 H 
BRANCH  83  88
ATOM     88  O6  non d ame      -8.988  14.644  65.828  0.00  0.00    -0.369 OA
ATOM     89  H45 non d ame      -9.120  14.811  64.892  0.00  0.00     0.212 HD
ENDBRANCH  83  88
ENDBRANCH  72  75
ENDBRANCH  47  72
ENDBRANCH  45  47
ENDBRANCH   1  43
BRANCH   1  90
ATOM     90  C16 non d ame      -9.157   6.764  66.221  0.00  0.00    -0.035 C 
ATOM     91  H21 non d ame     -10.009   7.092  65.625  0.00  0.00     0.037 H 
ATOM     92  H22 non d ame      -8.154   6.781  65.793  0.00  0.00     0.037 H 
BRANCH  90  93
ATOM     93  C17 non d ame      -9.442   5.281  66.619  0.00  0.00    -0.059 C 
ATOM     94  H23 non d ame      -9.861   5.284  67.625  0.00  0.00     0.038 H 
BRANCH  93  95
ATOM     95  C18 non d ame     -10.483   4.606  65.670  0.00  0.00    -0.073 C 
ATOM     96  H24 non d ame     -11.484   4.727  66.084  0.00  0.00     0.028 H 
ATOM     97  H25 non d ame     -10.436   5.075  64.687  0.00  0.00     0.028 H 
ATOM     98  H26 non d ame     -10.254   3.544  65.577  0.00  0.00     0.028 H 
ENDBRANCH  93  95
BRANCH  93  99
ATOM     99  C19 non d ame      -8.145   4.470  66.670  0.00  0.00    -0.073 C 
ATOM    100  H27 non d ame      -8.363   3.455  67.005  0.00  0.00     0.028 H 
ATOM    101  H28 non d ame      -7.698   4.436  65.675  0.00  0.00     0.028 H 
ATOM    102  H29 non d ame      -7.449   4.940  67.364  0.00  0.00     0.028 H 
ENDBRANCH  93  99
ENDBRANCH  90  93
ENDBRANCH   1  90
TORSDOF 26
ENDMDL
MODEL 10
REMARK VINA RESULT:      -6.2      2.652      6.362
REMARK  26 active torsions:
REMARK  status: ('A' for Active; 'I' for Inactive)
REMARK    1  A    between atoms: C2_2  and  C3_3 
REMARK    2  A    between atoms: C4_6  and  C5_7 
REMARK       I    between atoms: C5_7  and  N2_9 
REMARK    3  A    between atoms: N2_9  and  C6_10 
REMARK    4  A    between atoms: C6_10  and  C7_11 
REMARK    5  A    between atoms: C6_10  and  C8_13 
REMARK       I    between atoms: C7_11  and  N3_14 
REMARK    6  A    between atoms: N3_14  and  C9_15 
REMARK    7  A    between atoms: C9_15  and  C10_16 
REMARK    8  A    between atoms: C9_15  and  C11_18 
REMARK       I    between atoms: C10_16  and  N4_21 
REMARK    9  A    between atoms: C11_18  and  C12_19 
REMARK   10  A    between atoms: C11_18  and  C13_20 
REMARK   11  A    between atoms: N4_21  and  C14_22 
REMARK   12  A    between atoms: C14_22  and  C15_23 
REMARK   13  A    between atoms: C14_22  and  C16_25 
REMARK       I    between atoms: C15_23  and  N6_40 
REMARK   14  A    between atoms: C16_25  and  C17_26 
REMARK   15  A    between atoms: C17_26  and  C18_27 
REMARK   16  A    between atoms: C17_26  and  C19_28 
REMARK   17  A    between atoms: C20_29  and  C21_30 
REMARK   18  A    between atoms: C20_29  and  C24_33 
REMARK   19  A    between atoms: C20_29  and  N6_40 
REMARK   20  A    between atoms: C21_30  and  C22_31 
REMARK   21  A    between atoms: C22_31  and  C23_32 
REMARK   22  A    between atoms: C23_32  and  O8_43 
REMARK   23  A    between atoms: C24_33  and  C25_34 
REMARK   24  A    between atoms: C28_38  and  O6_39 
REMARK   25  A    between atoms: C29_42  and  O8_43 
REMARK   26  A    between atoms: C29_42  and  C35_49 
ROOT
ATOM      1  C14 non d ame      -7.123   9.548  67.623  0.00  0.00     0.089 C 
ATOM      2  H20 non d ame      -6.124   9.242  67.312  0.00  0.00     0.087 H 
ENDROOT
BRANCH   1   3
ATOM      3  N4  non d ame      -7.977   9.521  66.445  0.00  0.00    -0.346 N 
ATOM      4  C10 non d ame      -7.436   9.948  65.103  0.00  0.00     0.241 C 
ATOM      5  O4  non d ame      -6.311  10.311  64.997  0.00  0.00    -0.271 OA
ATOM      6  H19 non d ame      -8.932   9.211  66.556  0.00  0.00     0.163 HD
BRANCH   4   7
ATOM      7  C9  non d ame      -8.332   9.909  63.893  0.00  0.00     0.092 C 
ATOM      8  H11 non d ame      -8.922   8.992  63.912  0.00  0.00     0.088 H 
BRANCH   7   9
ATOM      9  N3  non d ame      -9.274  11.031  63.945  0.00  0.00    -0.346 N 
ATOM     10  C7  non d ame     -10.432  10.960  64.801  0.00  0.00     0.240 C 
ATOM     11  O3  non d ame     -10.623  10.007  65.453  0.00  0.00    -0.271 OA
ATOM     12  H10 non d ame      -9.123  11.859  63.387  0.00  0.00     0.163 HD
BRANCH  10  13
ATOM     13  C6  non d ame     -11.433  12.156  64.850  0.00  0.00     0.086 C 
ATOM     14  H6  non d ame     -12.148  12.075  65.669  0.00  0.00     0.086 H 
BRANCH  13  15
ATOM     15  N2  non d ame     -10.688  13.385  65.070  0.00  0.00    -0.343 N 
ATOM     16  C5  non d ame     -11.211  14.390  65.997  0.00  0.00     0.273 C 
ATOM     17  O2  non d ame     -12.234  14.202  66.560  0.00  0.00    -0.266 OA
ATOM     18  H5  non d ame      -9.816  13.539  64.583  0.00  0.00     0.163 HD
BRANCH  16  19
ATOM     19  C4  non d ame     -10.434  15.693  66.240  0.00  0.00     0.154 A 
ATOM     20  C1  non d ame     -10.543  16.568  67.367  0.00  0.00    -0.017 A 
ATOM     21  C2  non d ame      -9.624  17.610  67.109  0.00  0.00     0.077 A 
ATOM     22  H1  non d ame     -11.190  16.464  68.238  0.00  0.00     0.091 H 
ATOM     23  O1  non d ame      -9.058  17.352  65.967  0.00  0.00    -0.218 OA
ATOM     24  N1  non d ame      -9.514  16.239  65.440  0.00  0.00    -0.123 NA
BRANCH  21  25
ATOM     25  C3  non d ame      -9.348  18.811  68.004  0.00  0.00    -0.029 C 
ATOM     26  H2  non d ame     -10.152  19.538  67.895  0.00  0.00     0.036 H 
ATOM     27  H3  non d ame      -9.291  18.484  69.042  0.00  0.00     0.036 H 
ATOM     28  H4  non d ame      -8.401  19.269  67.715  0.00  0.00     0.036 H 
ENDBRANCH  21  25
ENDBRANCH  16  19
ENDBRANCH  13  15
BRANCH  13  29
ATOM     29  C8  non d ame     -12.189  12.236  63.549  0.00  0.00    -0.049 C 
ATOM     30  H7  non d ame     -12.628  13.229  63.444  0.00  0.00     0.030 H 
ATOM     31  H8  non d ame     -11.506  12.052  62.720  0.00  0.00     0.030 H 
ATOM     32  H9  non d ame     -12.980  11.487  63.542  0.00  0.00     0.030 H 
ENDBRANCH  13  29
ENDBRANCH  10  13
ENDBRANCH   7   9
BRANCH   7  33
ATOM     33  C11 non d ame      -7.467  10.021  62.603  0.00  0.00    -0.033 C 
ATOM     34  H12 non d ame      -6.428  10.131  62.913  0.00  0.00     0.042 H 
BRANCH  33  35
ATOM     35  C12 non d ame      -7.564   8.725  61.739  0.00  0.00    -0.071 C 
ATOM     36  H13 non d ame      -8.564   8.648  61.312  0.00  0.00     0.028 H 
ATOM     37  H14 non d ame      -6.828   8.769  60.936  0.00  0.00     0.028 H 
ATOM     38  H15 non d ame      -7.368   7.856  62.366  0.00  0.00     0.028 H 
ENDBRANCH  33  35
BRANCH  33  39
ATOM     39  C13 non d ame      -7.860  11.286  61.774  0.00  0.00    -0.071 C 
ATOM     40  H16 non d ame      -6.973  11.894  61.596  0.00  0.00     0.028 H 
ATOM     41  H17 non d ame      -8.286  10.976  60.819  0.00  0.00     0.028 H 
ATOM     42  H18 non d ame      -8.595  11.869  62.328  0.00  0.00     0.028 H 
ENDBRANCH  33  39
ENDBRANCH   7  33
ENDBRANCH   4   7
ENDBRANCH   1   3
BRANCH   1  43
ATOM     43  C15 non d ame      -7.724   8.589  68.691  0.00  0.00     0.240 C 
ATOM     44  O5  non d ame      -7.038   7.758  69.192  0.00  0.00    -0.271 OA
ATOM     45  N6  non d ame      -9.153   8.714  69.097  0.00  0.00    -0.355 N 
ATOM     46  H46 non d ame      -9.744   9.420  68.682  0.00  0.00     0.162 HD
BRANCH  45  47
ATOM     47  C20 non d ame      -9.709   7.796  70.114  0.00  0.00     0.013 C 
ATOM     48  H30 non d ame      -8.887   7.206  70.518  0.00  0.00     0.072 H 
BRANCH  47  49
ATOM     49  C21 non d ame     -10.727   6.887  69.465  0.00  0.00    -0.038 C 
ATOM     50  H31 non d ame     -11.650   7.027  70.029  0.00  0.00     0.036 H 
ATOM     51  H32 non d ame     -10.697   7.125  68.401  0.00  0.00     0.036 H 
BRANCH  49  52
ATOM     52  C22 non d ame     -10.361   5.392  69.589  0.00  0.00     0.018 C 
ATOM     53  H33 non d ame      -9.651   5.329  70.414  0.00  0.00     0.048 H 
ATOM     54  H34 non d ame     -11.311   4.860  69.646  0.00  0.00     0.048 H 
BRANCH  52  55
ATOM     55  C23 non d ame      -9.625   4.822  68.345  0.00  0.00     0.259 C 
ATOM     56  O7  non d ame      -9.681   3.663  68.090  0.00  0.00    -0.265 OA
BRANCH  55  57
ATOM     57  O8  non d ame      -8.871   5.700  67.518  0.00  0.00    -0.317 OA
BRANCH  57  58
ATOM     58  C29 non d ame      -9.378   5.825  66.187  0.00  0.00     0.052 C 
ATOM     59  H47 non d ame      -9.967   4.926  66.010  0.00  0.00     0.082 H 
ATOM     60  H48 non d ame      -9.853   6.805  66.142  0.00  0.00     0.082 H 
BRANCH  58  61
ATOM     61  C35 non d ame      -8.170   5.821  65.212  0.00  0.00    -0.034 A 
ATOM     62  C30 non d ame      -8.367   5.564  63.859  0.00  0.00    -0.075 A 
ATOM     63  C31 non d ame      -7.282   5.560  62.984  0.00  0.00    -0.082 A 
ATOM     64  H49 non d ame      -9.371   5.366  63.485  0.00  0.00     0.084 H 
ATOM     65  C32 non d ame      -5.995   5.813  63.467  0.00  0.00    -0.083 A 
ATOM     66  H50 non d ame      -7.440   5.360  61.924  0.00  0.00     0.083 H 
ATOM     67  C33 non d ame      -5.803   6.066  64.818  0.00  0.00    -0.082 A 
ATOM     68  H51 non d ame      -5.141   5.812  62.789  0.00  0.00     0.083 H 
ATOM     69  C34 non d ame      -6.885   6.073  65.696  0.00  0.00    -0.075 A 
ATOM     70  H52 non d ame      -4.797   6.260  65.192  0.00  0.00     0.083 H 
ATOM     71  H53 non d ame      -6.726   6.274  66.756  0.00  0.00     0.084 H 
ENDBRANCH  58  61
ENDBRANCH  57  58
ENDBRANCH  55  57
ENDBRANCH  52  55
ENDBRANCH  49  52
ENDBRANCH  47  49
BRANCH  47  72
ATOM     72  C24 non d ame     -10.380   8.602  71.225  0.00  0.00    -0.039 C 
ATOM     73  H35 non d ame     -10.401   7.940  72.091  0.00  0.00     0.036 H 
ATOM     74  H36 non d ame      -9.831   9.543  71.273  0.00  0.00     0.036 H 
BRANCH  72  75
ATOM     75  C25 non d ame     -11.899   8.958  70.864  0.00  0.00    -0.001 C 
ATOM     76  C26 non d ame     -12.073  10.587  70.718  0.00  0.00    -0.035 C 
ATOM     77  C27 non d ame     -13.114  10.985  71.488  0.00  0.00     0.085 C 
ATOM     78  H38 non d ame     -11.218  11.095  71.163  0.00  0.00     0.036 H 
ATOM     79  H39 non d ame     -12.393  10.840  69.707  0.00  0.00     0.036 H 
ATOM     80  N5  non d ame     -13.458   9.830  72.397  0.00  0.00    -0.049 N 
ATOM     81  H40 non d ame     -12.732  11.810  72.091  0.00  0.00     0.075 H 
ATOM     82  H41 non d ame     -13.940  11.152  70.798  0.00  0.00     0.075 H 
ATOM     83  C28 non d ame     -12.708   8.541  71.780  0.00  0.00     0.193 C 
ATOM     84  H42 non d ame     -13.049  10.041  73.296  0.00  0.00     0.280 HD
ATOM     85  H43 non d ame     -14.455   9.690  72.317  0.00  0.00     0.280 HD
ATOM     86  H44 non d ame     -13.267   7.788  71.224  0.00  0.00     0.129 H 
ATOM     87  H37 non d ame     -12.285   8.343  70.051  0.00  0.00     0.046 H 
BRANCH  83  88
ATOM     88  O6  non d ame     -12.028   7.825  72.813  0.00  0.00    -0.369 OA
ATOM     89  H45 non d ame     -12.196   6.885  72.715  0.00  0.00     0.212 HD
ENDBRANCH  83  88
ENDBRANCH  72  75
ENDBRANCH  47  72
ENDBRANCH  45  47
ENDBRANCH   1  43
BRANCH   1  90
ATOM     90  C16 non d ame      -7.081  10.964  68.173  0.00  0.00    -0.035 C 
ATOM     91  H21 non d ame      -7.684  11.559  67.487  0.00  0.00     0.037 H 
ATOM     92  H22 non d ame      -7.374  10.876  69.220  0.00  0.00     0.037 H 
BRANCH  90  93
ATOM     93  C17 non d ame      -5.652  11.596  68.167  0.00  0.00    -0.059 C 
ATOM     94  H23 non d ame      -5.504  12.068  67.196  0.00  0.00     0.038 H 
BRANCH  93  95
ATOM     95  C18 non d ame      -5.491  12.699  69.262  0.00  0.00    -0.073 C 
ATOM     96  H24 non d ame      -6.461  13.152  69.466  0.00  0.00     0.028 H 
ATOM     97  H25 non d ame      -5.100  12.249  70.176  0.00  0.00     0.028 H 
ATOM     98  H26 non d ame      -4.799  13.463  68.909  0.00  0.00     0.028 H 
ENDBRANCH  93  95
BRANCH  93  99
ATOM     99  C19 non d ame      -4.577  10.517  68.318  0.00  0.00    -0.073 C 
ATOM    100  H27 non d ame      -3.745  10.737  67.647  0.00  0.00     0.028 H 
ATOM    101  H28 non d ame      -4.219  10.503  69.348  0.00  0.00     0.028 H 
ATOM    102  H29 non d ame      -5.000   9.545  68.067  0.00  0.00     0.028 H 
ENDBRANCH  93  99
ENDBRANCH  90  93
ENDBRANCH   1  90
TORSDOF 26
ENDMDL
MODEL 11
REMARK VINA RESULT:      -6.1      2.740      7.730
REMARK  26 active torsions:
REMARK  status: ('A' for Active; 'I' for Inactive)
REMARK    1  A    between atoms: C2_2  and  C3_3 
REMARK    2  A    between atoms: C4_6  and  C5_7 
REMARK       I    between atoms: C5_7  and  N2_9 
REMARK    3  A    between atoms: N2_9  and  C6_10 
REMARK    4  A    between atoms: C6_10  and  C7_11 
REMARK    5  A    between atoms: C6_10  and  C8_13 
REMARK       I    between atoms: C7_11  and  N3_14 
REMARK    6  A    between atoms: N3_14  and  C9_15 
REMARK    7  A    between atoms: C9_15  and  C10_16 
REMARK    8  A    between atoms: C9_15  and  C11_18 
REMARK       I    between atoms: C10_16  and  N4_21 
REMARK    9  A    between atoms: C11_18  and  C12_19 
REMARK   10  A    between atoms: C11_18  and  C13_20 
REMARK   11  A    between atoms: N4_21  and  C14_22 
REMARK   12  A    between atoms: C14_22  and  C15_23 
REMARK   13  A    between atoms: C14_22  and  C16_25 
REMARK       I    between atoms: C15_23  and  N6_40 
REMARK   14  A    between atoms: C16_25  and  C17_26 
REMARK   15  A    between atoms: C17_26  and  C18_27 
REMARK   16  A    between atoms: C17_26  and  C19_28 
REMARK   17  A    between atoms: C20_29  and  C21_30 
REMARK   18  A    between atoms: C20_29  and  C24_33 
REMARK   19  A    between atoms: C20_29  and  N6_40 
REMARK   20  A    between atoms: C21_30  and  C22_31 
REMARK   21  A    between atoms: C22_31  and  C23_32 
REMARK   22  A    between atoms: C23_32  and  O8_43 
REMARK   23  A    between atoms: C24_33  and  C25_34 
REMARK   24  A    between atoms: C28_38  and  O6_39 
REMARK   25  A    between atoms: C29_42  and  O8_43 
REMARK   26  A    between atoms: C29_42  and  C35_49 
ROOT
ATOM      1  C14 non d ame      -9.571  11.563  65.666  0.00  0.00     0.089 C 
ATOM      2  H20 non d ame      -9.217  11.943  64.707  0.00  0.00     0.087 H 
ENDROOT
BRANCH   1   3
ATOM      3  N4  non d ame      -9.161  10.170  65.763  0.00  0.00    -0.346 N 
ATOM      4  C10 non d ame      -8.285   9.558  64.700  0.00  0.00     0.241 C 
ATOM      5  O4  non d ame      -7.925  10.205  63.772  0.00  0.00    -0.271 OA
ATOM      6  H19 non d ame      -9.480   9.635  66.559  0.00  0.00     0.163 HD
BRANCH   4   7
ATOM      7  C9  non d ame      -7.866   8.116  64.819  0.00  0.00     0.092 C 
ATOM      8  H11 non d ame      -6.994   8.049  65.470  0.00  0.00     0.088 H 
BRANCH   7   9
ATOM      9  N3  non d ame      -8.941   7.345  65.453  0.00  0.00    -0.346 N 
ATOM     10  C7  non d ame      -8.667   6.568  66.637  0.00  0.00     0.240 C 
ATOM     11  O3  non d ame      -7.589   6.549  67.091  0.00  0.00    -0.271 OA
ATOM     12  H10 non d ame      -9.875   7.350  65.071  0.00  0.00     0.163 HD
BRANCH  10  13
ATOM     13  C6  non d ame      -9.814   5.747  67.305  0.00  0.00     0.086 C 
ATOM     14  H6  non d ame      -9.443   4.975  67.979  0.00  0.00     0.086 H 
BRANCH  13  15
ATOM     15  N2  non d ame     -10.629   6.643  68.108  0.00  0.00    -0.343 N 
ATOM     16  C5  non d ame     -10.290   6.860  69.516  0.00  0.00     0.273 C 
ATOM     17  O2  non d ame      -9.361   6.305  69.994  0.00  0.00    -0.266 OA
ATOM     18  H5  non d ame     -11.422   7.111  67.692  0.00  0.00     0.163 HD
BRANCH  16  19
ATOM     19  C4  non d ame     -11.142   7.806  70.377  0.00  0.00     0.154 A 
ATOM     20  C1  non d ame     -12.355   7.490  71.066  0.00  0.00    -0.017 A 
ATOM     21  C2  non d ame     -12.735   8.693  71.703  0.00  0.00     0.077 A 
ATOM     22  H1  non d ame     -12.880   6.535  71.100  0.00  0.00     0.091 H 
ATOM     23  O1  non d ame     -11.837   9.588  71.408  0.00  0.00    -0.218 OA
ATOM     24  N1  non d ame     -10.898   9.094  70.635  0.00  0.00    -0.123 NA
BRANCH  21  25
ATOM     25  C3  non d ame     -13.967   8.903  72.573  0.00  0.00    -0.029 C 
ATOM     26  H2  non d ame     -13.987   9.932  72.933  0.00  0.00     0.036 H 
ATOM     27  H3  non d ame     -14.864   8.705  71.987  0.00  0.00     0.036 H 
ATOM     28  H4  non d ame     -13.931   8.221  73.424  0.00  0.00     0.036 H 
ENDBRANCH  21  25
ENDBRANCH  16  19
ENDBRANCH  13  15
BRANCH  13  29
ATOM     29  C8  non d ame     -10.659   5.098  66.238  0.00  0.00    -0.049 C 
ATOM     30  H7  non d ame     -10.375   5.489  65.261  0.00  0.00     0.030 H 
ATOM     31  H8  non d ame     -10.502   4.019  66.257  0.00  0.00     0.030 H 
ATOM     32  H9  non d ame     -11.710   5.315  66.425  0.00  0.00     0.030 H 
ENDBRANCH  13  29
ENDBRANCH  10  13
ENDBRANCH   7   9
BRANCH   7  33
ATOM     33  C11 non d ame      -7.585   7.538  63.401  0.00  0.00    -0.033 C 
ATOM     34  H12 non d ame      -8.054   8.203  62.676  0.00  0.00     0.042 H 
BRANCH  33  35
ATOM     35  C12 non d ame      -6.055   7.512  63.092  0.00  0.00    -0.071 C 
ATOM     36  H13 non d ame      -5.528   7.012  63.905  0.00  0.00     0.028 H 
ATOM     37  H14 non d ame      -5.882   6.971  62.162  0.00  0.00     0.028 H 
ATOM     38  H15 non d ame      -5.687   8.533  62.993  0.00  0.00     0.028 H 
ENDBRANCH  33  35
BRANCH  33  39
ATOM     39  C13 non d ame      -8.220   6.120  63.239  0.00  0.00    -0.071 C 
ATOM     40  H16 non d ame      -8.589   6.002  62.220  0.00  0.00     0.028 H 
ATOM     41  H17 non d ame      -7.466   5.359  63.442  0.00  0.00     0.028 H 
ATOM     42  H18 non d ame      -9.046   6.010  63.941  0.00  0.00     0.028 H 
ENDBRANCH  33  39
ENDBRANCH   7  33
ENDBRANCH   4   7
ENDBRANCH   1   3
BRANCH   1  43
ATOM     43  C15 non d ame      -8.963  12.343  66.867  0.00  0.00     0.240 C 
ATOM     44  O5  non d ame      -8.829  11.802  67.916  0.00  0.00    -0.271 OA
ATOM     45  N6  non d ame      -8.541  13.764  66.706  0.00  0.00    -0.355 N 
ATOM     46  H46 non d ame      -8.645  14.233  65.818  0.00  0.00     0.162 HD
BRANCH  45  47
ATOM     47  C20 non d ame      -7.963  14.491  67.857  0.00  0.00     0.013 C 
ATOM     48  H30 non d ame      -8.234  13.952  68.765  0.00  0.00     0.072 H 
BRANCH  47  49
ATOM     49  C21 non d ame      -8.531  15.892  67.899  0.00  0.00    -0.038 C 
ATOM     50  H31 non d ame      -8.671  16.122  68.956  0.00  0.00     0.036 H 
ATOM     51  H32 non d ame      -7.860  16.500  67.292  0.00  0.00     0.036 H 
BRANCH  49  52
ATOM     52  C22 non d ame      -9.925  15.993  67.243  0.00  0.00     0.018 C 
ATOM     53  H33 non d ame      -9.764  16.481  66.281  0.00  0.00     0.048 H 
ATOM     54  H34 non d ame     -10.343  14.986  67.279  0.00  0.00     0.048 H 
BRANCH  52  55
ATOM     55  C23 non d ame     -10.920  16.898  68.021  0.00  0.00     0.259 C 
ATOM     56  O7  non d ame     -10.785  18.078  68.026  0.00  0.00    -0.265 OA
BRANCH  55  57
ATOM     57  O8  non d ame     -11.990  16.298  68.741  0.00  0.00    -0.317 OA
BRANCH  57  58
ATOM     58  C29 non d ame     -11.695  14.991  69.243  0.00  0.00     0.052 C 
ATOM     59  H47 non d ame     -12.285  14.303  68.638  0.00  0.00     0.082 H 
ATOM     60  H48 non d ame     -10.608  14.916  69.249  0.00  0.00     0.082 H 
BRANCH  58  61
ATOM     61  C35 non d ame     -12.201  14.915  70.708  0.00  0.00    -0.034 A 
ATOM     62  C30 non d ame     -12.976  13.836  71.122  0.00  0.00    -0.075 A 
ATOM     63  C31 non d ame     -13.430  13.767  72.438  0.00  0.00    -0.082 A 
ATOM     64  H49 non d ame     -13.227  13.045  70.415  0.00  0.00     0.084 H 
ATOM     65  C32 non d ame     -13.109  14.784  73.341  0.00  0.00    -0.083 A 
ATOM     66  H50 non d ame     -14.036  12.920  72.760  0.00  0.00     0.083 H 
ATOM     67  C33 non d ame     -12.338  15.860  72.923  0.00  0.00    -0.082 A 
ATOM     68  H51 non d ame     -13.460  14.738  74.372  0.00  0.00     0.083 H 
ATOM     69  C34 non d ame     -11.880  15.932  71.609  0.00  0.00    -0.075 A 
ATOM     70  H52 non d ame     -12.091  16.653  73.629  0.00  0.00     0.083 H 
ATOM     71  H53 non d ame     -11.274  16.779  71.288  0.00  0.00     0.084 H 
ENDBRANCH  58  61
ENDBRANCH  57  58
ENDBRANCH  55  57
ENDBRANCH  52  55
ENDBRANCH  49  52
ENDBRANCH  47  49
BRANCH  47  72
ATOM     72  C24 non d ame      -6.444  14.561  67.715  0.00  0.00    -0.039 C 
ATOM     73  H35 non d ame      -6.224  14.126  66.739  0.00  0.00     0.036 H 
ATOM     74  H36 non d ame      -6.181  15.599  67.921  0.00  0.00     0.036 H 
BRANCH  72  75
ATOM     75  C25 non d ame      -5.704  13.659  68.812  0.00  0.00    -0.001 C 
ATOM     76  C26 non d ame      -5.882  14.331  70.303  0.00  0.00    -0.035 C 
ATOM     77  C27 non d ame      -4.663  14.435  70.883  0.00  0.00     0.085 C 
ATOM     78  H38 non d ame      -6.209  15.366  70.209  0.00  0.00     0.036 H 
ATOM     79  H39 non d ame      -6.419  13.647  70.960  0.00  0.00     0.036 H 
ATOM     80  N5  non d ame      -3.637  14.200  69.800  0.00  0.00    -0.049 N 
ATOM     81  H40 non d ame      -4.590  15.469  71.224  0.00  0.00     0.075 H 
ATOM     82  H41 non d ame      -4.612  13.619  71.603  0.00  0.00     0.075 H 
ATOM     83  C28 non d ame      -4.442  13.555  68.558  0.00  0.00     0.193 C 
ATOM     84  H42 non d ame      -3.297  15.111  69.525  0.00  0.00     0.280 HD
ATOM     85  H43 non d ame      -2.995  13.509  70.160  0.00  0.00     0.280 HD
ATOM     86  H44 non d ame      -4.370  12.488  68.346  0.00  0.00     0.129 H 
ATOM     87  H37 non d ame      -5.951  12.602  68.712  0.00  0.00     0.046 H 
BRANCH  83  88
ATOM     88  O6  non d ame      -4.081  14.213  67.342  0.00  0.00    -0.369 OA
ATOM     89  H45 non d ame      -3.150  14.064  67.163  0.00  0.00     0.212 HD
ENDBRANCH  83  88
ENDBRANCH  72  75
ENDBRANCH  47  72
ENDBRANCH  45  47
ENDBRANCH   1  43
BRANCH   1  90
ATOM     90  C16 non d ame     -11.088  11.639  65.722  0.00  0.00    -0.035 C 
ATOM     91  H21 non d ame     -11.440  10.694  65.308  0.00  0.00     0.037 H 
ATOM     92  H22 non d ame     -11.326  11.904  66.753  0.00  0.00     0.037 H 
BRANCH  90  93
ATOM     93  C17 non d ame     -11.693  12.766  64.826  0.00  0.00    -0.059 C 
ATOM     94  H23 non d ame     -10.867  13.378  64.461  0.00  0.00     0.038 H 
BRANCH  93  95
ATOM     95  C18 non d ame     -12.444  12.191  63.583  0.00  0.00    -0.073 C 
ATOM     96  H24 non d ame     -13.408  11.790  63.895  0.00  0.00     0.028 H 
ATOM     97  H25 non d ame     -12.601  12.986  62.853  0.00  0.00     0.028 H 
ATOM     98  H26 non d ame     -11.848  11.397  63.133  0.00  0.00     0.028 H 
ENDBRANCH  93  95
BRANCH  93  99
ATOM     99  C19 non d ame     -12.610  13.681  65.642  0.00  0.00    -0.073 C 
ATOM    100  H27 non d ame     -12.096  13.993  66.551  0.00  0.00     0.028 H 
ATOM    101  H28 non d ame     -12.867  14.560  65.049  0.00  0.00     0.028 H 
ATOM    102  H29 non d ame     -13.520  13.142  65.905  0.00  0.00     0.028 H 
ENDBRANCH  93  99
ENDBRANCH  90  93
ENDBRANCH   1  90
TORSDOF 26
ENDMDL
MODEL 12
REMARK VINA RESULT:      -6.1      2.478      6.645
REMARK  26 active torsions:
REMARK  status: ('A' for Active; 'I' for Inactive)
REMARK    1  A    between atoms: C2_2  and  C3_3 
REMARK    2  A    between atoms: C4_6  and  C5_7 
REMARK       I    between atoms: C5_7  and  N2_9 
REMARK    3  A    between atoms: N2_9  and  C6_10 
REMARK    4  A    between atoms: C6_10  and  C7_11 
REMARK    5  A    between atoms: C6_10  and  C8_13 
REMARK       I    between atoms: C7_11  and  N3_14 
REMARK    6  A    between atoms: N3_14  and  C9_15 
REMARK    7  A    between atoms: C9_15  and  C10_16 
REMARK    8  A    between atoms: C9_15  and  C11_18 
REMARK       I    between atoms: C10_16  and  N4_21 
REMARK    9  A    between atoms: C11_18  and  C12_19 
REMARK   10  A    between atoms: C11_18  and  C13_20 
REMARK   11  A    between atoms: N4_21  and  C14_22 
REMARK   12  A    between atoms: C14_22  and  C15_23 
REMARK   13  A    between atoms: C14_22  and  C16_25 
REMARK       I    between atoms: C15_23  and  N6_40 
REMARK   14  A    between atoms: C16_25  and  C17_26 
REMARK   15  A    between atoms: C17_26  and  C18_27 
REMARK   16  A    between atoms: C17_26  and  C19_28 
REMARK   17  A    between atoms: C20_29  and  C21_30 
REMARK   18  A    between atoms: C20_29  and  C24_33 
REMARK   19  A    between atoms: C20_29  and  N6_40 
REMARK   20  A    between atoms: C21_30  and  C22_31 
REMARK   21  A    between atoms: C22_31  and  C23_32 
REMARK   22  A    between atoms: C23_32  and  O8_43 
REMARK   23  A    between atoms: C24_33  and  C25_34 
REMARK   24  A    between atoms: C28_38  and  O6_39 
REMARK   25  A    between atoms: C29_42  and  O8_43 
REMARK   26  A    between atoms: C29_42  and  C35_49 
ROOT
ATOM      1  C14 non d ame      -8.247   8.823  67.781  0.00  0.00     0.089 C 
ATOM      2  H20 non d ame      -7.315   8.265  67.697  0.00  0.00     0.087 H 
ENDROOT
BRANCH   1   3
ATOM      3  N4  non d ame      -7.912  10.177  68.196  0.00  0.00    -0.346 N 
ATOM      4  C10 non d ame      -6.631  10.822  67.730  0.00  0.00     0.241 C 
ATOM      5  O4  non d ame      -5.884  10.230  67.023  0.00  0.00    -0.271 OA
ATOM      6  H19 non d ame      -8.560  10.663  68.800  0.00  0.00     0.163 HD
BRANCH   4   7
ATOM      7  C9  non d ame      -6.303  12.226  68.165  0.00  0.00     0.092 C 
ATOM      8  H11 non d ame      -5.491  12.612  67.548  0.00  0.00     0.088 H 
BRANCH   7   9
ATOM      9  N3  non d ame      -7.465  13.091  67.943  0.00  0.00    -0.346 N 
ATOM     10  C7  non d ame      -7.286  14.408  67.383  0.00  0.00     0.240 C 
ATOM     11  O3  non d ame      -6.214  14.788  67.107  0.00  0.00    -0.271 OA
ATOM     12  H10 non d ame      -8.396  12.778  68.178  0.00  0.00     0.163 HD
BRANCH  10  13
ATOM     13  C6  non d ame      -8.527  15.326  67.153  0.00  0.00     0.086 C 
ATOM     14  H6  non d ame      -9.166  14.975  66.342  0.00  0.00     0.086 H 
BRANCH  13  15
ATOM     15  N2  non d ame      -9.344  15.326  68.355  0.00  0.00    -0.343 N 
ATOM     16  C5  non d ame     -10.800  15.219  68.238  0.00  0.00     0.273 C 
ATOM     17  O2  non d ame     -11.304  15.136  67.172  0.00  0.00    -0.266 OA
ATOM     18  H5  non d ame      -8.904  15.399  69.262  0.00  0.00     0.163 HD
BRANCH  16  19
ATOM     19  C4  non d ame     -11.675  15.216  69.501  0.00  0.00     0.154 A 
ATOM     20  C1  non d ame     -12.341  14.094  70.089  0.00  0.00    -0.017 A 
ATOM     21  C2  non d ame     -13.004  14.617  71.221  0.00  0.00     0.077 A 
ATOM     22  H1  non d ame     -12.343  13.059  69.746  0.00  0.00     0.091 H 
ATOM     23  O1  non d ame     -12.742  15.891  71.270  0.00  0.00    -0.218 OA
ATOM     24  N1  non d ame     -11.969  16.264  70.276  0.00  0.00    -0.123 NA
BRANCH  21  25
ATOM     25  C3  non d ame     -13.866  13.834  72.204  0.00  0.00    -0.029 C 
ATOM     26  H2  non d ame     -14.911  14.115  72.075  0.00  0.00     0.036 H 
ATOM     27  H3  non d ame     -13.750  12.767  72.017  0.00  0.00     0.036 H 
ATOM     28  H4  non d ame     -13.552  14.061  73.223  0.00  0.00     0.036 H 
ENDBRANCH  21  25
ENDBRANCH  16  19
ENDBRANCH  13  15
BRANCH  13  29
ATOM     29  C8  non d ame      -8.068  16.727  66.840  0.00  0.00    -0.049 C 
ATOM     30  H7  non d ame      -8.405  17.006  65.842  0.00  0.00     0.030 H 
ATOM     31  H8  non d ame      -8.487  17.419  67.571  0.00  0.00     0.030 H 
ATOM     32  H9  non d ame      -6.980  16.770  66.880  0.00  0.00     0.030 H 
ENDBRANCH  13  29
ENDBRANCH  10  13
ENDBRANCH   7   9
BRANCH   7  33
ATOM     33  C11 non d ame      -5.939  12.228  69.679  0.00  0.00    -0.033 C 
ATOM     34  H12 non d ame      -6.589  11.506  70.174  0.00  0.00     0.042 H 
BRANCH  33  35
ATOM     35  C12 non d ame      -4.466  11.769  69.910  0.00  0.00    -0.071 C 
ATOM     36  H13 non d ame      -4.333  10.761  69.517  0.00  0.00     0.028 H 
ATOM     37  H14 non d ame      -3.788  12.451  69.396  0.00  0.00     0.028 H 
ATOM     38  H15 non d ame      -4.247  11.775  70.977  0.00  0.00     0.028 H 
ENDBRANCH  33  35
BRANCH  33  39
ATOM     39  C13 non d ame      -6.202  13.631  70.315  0.00  0.00    -0.071 C 
ATOM     40  H16 non d ame      -6.280  14.379  69.527  0.00  0.00     0.028 H 
ATOM     41  H17 non d ame      -7.133  13.603  70.883  0.00  0.00     0.028 H 
ATOM     42  H18 non d ame      -5.378  13.888  70.980  0.00  0.00     0.028 H 
ENDBRANCH  33  39
ENDBRANCH   7  33
ENDBRANCH   4   7
ENDBRANCH   1   3
BRANCH   1  43
ATOM     43  C15 non d ame      -9.012   8.895  66.428  0.00  0.00     0.240 C 
ATOM     44  O5  non d ame     -10.179   8.673  66.396  0.00  0.00    -0.271 OA
ATOM     45  N6  non d ame      -8.290   9.250  65.173  0.00  0.00    -0.355 N 
ATOM     46  H46 non d ame      -7.300   9.445  65.188  0.00  0.00     0.162 HD
BRANCH  45  47
ATOM     47  C20 non d ame      -9.032   9.315  63.895  0.00  0.00     0.013 C 
ATOM     48  H30 non d ame      -9.948   8.737  64.009  0.00  0.00     0.072 H 
BRANCH  47  49
ATOM     49  C21 non d ame      -8.182   8.724  62.793  0.00  0.00    -0.038 C 
ATOM     50  H31 non d ame      -8.286   7.643  62.888  0.00  0.00     0.036 H 
ATOM     51  H32 non d ame      -8.498   9.224  61.877  0.00  0.00     0.036 H 
BRANCH  49  52
ATOM     52  C22 non d ame      -6.679   9.035  62.963  0.00  0.00     0.018 C 
ATOM     53  H33 non d ame      -6.269   9.075  61.954  0.00  0.00     0.048 H 
ATOM     54  H34 non d ame      -6.630   9.914  63.606  0.00  0.00     0.048 H 
BRANCH  52  55
ATOM     55  C23 non d ame      -5.889   7.920  63.703  0.00  0.00     0.259 C 
ATOM     56  O7  non d ame      -4.742   8.071  63.974  0.00  0.00    -0.265 OA
BRANCH  55  57
ATOM     57  O8  non d ame      -6.549   6.706  64.042  0.00  0.00    -0.317 OA
BRANCH  57  58
ATOM     58  C29 non d ame      -6.204   6.197  65.334  0.00  0.00     0.052 C 
ATOM     59  H47 non d ame      -5.297   5.611  65.187  0.00  0.00     0.082 H 
ATOM     60  H48 non d ame      -6.194   7.061  65.998  0.00  0.00     0.082 H 
BRANCH  58  61
ATOM     61  C35 non d ame      -7.338   5.241  65.790  0.00  0.00    -0.034 A 
ATOM     62  C30 non d ame      -8.614   5.367  65.252  0.00  0.00    -0.075 A 
ATOM     63  C31 non d ame      -9.633   4.508  65.661  0.00  0.00    -0.082 A 
ATOM     64  H49 non d ame      -8.817   6.138  64.508  0.00  0.00     0.084 H 
ATOM     65  C32 non d ame      -9.372   3.521  66.616  0.00  0.00    -0.083 A 
ATOM     66  H50 non d ame     -10.632   4.608  65.236  0.00  0.00     0.083 H 
ATOM     67  C33 non d ame      -8.097   3.401  67.153  0.00  0.00    -0.082 A 
ATOM     68  H51 non d ame     -10.163   2.845  66.942  0.00  0.00     0.083 H 
ATOM     69  C34 non d ame      -7.076   4.256  66.744  0.00  0.00    -0.075 A 
ATOM     70  H52 non d ame      -7.897   2.632  67.899  0.00  0.00     0.083 H 
ATOM     71  H53 non d ame      -6.077   4.155  67.170  0.00  0.00     0.084 H 
ENDBRANCH  58  61
ENDBRANCH  57  58
ENDBRANCH  55  57
ENDBRANCH  52  55
ENDBRANCH  49  52
ENDBRANCH  47  49
BRANCH  47  72
ATOM     72  C24 non d ame      -9.360  10.769  63.562  0.00  0.00    -0.039 C 
ATOM     73  H35 non d ame      -8.539  11.354  63.977  0.00  0.00     0.036 H 
ATOM     74  H36 non d ame      -9.551  10.785  62.489  0.00  0.00     0.036 H 
BRANCH  72  75
ATOM     75  C25 non d ame     -10.702  11.256  64.289  0.00  0.00    -0.001 C 
ATOM     76  C26 non d ame     -11.679  12.018  63.209  0.00  0.00    -0.035 C 
ATOM     77  C27 non d ame     -12.044  13.218  63.721  0.00  0.00     0.085 C 
ATOM     78  H38 non d ame     -11.114  12.283  62.316  0.00  0.00     0.036 H 
ATOM     79  H39 non d ame     -12.624  11.483  63.117  0.00  0.00     0.036 H 
ATOM     80  N5  non d ame     -11.145  13.484  64.904  0.00  0.00    -0.049 N 
ATOM     81  H40 non d ame     -11.827  13.947  62.939  0.00  0.00     0.075 H 
ATOM     82  H41 non d ame     -13.066  13.085  64.075  0.00  0.00     0.075 H 
ATOM     83  C28 non d ame     -10.441  12.074  65.253  0.00  0.00     0.193 C 
ATOM     84  H42 non d ame     -10.435  14.128  64.585  0.00  0.00     0.280 HD
ATOM     85  H43 non d ame     -11.750  13.740  65.672  0.00  0.00     0.280 HD
ATOM     86  H44 non d ame     -10.774  11.485  66.108  0.00  0.00     0.129 H 
ATOM     87  H37 non d ame     -11.151  10.469  64.895  0.00  0.00     0.046 H 
BRANCH  83  88
ATOM     88  O6  non d ame      -9.036  12.257  65.439  0.00  0.00    -0.369 OA
ATOM     89  H45 non d ame      -8.571  11.465  65.162  0.00  0.00     0.212 HD
ENDBRANCH  83  88
ENDBRANCH  72  75
ENDBRANCH  47  72
ENDBRANCH  45  47
ENDBRANCH   1  43
BRANCH   1  90
ATOM     90  C16 non d ame      -9.136   8.186  68.837  0.00  0.00    -0.035 C 
ATOM     91  H21 non d ame      -8.686   8.455  69.793  0.00  0.00     0.037 H 
ATOM     92  H22 non d ame     -10.148   8.515  68.599  0.00  0.00     0.037 H 
BRANCH  90  93
ATOM     93  C17 non d ame      -9.155   6.625  68.781  0.00  0.00    -0.059 C 
ATOM     94  H23 non d ame      -8.826   6.326  67.786  0.00  0.00     0.038 H 
BRANCH  93  95
ATOM     95  C18 non d ame      -8.176   5.987  69.818  0.00  0.00    -0.073 C 
ATOM     96  H24 non d ame      -8.727   5.305  70.465  0.00  0.00     0.028 H 
ATOM     97  H25 non d ame      -7.396   5.437  69.291  0.00  0.00     0.028 H 
ATOM     98  H26 non d ame      -7.722   6.773  70.421  0.00  0.00     0.028 H 
ENDBRANCH  93  95
BRANCH  93  99
ATOM     99  C19 non d ame     -10.576   6.089  68.972  0.00  0.00    -0.073 C 
ATOM    100  H27 non d ame     -11.002   6.503  69.886  0.00  0.00     0.028 H 
ATOM    101  H28 non d ame     -11.191   6.379  68.119  0.00  0.00     0.028 H 
ATOM    102  H29 non d ame     -10.547   5.002  69.044  0.00  0.00     0.028 H 
ENDBRANCH  93  99
ENDBRANCH  90  93
ENDBRANCH   1  90
TORSDOF 26
ENDMDL
MODEL 13
REMARK VINA RESULT:      -6.1      2.680      5.315
REMARK  26 active torsions:
REMARK  status: ('A' for Active; 'I' for Inactive)
REMARK    1  A    between atoms: C2_2  and  C3_3 
REMARK    2  A    between atoms: C4_6  and  C5_7 
REMARK       I    between atoms: C5_7  and  N2_9 
REMARK    3  A    between atoms: N2_9  and  C6_10 
REMARK    4  A    between atoms: C6_10  and  C7_11 
REMARK    5  A    between atoms: C6_10  and  C8_13 
REMARK       I    between atoms: C7_11  and  N3_14 
REMARK    6  A    between atoms: N3_14  and  C9_15 
REMARK    7  A    between atoms: C9_15  and  C10_16 
REMARK    8  A    between atoms: C9_15  and  C11_18 
REMARK       I    between atoms: C10_16  and  N4_21 
REMARK    9  A    between atoms: C11_18  and  C12_19 
REMARK   10  A    between atoms: C11_18  and  C13_20 
REMARK   11  A    between atoms: N4_21  and  C14_22 
REMARK   12  A    between atoms: C14_22  and  C15_23 
REMARK   13  A    between atoms: C14_22  and  C16_25 
REMARK       I    between atoms: C15_23  and  N6_40 
REMARK   14  A    between atoms: C16_25  and  C17_26 
REMARK   15  A    between atoms: C17_26  and  C18_27 
REMARK   16  A    between atoms: C17_26  and  C19_28 
REMARK   17  A    between atoms: C20_29  and  C21_30 
REMARK   18  A    between atoms: C20_29  and  C24_33 
REMARK   19  A    between atoms: C20_29  and  N6_40 
REMARK   20  A    between atoms: C21_30  and  C22_31 
REMARK   21  A    between atoms: C22_31  and  C23_32 
REMARK   22  A    between atoms: C23_32  and  O8_43 
REMARK   23  A    between atoms: C24_33  and  C25_34 
REMARK   24  A    between atoms: C28_38  and  O6_39 
REMARK   25  A    between atoms: C29_42  and  O8_43 
REMARK   26  A    between atoms: C29_42  and  C35_49 
ROOT
ATOM      1  C14 non d ame     -10.327  11.097  65.000  0.00  0.00     0.089 C 
ATOM      2  H20 non d ame     -11.298  10.602  64.966  0.00  0.00     0.087 H 
ENDROOT
BRANCH   1   3
ATOM      3  N4  non d ame      -9.823  10.982  66.360  0.00  0.00    -0.346 N 
ATOM      4  C10 non d ame     -10.243   9.825  67.232  0.00  0.00     0.241 C 
ATOM      5  O4  non d ame     -10.990   9.002  66.818  0.00  0.00    -0.271 OA
ATOM      6  H19 non d ame      -9.190  11.694  66.694  0.00  0.00     0.163 HD
BRANCH   4   7
ATOM      7  C9  non d ame      -9.707   9.718  68.636  0.00  0.00     0.092 C 
ATOM      8  H11 non d ame      -9.134   8.796  68.731  0.00  0.00     0.088 H 
BRANCH   7   9
ATOM      9  N3  non d ame      -8.785  10.829  68.893  0.00  0.00    -0.346 N 
ATOM     10  C7  non d ame      -7.364  10.588  68.949  0.00  0.00     0.240 C 
ATOM     11  O3  non d ame      -6.945   9.506  68.791  0.00  0.00    -0.271 OA
ATOM     12  H10 non d ame      -9.131  11.767  69.034  0.00  0.00     0.163 HD
BRANCH  10  13
ATOM     13  C6  non d ame      -6.388  11.773  69.227  0.00  0.00     0.086 C 
ATOM     14  H6  non d ame      -5.587  11.841  68.491  0.00  0.00     0.086 H 
BRANCH  13  15
ATOM     15  N2  non d ame      -7.129  13.021  69.151  0.00  0.00    -0.343 N 
ATOM     16  C5  non d ame      -7.577  13.516  67.847  0.00  0.00     0.273 C 
ATOM     17  O2  non d ame      -7.335  12.904  66.866  0.00  0.00    -0.266 OA
ATOM     18  H5  non d ame      -7.330  13.539  69.995  0.00  0.00     0.163 HD
BRANCH  16  19
ATOM     19  C4  non d ame      -8.363  14.833  67.753  0.00  0.00     0.154 A 
ATOM     20  C1  non d ame      -9.072  15.337  66.616  0.00  0.00    -0.017 A 
ATOM     21  C2  non d ame      -9.616  16.569  67.044  0.00  0.00     0.077 A 
ATOM     22  H1  non d ame      -9.176  14.880  65.632  0.00  0.00     0.091 H 
ATOM     23  O1  non d ame      -9.257  16.741  68.282  0.00  0.00    -0.218 OA
ATOM     24  N1  non d ame      -8.525  15.742  68.718  0.00  0.00    -0.123 NA
BRANCH  21  25
ATOM     25  C3  non d ame     -10.466  17.518  66.209  0.00  0.00    -0.029 C 
ATOM     26  H2  non d ame     -10.213  17.400  65.155  0.00  0.00     0.036 H 
ATOM     27  H3  non d ame     -11.520  17.287  66.358  0.00  0.00     0.036 H 
ATOM     28  H4  non d ame     -10.272  18.546  66.517  0.00  0.00     0.036 H 
ENDBRANCH  21  25
ENDBRANCH  16  19
ENDBRANCH  13  15
BRANCH  13  29
ATOM     29  C8  non d ame      -5.779  11.616  70.597  0.00  0.00    -0.049 C 
ATOM     30  H7  non d ame      -6.572  11.560  71.343  0.00  0.00     0.030 H 
ATOM     31  H8  non d ame      -5.185  10.703  70.628  0.00  0.00     0.030 H 
ATOM     32  H9  non d ame      -5.141  12.473  70.811  0.00  0.00     0.030 H 
ENDBRANCH  13  29
ENDBRANCH  10  13
ENDBRANCH   7   9
BRANCH   7  33
ATOM     33  C11 non d ame     -10.887   9.783  69.648  0.00  0.00    -0.033 C 
ATOM     34  H12 non d ame     -11.640   9.065  69.322  0.00  0.00     0.042 H 
BRANCH  33  35
ATOM     35  C12 non d ame     -10.431   9.365  71.081  0.00  0.00    -0.071 C 
ATOM     36  H13 non d ame     -10.748  10.123  71.798  0.00  0.00     0.028 H 
ATOM     37  H14 non d ame     -10.882   8.408  71.341  0.00  0.00     0.028 H 
ATOM     38  H15 non d ame      -9.345   9.274  71.104  0.00  0.00     0.028 H 
ENDBRANCH  33  35
BRANCH  33  39
ATOM     39  C13 non d ame     -11.543  11.201  69.654  0.00  0.00    -0.071 C 
ATOM     40  H16 non d ame     -12.009  11.382  70.622  0.00  0.00     0.028 H 
ATOM     41  H17 non d ame     -10.778  11.956  69.472  0.00  0.00     0.028 H 
ATOM     42  H18 non d ame     -12.299  11.254  68.870  0.00  0.00     0.028 H 
ENDBRANCH  33  39
ENDBRANCH   7  33
ENDBRANCH   4   7
ENDBRANCH   1   3
BRANCH   1  43
ATOM     43  C15 non d ame      -9.300  10.442  64.033  0.00  0.00     0.240 C 
ATOM     44  O5  non d ame      -8.843  11.076  63.138  0.00  0.00    -0.271 OA
ATOM     45  N6  non d ame      -8.879   9.025  64.229  0.00  0.00    -0.355 N 
ATOM     46  H46 non d ame      -9.256   8.478  64.989  0.00  0.00     0.162 HD
BRANCH  45  47
ATOM     47  C20 non d ame      -7.900   8.417  63.302  0.00  0.00     0.013 C 
ATOM     48  H30 non d ame      -7.956   8.954  62.355  0.00  0.00     0.072 H 
BRANCH  47  49
ATOM     49  C21 non d ame      -8.248   6.961  63.093  0.00  0.00    -0.038 C 
ATOM     50  H31 non d ame      -9.328   6.894  63.226  0.00  0.00     0.036 H 
ATOM     51  H32 non d ame      -7.798   6.685  62.139  0.00  0.00     0.036 H 
BRANCH  49  52
ATOM     52  C22 non d ame      -7.619   6.035  64.156  0.00  0.00     0.018 C 
ATOM     53  H33 non d ame      -7.376   5.109  63.635  0.00  0.00     0.048 H 
ATOM     54  H34 non d ame      -6.827   6.620  64.626  0.00  0.00     0.048 H 
BRANCH  52  55
ATOM     55  C23 non d ame      -8.595   5.641  65.299  0.00  0.00     0.259 C 
ATOM     56  O7  non d ame      -9.106   4.568  65.313  0.00  0.00    -0.265 OA
BRANCH  55  57
ATOM     57  O8  non d ame      -8.882   6.582  66.326  0.00  0.00    -0.317 OA
BRANCH  57  58
ATOM     58  C29 non d ame      -8.069   6.438  67.493  0.00  0.00     0.052 C 
ATOM     59  H47 non d ame      -7.470   5.543  67.326  0.00  0.00     0.082 H 
ATOM     60  H48 non d ame      -7.580   7.402  67.633  0.00  0.00     0.082 H 
BRANCH  58  61
ATOM     61  C35 non d ame      -9.007   6.184  68.703  0.00  0.00    -0.034 A 
ATOM     62  C30 non d ame     -10.386   6.153  68.521  0.00  0.00    -0.075 A 
ATOM     63  C31 non d ame     -11.229   5.925  69.607  0.00  0.00    -0.082 A 
ATOM     64  H49 non d ame     -10.806   6.307  67.526  0.00  0.00     0.084 H 
ATOM     65  C32 non d ame     -10.688   5.730  70.881  0.00  0.00    -0.083 A 
ATOM     66  H50 non d ame     -12.309   5.899  69.461  0.00  0.00     0.083 H 
ATOM     67  C33 non d ame      -9.312   5.765  71.059  0.00  0.00    -0.082 A 
ATOM     68  H51 non d ame     -11.340   5.550  71.736  0.00  0.00     0.083 H 
ATOM     69  C34 non d ame      -8.465   5.990  69.975  0.00  0.00    -0.075 A 
ATOM     70  H52 non d ame      -8.893   5.614  72.054  0.00  0.00     0.083 H 
ATOM     71  H53 non d ame      -7.385   6.015  70.122  0.00  0.00     0.084 H 
ENDBRANCH  58  61
ENDBRANCH  57  58
ENDBRANCH  55  57
ENDBRANCH  52  55
ENDBRANCH  49  52
ENDBRANCH  47  49
BRANCH  47  72
ATOM     72  C24 non d ame      -6.494   8.526  63.891  0.00  0.00    -0.039 C 
ATOM     73  H35 non d ame      -6.621   9.021  64.854  0.00  0.00     0.036 H 
ATOM     74  H36 non d ame      -6.083   7.518  63.846  0.00  0.00     0.036 H 
BRANCH  72  75
ATOM     75  C25 non d ame      -5.549   9.463  62.999  0.00  0.00    -0.001 C 
ATOM     76  C26 non d ame      -4.070   8.765  62.828  0.00  0.00    -0.035 C 
ATOM     77  C27 non d ame      -3.119   9.669  63.165  0.00  0.00     0.085 C 
ATOM     78  H38 non d ame      -3.942   7.974  63.567  0.00  0.00     0.036 H 
ATOM     79  H39 non d ame      -3.870   8.565  61.775  0.00  0.00     0.036 H 
ATOM     80  N5  non d ame      -3.822  10.809  63.861  0.00  0.00    -0.049 N 
ATOM     81  H40 non d ame      -2.473   9.160  63.880  0.00  0.00     0.075 H 
ATOM     82  H41 non d ame      -2.711  10.027  62.220  0.00  0.00     0.075 H 
ATOM     83  C28 non d ame      -5.394  10.623  63.543  0.00  0.00     0.193 C 
ATOM     84  H42 non d ame      -3.675  10.674  64.851  0.00  0.00     0.280 HD
ATOM     85  H43 non d ame      -3.502  11.657  63.414  0.00  0.00     0.280 HD
ATOM     86  H44 non d ame      -5.888  11.256  62.805  0.00  0.00     0.129 H 
ATOM     87  H37 non d ame      -6.045   9.803  62.089  0.00  0.00     0.046 H 
BRANCH  83  88
ATOM     88  O6  non d ame      -6.159  10.764  64.741  0.00  0.00    -0.369 OA
ATOM     89  H45 non d ame      -5.705  11.359  65.342  0.00  0.00     0.212 HD
ENDBRANCH  83  88
ENDBRANCH  72  75
ENDBRANCH  47  72
ENDBRANCH  45  47
ENDBRANCH   1  43
BRANCH   1  90
ATOM     90  C16 non d ame     -10.488  12.569  64.654  0.00  0.00    -0.035 C 
ATOM     91  H21 non d ame     -10.263  13.108  65.575  0.00  0.00     0.037 H 
ATOM     92  H22 non d ame      -9.873  12.726  63.767  0.00  0.00     0.037 H 
BRANCH  90  93
ATOM     93  C17 non d ame     -11.946  12.964  64.256  0.00  0.00    -0.059 C 
ATOM     94  H23 non d ame     -11.883  13.782  63.539  0.00  0.00     0.038 H 
BRANCH  93  95
ATOM     95  C18 non d ame     -12.708  11.786  63.569  0.00  0.00    -0.073 C 
ATOM     96  H24 non d ame     -12.049  10.921  63.495  0.00  0.00     0.028 H 
ATOM     97  H25 non d ame     -13.585  11.525  64.163  0.00  0.00     0.028 H 
ATOM     98  H26 non d ame     -13.024  12.090  62.571  0.00  0.00     0.028 H 
ENDBRANCH  93  95
BRANCH  93  99
ATOM     99  C19 non d ame     -12.722  13.482  65.469  0.00  0.00    -0.073 C 
ATOM    100  H27 non d ame     -12.040  13.999  66.144  0.00  0.00     0.028 H 
ATOM    101  H28 non d ame     -13.498  14.172  65.136  0.00  0.00     0.028 H 
ATOM    102  H29 non d ame     -13.183  12.643  65.991  0.00  0.00     0.028 H 
ENDBRANCH  93  99
ENDBRANCH  90  93
ENDBRANCH   1  90
TORSDOF 26
ENDMDL
MODEL 14
REMARK VINA RESULT:      -6.1      2.997      7.839
REMARK  26 active torsions:
REMARK  status: ('A' for Active; 'I' for Inactive)
REMARK    1  A    between atoms: C2_2  and  C3_3 
REMARK    2  A    between atoms: C4_6  and  C5_7 
REMARK       I    between atoms: C5_7  and  N2_9 
REMARK    3  A    between atoms: N2_9  and  C6_10 
REMARK    4  A    between atoms: C6_10  and  C7_11 
REMARK    5  A    between atoms: C6_10  and  C8_13 
REMARK       I    between atoms: C7_11  and  N3_14 
REMARK    6  A    between atoms: N3_14  and  C9_15 
REMARK    7  A    between atoms: C9_15  and  C10_16 
REMARK    8  A    between atoms: C9_15  and  C11_18 
REMARK       I    between atoms: C10_16  and  N4_21 
REMARK    9  A    between atoms: C11_18  and  C12_19 
REMARK   10  A    between atoms: C11_18  and  C13_20 
REMARK   11  A    between atoms: N4_21  and  C14_22 
REMARK   12  A    between atoms: C14_22  and  C15_23 
REMARK   13  A    between atoms: C14_22  and  C16_25 
REMARK       I    between atoms: C15_23  and  N6_40 
REMARK   14  A    between atoms: C16_25  and  C17_26 
REMARK   15  A    between atoms: C17_26  and  C18_27 
REMARK   16  A    between atoms: C17_26  and  C19_28 
REMARK   17  A    between atoms: C20_29  and  C21_30 
REMARK   18  A    between atoms: C20_29  and  C24_33 
REMARK   19  A    between atoms: C20_29  and  N6_40 
REMARK   20  A    between atoms: C21_30  and  C22_31 
REMARK   21  A    between atoms: C22_31  and  C23_32 
REMARK   22  A    between atoms: C23_32  and  O8_43 
REMARK   23  A    between atoms: C24_33  and  C25_34 
REMARK   24  A    between atoms: C28_38  and  O6_39 
REMARK   25  A    between atoms: C29_42  and  O8_43 
REMARK   26  A    between atoms: C29_42  and  C35_49 
ROOT
ATOM      1  C14 non d ame      -9.732  11.596  65.721  0.00  0.00     0.089 C 
ATOM      2  H20 non d ame      -9.503  11.908  64.702  0.00  0.00     0.087 H 
ENDROOT
BRANCH   1   3
ATOM      3  N4  non d ame      -9.067  10.321  65.948  0.00  0.00    -0.346 N 
ATOM      4  C10 non d ame      -8.180   9.724  64.885  0.00  0.00     0.241 C 
ATOM      5  O4  non d ame      -8.019  10.287  63.853  0.00  0.00    -0.271 OA
ATOM      6  H19 non d ame      -9.219   9.857  66.833  0.00  0.00     0.163 HD
BRANCH   4   7
ATOM      7  C9  non d ame      -7.495   8.407  65.140  0.00  0.00     0.092 C 
ATOM      8  H11 non d ame      -6.458   8.474  64.813  0.00  0.00     0.088 H 
BRANCH   7   9
ATOM      9  N3  non d ame      -7.480   8.135  66.580  0.00  0.00    -0.346 N 
ATOM     10  C7  non d ame      -6.278   8.365  67.344  0.00  0.00     0.240 C 
ATOM     11  O3  non d ame      -5.314   8.767  66.815  0.00  0.00    -0.271 OA
ATOM     12  H10 non d ame      -8.303   7.786  67.050  0.00  0.00     0.163 HD
BRANCH  10  13
ATOM     13  C6  non d ame      -6.266   8.070  68.876  0.00  0.00     0.086 C 
ATOM     14  H6  non d ame      -5.714   8.817  69.445  0.00  0.00     0.086 H 
BRANCH  13  15
ATOM     15  N2  non d ame      -7.632   8.096  69.371  0.00  0.00    -0.343 N 
ATOM     16  C5  non d ame      -8.028   9.119  70.343  0.00  0.00     0.273 C 
ATOM     17  O2  non d ame      -7.238   9.913  70.722  0.00  0.00    -0.266 OA
ATOM     18  H5  non d ame      -8.300   7.412  69.044  0.00  0.00     0.163 HD
BRANCH  16  19
ATOM     19  C4  non d ame      -9.469   9.160  70.874  0.00  0.00     0.154 A 
ATOM     20  C1  non d ame     -10.578   9.869  70.312  0.00  0.00    -0.017 A 
ATOM     21  C2  non d ame     -11.664   9.581  71.168  0.00  0.00     0.077 A 
ATOM     22  H1  non d ame     -10.591  10.496  69.421  0.00  0.00     0.091 H 
ATOM     23  O1  non d ame     -11.221   8.797  72.106  0.00  0.00    -0.218 OA
ATOM     24  N1  non d ame      -9.943   8.537  71.957  0.00  0.00    -0.123 NA
BRANCH  21  25
ATOM     25  C3  non d ame     -13.091  10.094  71.018  0.00  0.00    -0.029 C 
ATOM     26  H2  non d ame     -13.580   9.573  70.194  0.00  0.00     0.036 H 
ATOM     27  H3  non d ame     -13.641   9.912  71.941  0.00  0.00     0.036 H 
ATOM     28  H4  non d ame     -13.072  11.164  70.810  0.00  0.00     0.036 H 
ENDBRANCH  21  25
ENDBRANCH  16  19
ENDBRANCH  13  15
BRANCH  13  29
ATOM     29  C8  non d ame      -5.653   6.715  69.125  0.00  0.00    -0.049 C 
ATOM     30  H7  non d ame      -6.372   5.938  68.868  0.00  0.00     0.030 H 
ATOM     31  H8  non d ame      -4.760   6.602  68.511  0.00  0.00     0.030 H 
ATOM     32  H9  non d ame      -5.384   6.627  70.178  0.00  0.00     0.030 H 
ENDBRANCH  13  29
ENDBRANCH  10  13
ENDBRANCH   7   9
BRANCH   7  33
ATOM     33  C11 non d ame      -8.268   7.271  64.408  0.00  0.00    -0.033 C 
ATOM     34  H12 non d ame      -9.298   7.603  64.281  0.00  0.00     0.042 H 
BRANCH  33  35
ATOM     35  C12 non d ame      -7.681   7.009  62.986  0.00  0.00    -0.071 C 
ATOM     36  H13 non d ame      -8.463   7.149  62.239  0.00  0.00     0.028 H 
ATOM     37  H14 non d ame      -6.868   7.709  62.794  0.00  0.00     0.028 H 
ATOM     38  H15 non d ame      -7.304   5.989  62.931  0.00  0.00     0.028 H 
ENDBRANCH  33  35
BRANCH  33  39
ATOM     39  C13 non d ame      -8.283   5.964  65.264  0.00  0.00    -0.071 C 
ATOM     40  H16 non d ame      -7.411   5.358  65.018  0.00  0.00     0.028 H 
ATOM     41  H17 non d ame      -8.259   6.223  66.323  0.00  0.00     0.028 H 
ATOM     42  H18 non d ame      -9.190   5.400  65.049  0.00  0.00     0.028 H 
ENDBRANCH  33  39
ENDBRANCH   7  33
ENDBRANCH   4   7
ENDBRANCH   1   3
BRANCH   1  43
ATOM     43  C15 non d ame      -9.222  12.617  66.778  0.00  0.00     0.240 C 
ATOM     44  O5  non d ame      -9.024  12.262  67.895  0.00  0.00    -0.271 OA
ATOM     45  N6  non d ame      -8.971  14.035  66.395  0.00  0.00    -0.355 N 
ATOM     46  H46 non d ame      -9.130  14.347  65.448  0.00  0.00     0.162 HD
BRANCH  45  47
ATOM     47  C20 non d ame      -8.484  14.993  67.411  0.00  0.00     0.013 C 
ATOM     48  H30 non d ame      -9.086  14.864  68.310  0.00  0.00     0.072 H 
BRANCH  47  49
ATOM     49  C21 non d ame      -8.638  16.402  66.884  0.00  0.00    -0.038 C 
ATOM     50  H31 non d ame      -8.298  17.056  67.687  0.00  0.00     0.036 H 
ATOM     51  H32 non d ame      -8.131  16.413  65.919  0.00  0.00     0.036 H 
BRANCH  49  52
ATOM     52  C22 non d ame     -10.110  16.780  66.607  0.00  0.00     0.018 C 
ATOM     53  H33 non d ame     -10.076  17.573  65.859  0.00  0.00     0.048 H 
ATOM     54  H34 non d ame     -10.619  15.842  66.384  0.00  0.00     0.048 H 
BRANCH  52  55
ATOM     55  C23 non d ame     -10.843  17.384  67.837  0.00  0.00     0.259 C 
ATOM     56  O7  non d ame     -10.852  18.558  68.018  0.00  0.00    -0.265 OA
BRANCH  55  57
ATOM     57  O8  non d ame     -11.496  16.514  68.755  0.00  0.00    -0.317 OA
BRANCH  57  58
ATOM     58  C29 non d ame     -10.771  16.301  69.970  0.00  0.00     0.052 C 
ATOM     59  H47 non d ame      -9.976  15.598  69.719  0.00  0.00     0.082 H 
ATOM     60  H48 non d ame     -10.523  17.293  70.344  0.00  0.00     0.082 H 
BRANCH  58  61
ATOM     61  C35 non d ame     -11.728  15.619  70.984  0.00  0.00    -0.034 A 
ATOM     62  C30 non d ame     -12.328  14.404  70.668  0.00  0.00    -0.075 A 
ATOM     63  C31 non d ame     -13.187  13.792  71.579  0.00  0.00    -0.082 A 
ATOM     64  H49 non d ame     -12.124  13.932  69.707  0.00  0.00     0.084 H 
ATOM     65  C32 non d ame     -13.448  14.400  72.809  0.00  0.00    -0.083 A 
ATOM     66  H50 non d ame     -13.654  12.839  71.329  0.00  0.00     0.083 H 
ATOM     67  C33 non d ame     -12.850  15.614  73.119  0.00  0.00    -0.082 A 
ATOM     68  H51 non d ame     -14.118  13.928  73.528  0.00  0.00     0.083 H 
ATOM     69  C34 non d ame     -11.988  16.229  72.213  0.00  0.00    -0.075 A 
ATOM     70  H52 non d ame     -13.057  16.087  74.079  0.00  0.00     0.083 H 
ATOM     71  H53 non d ame     -11.521  17.181  72.464  0.00  0.00     0.084 H 
ENDBRANCH  58  61
ENDBRANCH  57  58
ENDBRANCH  55  57
ENDBRANCH  52  55
ENDBRANCH  49  52
ENDBRANCH  47  49
BRANCH  47  72
ATOM     72  C24 non d ame      -7.012  14.721  67.714  0.00  0.00    -0.039 C 
ATOM     73  H35 non d ame      -6.936  13.640  67.838  0.00  0.00     0.036 H 
ATOM     74  H36 non d ame      -6.455  15.218  66.919  0.00  0.00     0.036 H 
BRANCH  72  75
ATOM     75  C25 non d ame      -6.558  15.389  69.098  0.00  0.00    -0.001 C 
ATOM     76  C26 non d ame      -5.123  16.167  68.900  0.00  0.00    -0.035 C 
ATOM     77  C27 non d ame      -4.266  15.752  69.864  0.00  0.00     0.085 C 
ATOM     78  H38 non d ame      -4.645  15.841  67.977  0.00  0.00     0.036 H 
ATOM     79  H39 non d ame      -5.243  17.231  69.106  0.00  0.00     0.036 H 
ATOM     80  N5  non d ame      -4.875  14.526  70.499  0.00  0.00    -0.049 N 
ATOM     81  H40 non d ame      -3.354  15.465  69.339  0.00  0.00     0.075 H 
ATOM     82  H41 non d ame      -4.242  16.557  70.598  0.00  0.00     0.075 H 
ATOM     83  C28 non d ame      -6.417  14.498  70.022  0.00  0.00     0.193 C 
ATOM     84  H42 non d ame      -4.400  13.730  70.097  0.00  0.00     0.280 HD
ATOM     85  H43 non d ame      -4.850  14.678  71.497  0.00  0.00     0.280 HD
ATOM     86  H44 non d ame      -7.214  14.795  70.706  0.00  0.00     0.129 H 
ATOM     87  H37 non d ame      -7.366  15.949  69.570  0.00  0.00     0.046 H 
BRANCH  83  88
ATOM     88  O6  non d ame      -6.770  13.190  69.569  0.00  0.00    -0.369 OA
ATOM     89  H45 non d ame      -6.919  13.210  68.621  0.00  0.00     0.212 HD
ENDBRANCH  83  88
ENDBRANCH  72  75
ENDBRANCH  47  72
ENDBRANCH  45  47
ENDBRANCH   1  43
BRANCH   1  90
ATOM     90  C16 non d ame     -11.233  11.407  65.876  0.00  0.00    -0.035 C 
ATOM     91  H21 non d ame     -11.421  10.363  65.621  0.00  0.00     0.037 H 
ATOM     92  H22 non d ame     -11.468  11.774  66.875  0.00  0.00     0.037 H 
BRANCH  90  93
ATOM     93  C17 non d ame     -12.078  12.263  64.881  0.00  0.00    -0.059 C 
ATOM     94  H23 non d ame     -12.991  11.710  64.661  0.00  0.00     0.038 H 
BRANCH  93  95
ATOM     95  C18 non d ame     -12.491  13.641  65.492  0.00  0.00    -0.073 C 
ATOM     96  H24 non d ame     -11.596  14.212  65.735  0.00  0.00     0.028 H 
ATOM     97  H25 non d ame     -13.091  14.194  64.768  0.00  0.00     0.028 H 
ATOM     98  H26 non d ame     -13.076  13.476  66.397  0.00  0.00     0.028 H 
ENDBRANCH  93  95
BRANCH  93  99
ATOM     99  C19 non d ame     -11.334  12.456  63.557  0.00  0.00    -0.073 C 
ATOM    100  H27 non d ame     -11.930  12.044  62.741  0.00  0.00     0.028 H 
ATOM    101  H28 non d ame     -11.169  13.520  63.385  0.00  0.00     0.028 H 
ATOM    102  H29 non d ame     -10.375  11.942  63.601  0.00  0.00     0.028 H 
ENDBRANCH  93  99
ENDBRANCH  90  93
ENDBRANCH   1  90
TORSDOF 26
ENDMDL
MODEL 15
REMARK VINA RESULT:      -6.1      2.839      6.759
REMARK  26 active torsions:
REMARK  status: ('A' for Active; 'I' for Inactive)
REMARK    1  A    between atoms: C2_2  and  C3_3 
REMARK    2  A    between atoms: C4_6  and  C5_7 
REMARK       I    between atoms: C5_7  and  N2_9 
REMARK    3  A    between atoms: N2_9  and  C6_10 
REMARK    4  A    between atoms: C6_10  and  C7_11 
REMARK    5  A    between atoms: C6_10  and  C8_13 
REMARK       I    between atoms: C7_11  and  N3_14 
REMARK    6  A    between atoms: N3_14  and  C9_15 
REMARK    7  A    between atoms: C9_15  and  C10_16 
REMARK    8  A    between atoms: C9_15  and  C11_18 
REMARK       I    between atoms: C10_16  and  N4_21 
REMARK    9  A    between atoms: C11_18  and  C12_19 
REMARK   10  A    between atoms: C11_18  and  C13_20 
REMARK   11  A    between atoms: N4_21  and  C14_22 
REMARK   12  A    between atoms: C14_22  and  C15_23 
REMARK   13  A    between atoms: C14_22  and  C16_25 
REMARK       I    between atoms: C15_23  and  N6_40 
REMARK   14  A    between atoms: C16_25  and  C17_26 
REMARK   15  A    between atoms: C17_26  and  C18_27 
REMARK   16  A    between atoms: C17_26  and  C19_28 
REMARK   17  A    between atoms: C20_29  and  C21_30 
REMARK   18  A    between atoms: C20_29  and  C24_33 
REMARK   19  A    between atoms: C20_29  and  N6_40 
REMARK   20  A    between atoms: C21_30  and  C22_31 
REMARK   21  A    between atoms: C22_31  and  C23_32 
REMARK   22  A    between atoms: C23_32  and  O8_43 
REMARK   23  A    between atoms: C24_33  and  C25_34 
REMARK   24  A    between atoms: C28_38  and  O6_39 
REMARK   25  A    between atoms: C29_42  and  O8_43 
REMARK   26  A    between atoms: C29_42  and  C35_49 
ROOT
ATOM      1  C14 non d ame     -10.127   9.281  66.709  0.00  0.00     0.089 C 
ATOM      2  H20 non d ame     -11.192   9.061  66.630  0.00  0.00     0.087 H 
ENDROOT
BRANCH   1   3
ATOM      3  N4  non d ame      -9.959  10.713  66.511  0.00  0.00    -0.346 N 
ATOM      4  C10 non d ame     -11.009  11.678  67.003  0.00  0.00     0.241 C 
ATOM      5  O4  non d ame     -11.982  11.278  67.551  0.00  0.00    -0.271 OA
ATOM      6  H19 non d ame      -9.125  11.033  66.040  0.00  0.00     0.163 HD
BRANCH   4   7
ATOM      7  C9  non d ame     -10.815  13.157  66.795  0.00  0.00     0.092 C 
ATOM      8  H11 non d ame     -11.517  13.702  67.426  0.00  0.00     0.088 H 
BRANCH   7   9
ATOM      9  N3  non d ame      -9.465  13.538  67.219  0.00  0.00    -0.346 N 
ATOM     10  C7  non d ame      -9.284  14.396  68.364  0.00  0.00     0.240 C 
ATOM     11  O3  non d ame     -10.215  14.790  68.955  0.00  0.00    -0.271 OA
ATOM     12  H10 non d ame      -8.652  13.208  66.718  0.00  0.00     0.163 HD
BRANCH  10  13
ATOM     13  C6  non d ame      -7.844  14.801  68.809  0.00  0.00     0.086 C 
ATOM     14  H6  non d ame      -7.841  15.472  69.667  0.00  0.00     0.086 H 
BRANCH  13  15
ATOM     15  N2  non d ame      -7.122  13.606  69.212  0.00  0.00    -0.343 N 
ATOM     16  C5  non d ame      -6.109  13.697  70.266  0.00  0.00     0.273 C 
ATOM     17  O2  non d ame      -5.880  14.736  70.780  0.00  0.00    -0.266 OA
ATOM     18  H5  non d ame      -7.322  12.722  68.765  0.00  0.00     0.163 HD
BRANCH  16  19
ATOM     19  C4  non d ame      -5.339  12.441  70.703  0.00  0.00     0.154 A 
ATOM     20  C1  non d ame      -5.745  11.078  70.544  0.00  0.00    -0.017 A 
ATOM     21  C2  non d ame      -4.696  10.318  71.106  0.00  0.00     0.077 A 
ATOM     22  H1  non d ame      -6.661  10.699  70.090  0.00  0.00     0.091 H 
ATOM     23  O1  non d ame      -3.797  11.155  71.534  0.00  0.00    -0.218 OA
ATOM     24  N1  non d ame      -4.150  12.400  71.311  0.00  0.00    -0.123 NA
BRANCH  21  25
ATOM     25  C3  non d ame      -4.629   8.799  71.194  0.00  0.00    -0.029 C 
ATOM     26  H2  non d ame      -5.144   8.463  72.095  0.00  0.00     0.036 H 
ATOM     27  H3  non d ame      -5.109   8.363  70.318  0.00  0.00     0.036 H 
ATOM     28  H4  non d ame      -3.587   8.482  71.232  0.00  0.00     0.036 H 
ENDBRANCH  21  25
ENDBRANCH  16  19
ENDBRANCH  13  15
BRANCH  13  29
ATOM     29  C8  non d ame      -7.132  15.473  67.662  0.00  0.00    -0.049 C 
ATOM     30  H7  non d ame      -7.127  16.551  67.819  0.00  0.00     0.030 H 
ATOM     31  H8  non d ame      -6.106  15.109  67.609  0.00  0.00     0.030 H 
ATOM     32  H9  non d ame      -7.648  15.244  66.730  0.00  0.00     0.030 H 
ENDBRANCH  13  29
ENDBRANCH  10  13
ENDBRANCH   7   9
BRANCH   7  33
ATOM     33  C11 non d ame     -10.998  13.497  65.287  0.00  0.00    -0.033 C 
ATOM     34  H12 non d ame     -10.198  13.000  64.738  0.00  0.00     0.042 H 
BRANCH  33  35
ATOM     35  C12 non d ame     -12.353  12.949  64.741  0.00  0.00    -0.071 C 
ATOM     36  H13 non d ame     -12.379  13.059  63.656  0.00  0.00     0.028 H 
ATOM     37  H14 non d ame     -12.449  11.895  65.000  0.00  0.00     0.028 H 
ATOM     38  H15 non d ame     -13.176  13.509  65.183  0.00  0.00     0.028 H 
ENDBRANCH  33  35
BRANCH  33  39
ATOM     39  C13 non d ame     -10.869  15.035  65.041  0.00  0.00    -0.071 C 
ATOM     40  H16 non d ame     -11.269  15.280  64.057  0.00  0.00     0.028 H 
ATOM     41  H17 non d ame     -11.428  15.574  65.806  0.00  0.00     0.028 H 
ATOM     42  H18 non d ame      -9.819  15.323  65.088  0.00  0.00     0.028 H 
ENDBRANCH  33  39
ENDBRANCH   7  33
ENDBRANCH   4   7
ENDBRANCH   1   3
BRANCH   1  43
ATOM     43  C15 non d ame      -9.551   8.902  68.103  0.00  0.00     0.240 C 
ATOM     44  O5  non d ame      -8.504   9.344  68.450  0.00  0.00    -0.271 OA
ATOM     45  N6  non d ame     -10.310   7.994  69.010  0.00  0.00    -0.355 N 
ATOM     46  H46 non d ame     -11.203   7.616  68.728  0.00  0.00     0.162 HD
BRANCH  45  47
ATOM     47  C20 non d ame      -9.750   7.644  70.333  0.00  0.00     0.013 C 
ATOM     48  H30 non d ame      -8.676   7.827  70.302  0.00  0.00     0.072 H 
BRANCH  47  49
ATOM     49  C21 non d ame     -10.017   6.184  70.619  0.00  0.00    -0.038 C 
ATOM     50  H31 non d ame      -9.059   5.763  70.926  0.00  0.00     0.036 H 
ATOM     51  H32 non d ame     -10.864   6.169  71.305  0.00  0.00     0.036 H 
BRANCH  49  52
ATOM     52  C22 non d ame     -10.456   5.398  69.364  0.00  0.00     0.018 C 
ATOM     53  H33 non d ame     -11.040   4.554  69.733  0.00  0.00     0.048 H 
ATOM     54  H34 non d ame     -10.918   6.132  68.703  0.00  0.00     0.048 H 
BRANCH  52  55
ATOM     55  C23 non d ame      -9.274   4.785  68.563  0.00  0.00     0.259 C 
ATOM     56  O7  non d ame      -8.774   3.766  68.913  0.00  0.00    -0.265 OA
BRANCH  55  57
ATOM     57  O8  non d ame      -8.787   5.463  67.412  0.00  0.00    -0.317 OA
BRANCH  57  58
ATOM     58  C29 non d ame      -9.162   4.851  66.174  0.00  0.00     0.052 C 
ATOM     59  H47 non d ame      -9.102   3.777  66.346  0.00  0.00     0.082 H 
ATOM     60  H48 non d ame     -10.113   5.306  65.896  0.00  0.00     0.082 H 
BRANCH  58  61
ATOM     61  C35 non d ame      -8.103   5.239  65.108  0.00  0.00    -0.034 A 
ATOM     62  C30 non d ame      -6.774   5.416  65.478  0.00  0.00    -0.075 A 
ATOM     63  C31 non d ame      -5.823   5.765  64.521  0.00  0.00    -0.082 A 
ATOM     64  H49 non d ame      -6.478   5.281  66.519  0.00  0.00     0.084 H 
ATOM     65  C32 non d ame      -6.205   5.939  63.188  0.00  0.00    -0.083 A 
ATOM     66  H50 non d ame      -4.781   5.900  64.814  0.00  0.00     0.083 H 
ATOM     67  C33 non d ame      -7.534   5.765  62.824  0.00  0.00    -0.082 A 
ATOM     68  H51 non d ame      -5.468   6.211  62.433  0.00  0.00     0.083 H 
ATOM     69  C34 non d ame      -8.487   5.415  63.777  0.00  0.00    -0.075 A 
ATOM     70  H52 non d ame      -7.829   5.904  61.784  0.00  0.00     0.083 H 
ATOM     71  H53 non d ame      -9.528   5.279  63.483  0.00  0.00     0.084 H 
ENDBRANCH  58  61
ENDBRANCH  57  58
ENDBRANCH  55  57
ENDBRANCH  52  55
ENDBRANCH  49  52
ENDBRANCH  47  49
BRANCH  47  72
ATOM     72  C24 non d ame     -10.403   8.503  71.414  0.00  0.00    -0.039 C 
ATOM     73  H35 non d ame     -10.449   7.869  72.300  0.00  0.00     0.036 H 
ATOM     74  H36 non d ame      -9.827   9.429  71.436  0.00  0.00     0.036 H 
BRANCH  72  75
ATOM     75  C25 non d ame     -11.909   8.892  71.033  0.00  0.00    -0.001 C 
ATOM     76  C26 non d ame     -12.056  10.527  70.929  0.00  0.00    -0.035 C 
ATOM     77  C27 non d ame     -13.107  10.919  71.689  0.00  0.00     0.085 C 
ATOM     78  H38 non d ame     -11.203  11.010  71.405  0.00  0.00     0.036 H 
ATOM     79  H39 non d ame     -12.351  10.813  69.920  0.00  0.00     0.036 H 
ATOM     80  N5  non d ame     -13.487   9.744  72.558  0.00  0.00    -0.049 N 
ATOM     81  H40 non d ame     -12.725  11.721  72.322  0.00  0.00     0.075 H 
ATOM     82  H41 non d ame     -13.916  11.117  70.987  0.00  0.00     0.075 H 
ATOM     83  C28 non d ame     -12.742   8.461  71.920  0.00  0.00     0.193 C 
ATOM     84  H42 non d ame     -13.093   9.924  73.470  0.00  0.00     0.280 HD
ATOM     85  H43 non d ame     -14.484   9.622  72.453  0.00  0.00     0.280 HD
ATOM     86  H44 non d ame     -13.300   7.734  71.331  0.00  0.00     0.129 H 
ATOM     87  H37 non d ame     -12.287   8.306  70.194  0.00  0.00     0.046 H 
BRANCH  83  88
ATOM     88  O6  non d ame     -12.095   7.707  72.946  0.00  0.00    -0.369 OA
ATOM     89  H45 non d ame     -11.250   7.386  72.622  0.00  0.00     0.212 HD
ENDBRANCH  83  88
ENDBRANCH  72  75
ENDBRANCH  47  72
ENDBRANCH  45  47
ENDBRANCH   1  43
BRANCH   1  90
ATOM     90  C16 non d ame      -9.367   8.538  65.622  0.00  0.00    -0.035 C 
ATOM     91  H21 non d ame      -8.743   7.815  66.149  0.00  0.00     0.037 H 
ATOM     92  H22 non d ame     -10.127   8.192  64.922  0.00  0.00     0.037 H 
BRANCH  90  93
ATOM     93  C17 non d ame      -8.394   9.446  64.804  0.00  0.00    -0.059 C 
ATOM     94  H23 non d ame      -8.636  10.483  65.038  0.00  0.00     0.038 H 
BRANCH  93  95
ATOM     95  C18 non d ame      -6.899   9.207  65.190  0.00  0.00    -0.073 C 
ATOM     96  H24 non d ame      -6.266   9.896  64.631  0.00  0.00     0.028 H 
ATOM     97  H25 non d ame      -6.768   9.376  66.259  0.00  0.00     0.028 H 
ATOM     98  H26 non d ame      -6.622   8.180  64.948  0.00  0.00     0.028 H 
ENDBRANCH  93  95
BRANCH  93  99
ATOM     99  C19 non d ame      -8.606   9.259  63.300  0.00  0.00    -0.073 C 
ATOM    100  H27 non d ame      -9.666   9.366  63.066  0.00  0.00     0.028 H 
ATOM    101  H28 non d ame      -8.035  10.012  62.756  0.00  0.00     0.028 H 
ATOM    102  H29 non d ame      -8.267   8.265  63.007  0.00  0.00     0.028 H 
ENDBRANCH  93  99
ENDBRANCH  90  93
ENDBRANCH   1  90
TORSDOF 26
ENDMDL
