MODEL 1
REMARK VINA RESULT:      -6.8      0.000      0.000
REMARK  26 active torsions:
REMARK  status: ('A' for Active; 'I' for Inactive)
REMARK    1  A    between atoms: C2_2  and  C3_3 
REMARK    2  A    between atoms: C4_6  and  C5_7 
REMARK       I    between atoms: C5_7  and  N2_9 
REMARK    3  A    between atoms: N2_9  and  C6_10 
REMARK    4  A    between atoms: C6_10  and  C7_11 
REMARK    5  A    between atoms: C6_10  and  C8_13 
REMARK       I    between atoms: C7_11  and  N3_14 
REMARK    6  A    between atoms: N3_14  and  C9_15 
REMARK    7  A    between atoms: C9_15  and  C10_16 
REMARK    8  A    between atoms: C9_15  and  C11_18 
REMARK       I    between atoms: C10_16  and  N4_21 
REMARK    9  A    between atoms: C11_18  and  C12_19 
REMARK   10  A    between atoms: C11_18  and  C13_20 
REMARK   11  A    between atoms: N4_21  and  C14_22 
REMARK   12  A    between atoms: C14_22  and  C15_23 
REMARK   13  A    between atoms: C14_22  and  C16_25 
REMARK       I    between atoms: C15_23  and  N6_40 
REMARK   14  A    between atoms: C16_25  and  C17_26 
REMARK   15  A    between atoms: C17_26  and  C18_27 
REMARK   16  A    between atoms: C17_26  and  C19_28 
REMARK   17  A    between atoms: C20_29  and  C21_30 
REMARK   18  A    between atoms: C20_29  and  C24_33 
REMARK   19  A    between atoms: C20_29  and  N6_40 
REMARK   20  A    between atoms: C21_30  and  C22_31 
REMARK   21  A    between atoms: C22_31  and  C23_32 
REMARK   22  A    between atoms: C23_32  and  O8_43 
REMARK   23  A    between atoms: C24_33  and  C25_34 
REMARK   24  A    between atoms: C28_38  and  O6_39 
REMARK   25  A    between atoms: C29_42  and  O8_43 
REMARK   26  A    between atoms: C29_42  and  C35_49 
ROOT
ATOM      1  C14 non d ame     -11.969  13.870  69.724  0.00  0.00     0.089 C 
ATOM      2  H20 non d ame     -12.938  13.377  69.638  0.00  0.00     0.087 H 
ENDROOT
BRANCH   1   3
ATOM      3  N4  non d ame     -10.943  12.855  69.530  0.00  0.00    -0.346 N 
ATOM      4  C10 non d ame     -11.299  11.516  68.937  0.00  0.00     0.241 C 
ATOM      5  O4  non d ame     -12.420  11.276  68.626  0.00  0.00    -0.271 OA
ATOM      6  H19 non d ame      -9.996  13.079  69.803  0.00  0.00     0.163 HD
BRANCH   4   7
ATOM      7  C9  non d ame     -10.224  10.480  68.737  0.00  0.00     0.092 C 
ATOM      8  H11 non d ame     -10.110  10.283  67.671  0.00  0.00     0.088 H 
BRANCH   7   9
ATOM      9  N3  non d ame      -8.944  11.005  69.221  0.00  0.00    -0.346 N 
ATOM     10  C7  non d ame      -7.870  11.255  68.290  0.00  0.00     0.240 C 
ATOM     11  O3  non d ame      -8.020  11.039  67.150  0.00  0.00    -0.271 OA
ATOM     12  H10 non d ame      -8.800  11.195  70.202  0.00  0.00     0.163 HD
BRANCH  10  13
ATOM     13  C6  non d ame      -6.509  11.811  68.811  0.00  0.00     0.086 C 
ATOM     14  H6  non d ame      -5.677  11.581  68.145  0.00  0.00     0.086 H 
BRANCH  13  15
ATOM     15  N2  non d ame      -6.590  13.260  68.889  0.00  0.00    -0.343 N 
ATOM     16  C5  non d ame      -5.728  14.078  68.034  0.00  0.00     0.273 C 
ATOM     17  O2  non d ame      -4.970  13.561  67.289  0.00  0.00    -0.266 OA
ATOM     18  H5  non d ame      -7.239  13.694  69.531  0.00  0.00     0.163 HD
BRANCH  16  19
ATOM     19  C4  non d ame      -5.804  15.612  68.105  0.00  0.00     0.154 A 
ATOM     20  C1  non d ame      -5.108  16.551  67.280  0.00  0.00    -0.017 A 
ATOM     21  C2  non d ame      -5.521  17.820  67.747  0.00  0.00     0.077 A 
ATOM     22  H1  non d ame      -4.411  16.345  66.468  0.00  0.00     0.091 H 
ATOM     23  O1  non d ame      -6.356  17.620  68.724  0.00  0.00    -0.218 OA
ATOM     24  N1  non d ame      -6.537  16.340  68.952  0.00  0.00    -0.123 NA
BRANCH  21  25
ATOM     25  C3  non d ame      -5.071  19.170  67.205  0.00  0.00    -0.029 C 
ATOM     26  H2  non d ame      -5.322  19.239  66.146  0.00  0.00     0.036 H 
ATOM     27  H3  non d ame      -5.575  19.967  67.751  0.00  0.00     0.036 H 
ATOM     28  H4  non d ame      -3.992  19.270  67.329  0.00  0.00     0.036 H 
ENDBRANCH  21  25
ENDBRANCH  16  19
ENDBRANCH  13  15
BRANCH  13  29
ATOM     29  C8  non d ame      -6.216  11.236  70.173  0.00  0.00    -0.049 C 
ATOM     30  H7  non d ame      -6.786  10.316  70.310  0.00  0.00     0.030 H 
ATOM     31  H8  non d ame      -5.151  11.019  70.255  0.00  0.00     0.030 H 
ATOM     32  H9  non d ame      -6.501  11.956  70.940  0.00  0.00     0.030 H 
ENDBRANCH  13  29
ENDBRANCH  10  13
ENDBRANCH   7   9
BRANCH   7  33
ATOM     33  C11 non d ame     -10.589   9.194  69.535  0.00  0.00    -0.033 C 
ATOM     34  H12 non d ame     -11.565   8.857  69.187  0.00  0.00     0.042 H 
BRANCH  33  35
ATOM     35  C12 non d ame      -9.570   8.045  69.258  0.00  0.00    -0.071 C 
ATOM     36  H13 non d ame      -9.989   7.357  68.523  0.00  0.00     0.028 H 
ATOM     37  H14 non d ame      -8.643   8.468  68.871  0.00  0.00     0.028 H 
ATOM     38  H15 non d ame      -9.366   7.509  70.184  0.00  0.00     0.028 H 
ENDBRANCH  33  35
BRANCH  33  39
ATOM     39  C13 non d ame     -10.699   9.496  71.064  0.00  0.00    -0.071 C 
ATOM     40  H16 non d ame      -9.744   9.871  71.430  0.00  0.00     0.028 H 
ATOM     41  H17 non d ame     -11.472  10.248  71.231  0.00  0.00     0.028 H 
ATOM     42  H18 non d ame     -10.960   8.582  71.597  0.00  0.00     0.028 H 
ENDBRANCH  33  39
ENDBRANCH   7  33
ENDBRANCH   4   7
ENDBRANCH   1   3
BRANCH   1  43
ATOM     43  C15 non d ame     -11.777  14.980  68.652  0.00  0.00     0.240 C 
ATOM     44  O5  non d ame     -12.250  16.057  68.825  0.00  0.00    -0.271 OA
ATOM     45  N6  non d ame     -10.995  14.704  67.413  0.00  0.00    -0.355 N 
ATOM     46  H46 non d ame     -10.584  13.795  67.258  0.00  0.00     0.162 HD
BRANCH  45  47
ATOM     47  C20 non d ame     -10.820  15.771  66.404  0.00  0.00     0.013 C 
ATOM     48  H30 non d ame     -11.715  16.393  66.415  0.00  0.00     0.072 H 
BRANCH  47  49
ATOM     49  C21 non d ame     -10.643  15.144  65.040  0.00  0.00    -0.038 C 
ATOM     50  H31 non d ame     -10.552  15.977  64.342  0.00  0.00     0.036 H 
ATOM     51  H32 non d ame      -9.825  14.432  65.148  0.00  0.00     0.036 H 
BRANCH  49  52
ATOM     52  C22 non d ame     -11.875  14.330  64.590  0.00  0.00     0.018 C 
ATOM     53  H33 non d ame     -12.469  14.172  65.490  0.00  0.00     0.048 H 
ATOM     54  H34 non d ame     -12.298  14.876  63.746  0.00  0.00     0.048 H 
BRANCH  52  55
ATOM     55  C23 non d ame     -11.527  12.914  64.052  0.00  0.00     0.259 C 
ATOM     56  O7  non d ame     -12.282  12.338  63.338  0.00  0.00    -0.265 OA
BRANCH  55  57
ATOM     57  O8  non d ame     -10.299  12.306  64.432  0.00  0.00    -0.317 OA
BRANCH  57  58
ATOM     58  C29 non d ame     -10.336  10.876  64.445  0.00  0.00     0.052 C 
ATOM     59  H47 non d ame     -10.028  10.582  65.448  0.00  0.00     0.082 H 
ATOM     60  H48 non d ame     -11.324  10.604  64.076  0.00  0.00     0.082 H 
BRANCH  58  61
ATOM     61  C35 non d ame      -9.276  10.361  63.435  0.00  0.00    -0.034 A 
ATOM     62  C30 non d ame      -8.855  11.177  62.390  0.00  0.00    -0.075 A 
ATOM     63  C31 non d ame      -7.903  10.714  61.483  0.00  0.00    -0.082 A 
ATOM     64  H49 non d ame      -9.271  12.178  62.281  0.00  0.00     0.084 H 
ATOM     65  C32 non d ame      -7.373   9.428  61.623  0.00  0.00    -0.083 A 
ATOM     66  H50 non d ame      -7.574  11.356  60.666  0.00  0.00     0.083 H 
ATOM     67  C33 non d ame      -7.798   8.617  62.666  0.00  0.00    -0.082 A 
ATOM     68  H51 non d ame      -6.628   9.059  60.918  0.00  0.00     0.083 H 
ATOM     69  C34 non d ame      -8.748   9.076  63.576  0.00  0.00    -0.075 A 
ATOM     70  H52 non d ame      -7.384   7.614  62.771  0.00  0.00     0.083 H 
ATOM     71  H53 non d ame      -9.076   8.433  64.393  0.00  0.00     0.084 H 
ENDBRANCH  58  61
ENDBRANCH  57  58
ENDBRANCH  55  57
ENDBRANCH  52  55
ENDBRANCH  49  52
ENDBRANCH  47  49
BRANCH  47  72
ATOM     72  C24 non d ame      -9.589  16.608  66.745  0.00  0.00    -0.039 C 
ATOM     73  H35 non d ame      -9.142  16.126  67.615  0.00  0.00     0.036 H 
ATOM     74  H36 non d ame      -9.024  16.685  65.816  0.00  0.00     0.036 H 
BRANCH  72  75
ATOM     75  C25 non d ame      -9.986  18.097  67.182  0.00  0.00    -0.001 C 
ATOM     76  C26 non d ame      -9.093  19.187  66.334  0.00  0.00    -0.035 C 
ATOM     77  C27 non d ame      -8.523  20.055  67.204  0.00  0.00     0.085 C 
ATOM     78  H38 non d ame      -8.240  18.691  65.871  0.00  0.00     0.036 H 
ATOM     79  H39 non d ame      -9.747  19.820  65.734  0.00  0.00     0.036 H 
ATOM     80  N5  non d ame      -8.678  19.463  68.584  0.00  0.00    -0.049 N 
ATOM     81  H40 non d ame      -7.464  20.075  66.943  0.00  0.00     0.075 H 
ATOM     82  H41 non d ame      -9.118  20.965  67.139  0.00  0.00     0.075 H 
ATOM     83  C28 non d ame      -9.775  18.287  68.442  0.00  0.00     0.193 C 
ATOM     84  H42 non d ame      -7.788  19.046  68.818  0.00  0.00     0.280 HD
ATOM     85  H43 non d ame      -9.063  20.192  69.166  0.00  0.00     0.280 HD
ATOM     86  H44 non d ame     -10.796  18.436  68.794  0.00  0.00     0.129 H 
ATOM     87  H37 non d ame     -11.066  18.248  67.201  0.00  0.00     0.046 H 
BRANCH  83  88
ATOM     88  O6  non d ame      -9.315  17.102  69.096  0.00  0.00    -0.369 OA
ATOM     89  H45 non d ame      -8.390  17.205  69.330  0.00  0.00     0.212 HD
ENDBRANCH  83  88
ENDBRANCH  72  75
ENDBRANCH  47  72
ENDBRANCH  45  47
ENDBRANCH   1  43
BRANCH   1  90
ATOM     90  C16 non d ame     -11.817  14.468  71.114  0.00  0.00    -0.035 C 
ATOM     91  H21 non d ame     -10.980  13.937  71.567  0.00  0.00     0.037 H 
ATOM     92  H22 non d ame     -11.759  15.546  70.959  0.00  0.00     0.037 H 
BRANCH  90  93
ATOM     93  C17 non d ame     -13.050  14.222  72.040  0.00  0.00    -0.059 C 
ATOM     94  H23 non d ame     -12.759  14.490  73.056  0.00  0.00     0.038 H 
BRANCH  93  95
ATOM     95  C18 non d ame     -14.272  15.110  71.644  0.00  0.00    -0.073 C 
ATOM     96  H24 non d ame     -14.079  15.586  70.682  0.00  0.00     0.028 H 
ATOM     97  H25 non d ame     -15.164  14.489  71.569  0.00  0.00     0.028 H 
ATOM     98  H26 non d ame     -14.426  15.876  72.404  0.00  0.00     0.028 H 
ENDBRANCH  93  95
BRANCH  93  99
ATOM     99  C19 non d ame     -13.436  12.740  72.054  0.00  0.00    -0.073 C 
ATOM    100  H27 non d ame     -14.181  12.566  72.830  0.00  0.00     0.028 H 
ATOM    101  H28 non d ame     -13.850  12.464  71.084  0.00  0.00     0.028 H 
ATOM    102  H29 non d ame     -12.552  12.136  72.256  0.00  0.00     0.028 H 
ENDBRANCH  93  99
ENDBRANCH  90  93
ENDBRANCH   1  90
TORSDOF 26
ENDMDL
MODEL 2
REMARK VINA RESULT:      -6.7      1.821      6.010
REMARK  26 active torsions:
REMARK  status: ('A' for Active; 'I' for Inactive)
REMARK    1  A    between atoms: C2_2  and  C3_3 
REMARK    2  A    between atoms: C4_6  and  C5_7 
REMARK       I    between atoms: C5_7  and  N2_9 
REMARK    3  A    between atoms: N2_9  and  C6_10 
REMARK    4  A    between atoms: C6_10  and  C7_11 
REMARK    5  A    between atoms: C6_10  and  C8_13 
REMARK       I    between atoms: C7_11  and  N3_14 
REMARK    6  A    between atoms: N3_14  and  C9_15 
REMARK    7  A    between atoms: C9_15  and  C10_16 
REMARK    8  A    between atoms: C9_15  and  C11_18 
REMARK       I    between atoms: C10_16  and  N4_21 
REMARK    9  A    between atoms: C11_18  and  C12_19 
REMARK   10  A    between atoms: C11_18  and  C13_20 
REMARK   11  A    between atoms: N4_21  and  C14_22 
REMARK   12  A    between atoms: C14_22  and  C15_23 
REMARK   13  A    between atoms: C14_22  and  C16_25 
REMARK       I    between atoms: C15_23  and  N6_40 
REMARK   14  A    between atoms: C16_25  and  C17_26 
REMARK   15  A    between atoms: C17_26  and  C18_27 
REMARK   16  A    between atoms: C17_26  and  C19_28 
REMARK   17  A    between atoms: C20_29  and  C21_30 
REMARK   18  A    between atoms: C20_29  and  C24_33 
REMARK   19  A    between atoms: C20_29  and  N6_40 
REMARK   20  A    between atoms: C21_30  and  C22_31 
REMARK   21  A    between atoms: C22_31  and  C23_32 
REMARK   22  A    between atoms: C23_32  and  O8_43 
REMARK   23  A    between atoms: C24_33  and  C25_34 
REMARK   24  A    between atoms: C28_38  and  O6_39 
REMARK   25  A    between atoms: C29_42  and  O8_43 
REMARK   26  A    between atoms: C29_42  and  C35_49 
ROOT
ATOM      1  C14 non d ame     -12.158  13.975  69.508  0.00  0.00     0.089 C 
ATOM      2  H20 non d ame     -13.110  13.756  69.024  0.00  0.00     0.087 H 
ENDROOT
BRANCH   1   3
ATOM      3  N4  non d ame     -11.666  12.735  70.089  0.00  0.00    -0.346 N 
ATOM      4  C10 non d ame     -11.711  11.452  69.298  0.00  0.00     0.241 C 
ATOM      5  O4  non d ame     -12.150  11.442  68.195  0.00  0.00    -0.271 OA
ATOM      6  H19 non d ame     -11.299  12.764  71.030  0.00  0.00     0.163 HD
BRANCH   4   7
ATOM      7  C9  non d ame     -11.193  10.179  69.913  0.00  0.00     0.092 C 
ATOM      8  H11 non d ame     -11.318   9.361  69.203  0.00  0.00     0.088 H 
BRANCH   7   9
ATOM      9  N3  non d ame      -9.757  10.311  70.174  0.00  0.00    -0.346 N 
ATOM     10  C7  non d ame      -8.804   9.965  69.148  0.00  0.00     0.240 C 
ATOM     11  O3  non d ame      -9.175   9.578  68.108  0.00  0.00    -0.271 OA
ATOM     12  H10 non d ame      -9.422  10.641  71.067  0.00  0.00     0.163 HD
BRANCH  10  13
ATOM     13  C6  non d ame      -7.276  10.105  69.433  0.00  0.00     0.086 C 
ATOM     14  H6  non d ame      -6.660   9.799  68.588  0.00  0.00     0.086 H 
BRANCH  13  15
ATOM     15  N2  non d ame      -6.970  11.503  69.687  0.00  0.00    -0.343 N 
ATOM     16  C5  non d ame      -6.525  12.356  68.583  0.00  0.00     0.273 C 
ATOM     17  O2  non d ame      -6.414  11.908  67.495  0.00  0.00    -0.266 OA
ATOM     18  H5  non d ame      -7.064  11.877  70.621  0.00  0.00     0.163 HD
BRANCH  16  19
ATOM     19  C4  non d ame      -6.199  13.836  68.836  0.00  0.00     0.154 A 
ATOM     20  C1  non d ame      -5.371  14.688  68.039  0.00  0.00    -0.017 A 
ATOM     21  C2  non d ame      -5.397  15.939  68.696  0.00  0.00     0.077 A 
ATOM     22  H1  non d ame      -4.833  14.437  67.125  0.00  0.00     0.091 H 
ATOM     23  O1  non d ame      -6.156  15.810  69.745  0.00  0.00    -0.218 OA
ATOM     24  N1  non d ame      -6.635  14.592  69.848  0.00  0.00    -0.123 NA
BRANCH  21  25
ATOM     25  C3  non d ame      -4.672  17.204  68.256  0.00  0.00    -0.029 C 
ATOM     26  H2  non d ame      -4.623  17.235  67.167  0.00  0.00     0.036 H 
ATOM     27  H3  non d ame      -5.211  18.077  68.621  0.00  0.00     0.036 H 
ATOM     28  H4  non d ame      -3.661  17.204  68.665  0.00  0.00     0.036 H 
ENDBRANCH  21  25
ENDBRANCH  16  19
ENDBRANCH  13  15
BRANCH  13  29
ATOM     29  C8  non d ame      -6.907   9.269  70.633  0.00  0.00    -0.049 C 
ATOM     30  H7  non d ame      -7.577   9.505  71.460  0.00  0.00     0.030 H 
ATOM     31  H8  non d ame      -6.997   8.213  70.381  0.00  0.00     0.030 H 
ATOM     32  H9  non d ame      -5.880   9.487  70.925  0.00  0.00     0.030 H 
ENDBRANCH  13  29
ENDBRANCH  10  13
ENDBRANCH   7   9
BRANCH   7  33
ATOM     33  C11 non d ame     -11.939   9.910  71.253  0.00  0.00    -0.033 C 
ATOM     34  H12 non d ame     -11.800  10.785  71.888  0.00  0.00     0.042 H 
BRANCH  33  35
ATOM     35  C12 non d ame     -13.473   9.735  71.025  0.00  0.00    -0.071 C 
ATOM     36  H13 non d ame     -13.970   9.604  71.987  0.00  0.00     0.028 H 
ATOM     37  H14 non d ame     -13.869  10.620  70.529  0.00  0.00     0.028 H 
ATOM     38  H15 non d ame     -13.649   8.859  70.402  0.00  0.00     0.028 H 
ENDBRANCH  33  35
BRANCH  33  39
ATOM     39  C13 non d ame     -11.332   8.675  71.993  0.00  0.00    -0.071 C 
ATOM     40  H16 non d ame     -10.387   8.957  72.458  0.00  0.00     0.028 H 
ATOM     41  H17 non d ame     -12.026   8.333  72.761  0.00  0.00     0.028 H 
ATOM     42  H18 non d ame     -11.158   7.872  71.276  0.00  0.00     0.028 H 
ENDBRANCH  33  39
ENDBRANCH   7  33
ENDBRANCH   4   7
ENDBRANCH   1   3
BRANCH   1  43
ATOM     43  C15 non d ame     -11.096  14.505  68.502  0.00  0.00     0.240 C 
ATOM     44  O5  non d ame     -10.061  14.929  68.903  0.00  0.00    -0.271 OA
ATOM     45  N6  non d ame     -11.367  14.476  67.036  0.00  0.00    -0.355 N 
ATOM     46  H46 non d ame     -12.241  14.114  66.683  0.00  0.00     0.162 HD
BRANCH  45  47
ATOM     47  C20 non d ame     -10.347  14.982  66.092  0.00  0.00     0.013 C 
ATOM     48  H30 non d ame      -9.369  14.850  66.553  0.00  0.00     0.072 H 
BRANCH  47  49
ATOM     49  C21 non d ame     -10.598  16.449  65.825  0.00  0.00    -0.038 C 
ATOM     50  H31 non d ame     -10.513  16.571  64.745  0.00  0.00     0.036 H 
ATOM     51  H32 non d ame     -11.537  16.684  66.328  0.00  0.00     0.036 H 
BRANCH  49  52
ATOM     52  C22 non d ame      -9.526  17.365  66.454  0.00  0.00     0.018 C 
ATOM     53  H33 non d ame      -8.855  16.702  67.001  0.00  0.00     0.048 H 
ATOM     54  H34 non d ame      -9.141  17.974  65.636  0.00  0.00     0.048 H 
BRANCH  52  55
ATOM     55  C23 non d ame     -10.091  18.363  67.502  0.00  0.00     0.259 C 
ATOM     56  O7  non d ame     -11.009  18.058  68.192  0.00  0.00    -0.265 OA
BRANCH  55  57
ATOM     57  O8  non d ame      -9.506  19.655  67.621  0.00  0.00    -0.317 OA
BRANCH  57  58
ATOM     58  C29 non d ame      -8.295  19.816  66.876  0.00  0.00     0.052 C 
ATOM     59  H47 non d ame      -8.097  18.845  66.421  0.00  0.00     0.082 H 
ATOM     60  H48 non d ame      -8.451  20.691  66.246  0.00  0.00     0.082 H 
BRANCH  58  61
ATOM     61  C35 non d ame      -7.154  20.130  67.880  0.00  0.00    -0.034 A 
ATOM     62  C30 non d ame      -7.244  19.690  69.197  0.00  0.00    -0.075 A 
ATOM     63  C31 non d ame      -6.219  19.972  70.099  0.00  0.00    -0.082 A 
ATOM     64  H49 non d ame      -8.117  19.123  69.522  0.00  0.00     0.084 H 
ATOM     65  C32 non d ame      -5.102  20.700  69.681  0.00  0.00    -0.083 A 
ATOM     66  H50 non d ame      -6.292  19.624  71.129  0.00  0.00     0.083 H 
ATOM     67  C33 non d ame      -5.019  21.141  68.367  0.00  0.00    -0.082 A 
ATOM     68  H51 non d ame      -4.296  20.925  70.379  0.00  0.00     0.083 H 
ATOM     69  C34 non d ame      -6.039  20.859  67.461  0.00  0.00    -0.075 A 
ATOM     70  H52 non d ame      -4.147  21.710  68.044  0.00  0.00     0.083 H 
ATOM     71  H53 non d ame      -5.966  21.207  66.431  0.00  0.00     0.084 H 
ENDBRANCH  58  61
ENDBRANCH  57  58
ENDBRANCH  55  57
ENDBRANCH  52  55
ENDBRANCH  49  52
ENDBRANCH  47  49
BRANCH  47  72
ATOM     72  C24 non d ame     -10.426  14.204  64.781  0.00  0.00    -0.039 C 
ATOM     73  H35 non d ame     -11.083  14.789  64.136  0.00  0.00     0.036 H 
ATOM     74  H36 non d ame      -9.392  14.026  64.487  0.00  0.00     0.036 H 
BRANCH  72  75
ATOM     75  C25 non d ame     -11.114  12.772  64.982  0.00  0.00    -0.001 C 
ATOM     76  C26 non d ame      -9.969  11.592  64.954  0.00  0.00    -0.035 C 
ATOM     77  C27 non d ame     -10.345  10.639  64.067  0.00  0.00     0.085 C 
ATOM     78  H38 non d ame      -9.042  11.980  64.533  0.00  0.00     0.036 H 
ATOM     79  H39 non d ame      -9.955  11.062  65.907  0.00  0.00     0.036 H 
ATOM     80  N5  non d ame     -11.475  11.218  63.250  0.00  0.00    -0.049 N 
ATOM     81  H40 non d ame      -9.481  10.485  63.420  0.00  0.00     0.075 H 
ATOM     82  H41 non d ame     -10.729   9.816  64.670  0.00  0.00     0.075 H 
ATOM     83  C28 non d ame     -11.973  12.530  64.048  0.00  0.00     0.193 C 
ATOM     84  H42 non d ame     -11.072  11.510  62.371  0.00  0.00     0.280 HD
ATOM     85  H43 non d ame     -12.218  10.534  63.263  0.00  0.00     0.280 HD
ATOM     86  H44 non d ame     -12.896  12.509  64.628  0.00  0.00     0.129 H 
ATOM     87  H37 non d ame     -11.814  12.764  65.817  0.00  0.00     0.046 H 
BRANCH  83  88
ATOM     88  O6  non d ame     -12.114  13.631  63.148  0.00  0.00    -0.369 OA
ATOM     89  H45 non d ame     -11.262  13.834  62.756  0.00  0.00     0.212 HD
ENDBRANCH  83  88
ENDBRANCH  72  75
ENDBRANCH  47  72
ENDBRANCH  45  47
ENDBRANCH   1  43
BRANCH   1  90
ATOM     90  C16 non d ame     -12.365  14.994  70.617  0.00  0.00    -0.035 C 
ATOM     91  H21 non d ame     -11.380  15.144  71.059  0.00  0.00     0.037 H 
ATOM     92  H22 non d ame     -12.884  15.831  70.147  0.00  0.00     0.037 H 
BRANCH  90  93
ATOM     93  C17 non d ame     -13.294  14.490  71.766  0.00  0.00    -0.059 C 
ATOM     94  H23 non d ame     -13.308  13.401  71.726  0.00  0.00     0.038 H 
BRANCH  93  95
ATOM     95  C18 non d ame     -12.766  14.907  73.176  0.00  0.00    -0.073 C 
ATOM     96  H24 non d ame     -11.814  15.426  73.069  0.00  0.00     0.028 H 
ATOM     97  H25 non d ame     -13.489  15.570  73.653  0.00  0.00     0.028 H 
ATOM     98  H26 non d ame     -12.629  14.018  73.791  0.00  0.00     0.028 H 
ENDBRANCH  93  95
BRANCH  93  99
ATOM     99  C19 non d ame     -14.732  14.971  71.559  0.00  0.00    -0.073 C 
ATOM    100  H27 non d ame     -15.060  15.528  72.437  0.00  0.00     0.028 H 
ATOM    101  H28 non d ame     -14.776  15.617  70.681  0.00  0.00     0.028 H 
ATOM    102  H29 non d ame     -15.385  14.111  71.408  0.00  0.00     0.028 H 
ENDBRANCH  93  99
ENDBRANCH  90  93
ENDBRANCH   1  90
TORSDOF 26
ENDMDL
MODEL 3
REMARK VINA RESULT:      -6.5      1.956      7.022
REMARK  26 active torsions:
REMARK  status: ('A' for Active; 'I' for Inactive)
REMARK    1  A    between atoms: C2_2  and  C3_3 
REMARK    2  A    between atoms: C4_6  and  C5_7 
REMARK       I    between atoms: C5_7  and  N2_9 
REMARK    3  A    between atoms: N2_9  and  C6_10 
REMARK    4  A    between atoms: C6_10  and  C7_11 
REMARK    5  A    between atoms: C6_10  and  C8_13 
REMARK       I    between atoms: C7_11  and  N3_14 
REMARK    6  A    between atoms: N3_14  and  C9_15 
REMARK    7  A    between atoms: C9_15  and  C10_16 
REMARK    8  A    between atoms: C9_15  and  C11_18 
REMARK       I    between atoms: C10_16  and  N4_21 
REMARK    9  A    between atoms: C11_18  and  C12_19 
REMARK   10  A    between atoms: C11_18  and  C13_20 
REMARK   11  A    between atoms: N4_21  and  C14_22 
REMARK   12  A    between atoms: C14_22  and  C15_23 
REMARK   13  A    between atoms: C14_22  and  C16_25 
REMARK       I    between atoms: C15_23  and  N6_40 
REMARK   14  A    between atoms: C16_25  and  C17_26 
REMARK   15  A    between atoms: C17_26  and  C18_27 
REMARK   16  A    between atoms: C17_26  and  C19_28 
REMARK   17  A    between atoms: C20_29  and  C21_30 
REMARK   18  A    between atoms: C20_29  and  C24_33 
REMARK   19  A    between atoms: C20_29  and  N6_40 
REMARK   20  A    between atoms: C21_30  and  C22_31 
REMARK   21  A    between atoms: C22_31  and  C23_32 
REMARK   22  A    between atoms: C23_32  and  O8_43 
REMARK   23  A    between atoms: C24_33  and  C25_34 
REMARK   24  A    between atoms: C28_38  and  O6_39 
REMARK   25  A    between atoms: C29_42  and  O8_43 
REMARK   26  A    between atoms: C29_42  and  C35_49 
ROOT
ATOM      1  C14 non d ame      -6.790  14.669  67.850  0.00  0.00     0.089 C 
ATOM      2  H20 non d ame      -6.080  15.016  67.098  0.00  0.00     0.087 H 
ENDROOT
BRANCH   1   3
ATOM      3  N4  non d ame      -8.062  15.327  67.588  0.00  0.00    -0.346 N 
ATOM      4  C10 non d ame      -8.131  16.504  66.648  0.00  0.00     0.241 C 
ATOM      5  O4  non d ame      -7.149  16.907  66.117  0.00  0.00    -0.271 OA
ATOM      6  H19 non d ame      -8.885  14.970  68.052  0.00  0.00     0.163 HD
BRANCH   4   7
ATOM      7  C9  non d ame      -9.457  17.169  66.384  0.00  0.00     0.092 C 
ATOM      8  H11 non d ame      -9.561  17.349  65.314  0.00  0.00     0.088 H 
BRANCH   7   9
ATOM      9  N3  non d ame     -10.543  16.267  66.779  0.00  0.00    -0.346 N 
ATOM     10  C7  non d ame     -10.657  14.966  66.169  0.00  0.00     0.240 C 
ATOM     11  O3  non d ame      -9.885  14.628  65.357  0.00  0.00    -0.271 OA
ATOM     12  H10 non d ame     -11.218  16.545  67.477  0.00  0.00     0.163 HD
BRANCH  10  13
ATOM     13  C6  non d ame     -11.818  14.012  66.591  0.00  0.00     0.086 C 
ATOM     14  H6  non d ame     -11.477  12.995  66.787  0.00  0.00     0.086 H 
BRANCH  13  15
ATOM     15  N2  non d ame     -12.403  14.501  67.828  0.00  0.00    -0.343 N 
ATOM     16  C5  non d ame     -11.637  14.410  69.073  0.00  0.00     0.273 C 
ATOM     17  O2  non d ame     -10.553  13.941  69.070  0.00  0.00    -0.266 OA
ATOM     18  H5  non d ame     -13.332  14.898  67.823  0.00  0.00     0.163 HD
BRANCH  16  19
ATOM     19  C4  non d ame     -12.243  14.925  70.389  0.00  0.00     0.154 A 
ATOM     20  C1  non d ame     -11.553  15.185  71.615  0.00  0.00    -0.017 A 
ATOM     21  C2  non d ame     -12.552  15.637  72.506  0.00  0.00     0.077 A 
ATOM     22  H1  non d ame     -10.490  15.065  71.826  0.00  0.00     0.091 H 
ATOM     23  O1  non d ame     -13.680  15.634  71.856  0.00  0.00    -0.218 OA
ATOM     24  N1  non d ame     -13.525  15.222  70.619  0.00  0.00    -0.123 NA
BRANCH  21  25
ATOM     25  C3  non d ame     -12.347  16.051  73.956  0.00  0.00    -0.029 C 
ATOM     26  H2  non d ame     -13.295  16.388  74.377  0.00  0.00     0.036 H 
ATOM     27  H3  non d ame     -11.977  15.200  74.528  0.00  0.00     0.036 H 
ATOM     28  H4  non d ame     -11.620  16.863  74.003  0.00  0.00     0.036 H 
ENDBRANCH  21  25
ENDBRANCH  16  19
ENDBRANCH  13  15
BRANCH  13  29
ATOM     29  C8  non d ame     -12.862  13.975  65.505  0.00  0.00    -0.049 C 
ATOM     30  H7  non d ame     -12.401  13.664  64.567  0.00  0.00     0.030 H 
ATOM     31  H8  non d ame     -13.645  13.267  65.777  0.00  0.00     0.030 H 
ATOM     32  H9  non d ame     -13.295  14.967  65.383  0.00  0.00     0.030 H 
ENDBRANCH  13  29
ENDBRANCH  10  13
ENDBRANCH   7   9
BRANCH   7  33
ATOM     33  C11 non d ame      -9.551  18.484  67.212  0.00  0.00    -0.033 C 
ATOM     34  H12 non d ame      -8.559  18.934  67.229  0.00  0.00     0.042 H 
BRANCH  33  35
ATOM     35  C12 non d ame     -10.519  19.509  66.541  0.00  0.00    -0.071 C 
ATOM     36  H13 non d ame     -11.437  19.001  66.244  0.00  0.00     0.028 H 
ATOM     37  H14 non d ame     -10.756  20.302  67.251  0.00  0.00     0.028 H 
ATOM     38  H15 non d ame     -10.040  19.939  65.662  0.00  0.00     0.028 H 
ENDBRANCH  33  35
BRANCH  33  39
ATOM     39  C13 non d ame      -9.973  18.188  68.687  0.00  0.00    -0.071 C 
ATOM     40  H16 non d ame     -11.059  18.230  68.769  0.00  0.00     0.028 H 
ATOM     41  H17 non d ame      -9.625  17.195  68.972  0.00  0.00     0.028 H 
ATOM     42  H18 non d ame      -9.530  18.933  69.348  0.00  0.00     0.028 H 
ENDBRANCH  33  39
ENDBRANCH   7  33
ENDBRANCH   4   7
ENDBRANCH   1   3
BRANCH   1  43
ATOM     43  C15 non d ame      -7.006  13.130  67.788  0.00  0.00     0.240 C 
ATOM     44  O5  non d ame      -6.137  12.397  68.133  0.00  0.00    -0.271 OA
ATOM     45  N6  non d ame      -8.301  12.570  67.306  0.00  0.00    -0.355 N 
ATOM     46  H46 non d ame      -9.048  13.183  67.014  0.00  0.00     0.162 HD
BRANCH  45  47
ATOM     47  C20 non d ame      -8.491  11.104  67.254  0.00  0.00     0.013 C 
ATOM     48  H30 non d ame      -7.814  10.652  67.979  0.00  0.00     0.072 H 
BRANCH  47  49
ATOM     49  C21 non d ame      -8.167  10.607  65.864  0.00  0.00    -0.038 C 
ATOM     50  H31 non d ame      -7.877  11.490  65.295  0.00  0.00     0.036 H 
ATOM     51  H32 non d ame      -7.458   9.790  66.001  0.00  0.00     0.036 H 
BRANCH  49  52
ATOM     52  C22 non d ame      -9.392  10.004  65.142  0.00  0.00     0.018 C 
ATOM     53  H33 non d ame      -9.206   8.931  65.091  0.00  0.00     0.048 H 
ATOM     54  H34 non d ame     -10.264  10.382  65.676  0.00  0.00     0.048 H 
BRANCH  52  55
ATOM     55  C23 non d ame      -9.550  10.482  63.672  0.00  0.00     0.259 C 
ATOM     56  O7  non d ame     -10.007  11.553  63.431  0.00  0.00    -0.265 OA
BRANCH  55  57
ATOM     57  O8  non d ame      -9.154   9.620  62.612  0.00  0.00    -0.317 OA
BRANCH  57  58
ATOM     58  C29 non d ame      -7.767   9.714  62.272  0.00  0.00     0.052 C 
ATOM     59  H47 non d ame      -7.737   9.835  61.190  0.00  0.00     0.082 H 
ATOM     60  H48 non d ame      -7.357  10.490  62.919  0.00  0.00     0.082 H 
BRANCH  58  61
ATOM     61  C35 non d ame      -7.092   8.365  62.635  0.00  0.00    -0.034 A 
ATOM     62  C30 non d ame      -7.867   7.222  62.806  0.00  0.00    -0.075 A 
ATOM     63  C31 non d ame      -7.261   6.010  63.132  0.00  0.00    -0.082 A 
ATOM     64  H49 non d ame      -8.949   7.276  62.684  0.00  0.00     0.084 H 
ATOM     65  C32 non d ame      -5.874   5.943  63.291  0.00  0.00    -0.083 A 
ATOM     66  H50 non d ame      -7.871   5.116  63.263  0.00  0.00     0.083 H 
ATOM     67  C33 non d ame      -5.105   7.087  63.122  0.00  0.00    -0.082 A 
ATOM     68  H51 non d ame      -5.392   5.000  63.545  0.00  0.00     0.083 H 
ATOM     69  C34 non d ame      -5.707   8.300  62.794  0.00  0.00    -0.075 A 
ATOM     70  H52 non d ame      -4.024   7.033  63.249  0.00  0.00     0.083 H 
ATOM     71  H53 non d ame      -5.096   9.194  62.663  0.00  0.00     0.084 H 
ENDBRANCH  58  61
ENDBRANCH  57  58
ENDBRANCH  55  57
ENDBRANCH  52  55
ENDBRANCH  49  52
ENDBRANCH  47  49
BRANCH  47  72
ATOM     72  C24 non d ame      -9.939  10.759  67.595  0.00  0.00    -0.039 C 
ATOM     73  H35 non d ame     -10.515  11.654  67.356  0.00  0.00     0.036 H 
ATOM     74  H36 non d ame     -10.145   9.824  67.073  0.00  0.00     0.036 H 
BRANCH  72  75
ATOM     75  C25 non d ame     -10.129  10.478  69.160  0.00  0.00    -0.001 C 
ATOM     76  C26 non d ame      -9.479   9.019  69.551  0.00  0.00    -0.035 C 
ATOM     77  C27 non d ame     -10.402   8.299  70.233  0.00  0.00     0.085 C 
ATOM     78  H38 non d ame      -9.313   8.431  68.649  0.00  0.00     0.036 H 
ATOM     79  H39 non d ame      -8.674   9.150  70.273  0.00  0.00     0.036 H 
ATOM     80  N5  non d ame     -11.727   9.002  70.060  0.00  0.00    -0.049 N 
ATOM     81  H40 non d ame     -10.445   7.331  69.733  0.00  0.00     0.075 H 
ATOM     82  H41 non d ame     -10.103   8.359  71.279  0.00  0.00     0.075 H 
ATOM     83  C28 non d ame     -11.379  10.470  69.486  0.00  0.00     0.193 C 
ATOM     84  H42 non d ame     -12.232   8.490  69.350  0.00  0.00     0.280 HD
ATOM     85  H43 non d ame     -12.120   9.104  70.985  0.00  0.00     0.280 HD
ATOM     86  H44 non d ame     -11.421  11.343  70.137  0.00  0.00     0.129 H 
ATOM     87  H37 non d ame      -9.835  11.332  69.772  0.00  0.00     0.046 H 
BRANCH  83  88
ATOM     88  O6  non d ame     -12.226  10.779  68.377  0.00  0.00    -0.369 OA
ATOM     89  H45 non d ame     -13.139  10.811  68.672  0.00  0.00     0.212 HD
ENDBRANCH  83  88
ENDBRANCH  72  75
ENDBRANCH  47  72
ENDBRANCH  45  47
ENDBRANCH   1  43
BRANCH   1  90
ATOM     90  C16 non d ame      -6.305  15.062  69.236  0.00  0.00    -0.035 C 
ATOM     91  H21 non d ame      -7.196  15.390  69.772  0.00  0.00     0.037 H 
ATOM     92  H22 non d ame      -5.737  14.204  69.597  0.00  0.00     0.037 H 
BRANCH  90  93
ATOM     93  C17 non d ame      -5.320  16.274  69.235  0.00  0.00    -0.059 C 
ATOM     94  H23 non d ame      -4.913  16.369  68.228  0.00  0.00     0.038 H 
BRANCH  93  95
ATOM     95  C18 non d ame      -6.038  17.617  69.586  0.00  0.00    -0.073 C 
ATOM     96  H24 non d ame      -7.110  17.508  69.425  0.00  0.00     0.028 H 
ATOM     97  H25 non d ame      -5.850  17.866  70.631  0.00  0.00     0.028 H 
ATOM     98  H26 non d ame      -5.652  18.413  68.948  0.00  0.00     0.028 H 
ENDBRANCH  93  95
BRANCH  93  99
ATOM     99  C19 non d ame      -4.142  16.023  70.180  0.00  0.00    -0.073 C 
ATOM    100  H27 non d ame      -4.514  15.887  71.196  0.00  0.00     0.028 H 
ATOM    101  H28 non d ame      -3.609  15.125  69.865  0.00  0.00     0.028 H 
ATOM    102  H29 non d ame      -3.465  16.876  70.151  0.00  0.00     0.028 H 
ENDBRANCH  93  99
ENDBRANCH  90  93
ENDBRANCH   1  90
TORSDOF 26
ENDMDL
MODEL 4
REMARK VINA RESULT:      -6.4      1.759      2.373
REMARK  26 active torsions:
REMARK  status: ('A' for Active; 'I' for Inactive)
REMARK    1  A    between atoms: C2_2  and  C3_3 
REMARK    2  A    between atoms: C4_6  and  C5_7 
REMARK       I    between atoms: C5_7  and  N2_9 
REMARK    3  A    between atoms: N2_9  and  C6_10 
REMARK    4  A    between atoms: C6_10  and  C7_11 
REMARK    5  A    between atoms: C6_10  and  C8_13 
REMARK       I    between atoms: C7_11  and  N3_14 
REMARK    6  A    between atoms: N3_14  and  C9_15 
REMARK    7  A    between atoms: C9_15  and  C10_16 
REMARK    8  A    between atoms: C9_15  and  C11_18 
REMARK       I    between atoms: C10_16  and  N4_21 
REMARK    9  A    between atoms: C11_18  and  C12_19 
REMARK   10  A    between atoms: C11_18  and  C13_20 
REMARK   11  A    between atoms: N4_21  and  C14_22 
REMARK   12  A    between atoms: C14_22  and  C15_23 
REMARK   13  A    between atoms: C14_22  and  C16_25 
REMARK       I    between atoms: C15_23  and  N6_40 
REMARK   14  A    between atoms: C16_25  and  C17_26 
REMARK   15  A    between atoms: C17_26  and  C18_27 
REMARK   16  A    between atoms: C17_26  and  C19_28 
REMARK   17  A    between atoms: C20_29  and  C21_30 
REMARK   18  A    between atoms: C20_29  and  C24_33 
REMARK   19  A    between atoms: C20_29  and  N6_40 
REMARK   20  A    between atoms: C21_30  and  C22_31 
REMARK   21  A    between atoms: C22_31  and  C23_32 
REMARK   22  A    between atoms: C23_32  and  O8_43 
REMARK   23  A    between atoms: C24_33  and  C25_34 
REMARK   24  A    between atoms: C28_38  and  O6_39 
REMARK   25  A    between atoms: C29_42  and  O8_43 
REMARK   26  A    between atoms: C29_42  and  C35_49 
ROOT
ATOM      1  C14 non d ame     -12.201  13.855  70.182  0.00  0.00     0.089 C 
ATOM      2  H20 non d ame     -13.249  13.813  69.885  0.00  0.00     0.087 H 
ENDROOT
BRANCH   1   3
ATOM      3  N4  non d ame     -11.760  12.490  70.428  0.00  0.00    -0.346 N 
ATOM      4  C10 non d ame     -11.795  11.466  69.321  0.00  0.00     0.241 C 
ATOM      5  O4  non d ame     -12.184  11.764  68.240  0.00  0.00    -0.271 OA
ATOM      6  H19 non d ame     -11.435  12.256  71.356  0.00  0.00     0.163 HD
BRANCH   4   7
ATOM      7  C9  non d ame     -11.330  10.060  69.593  0.00  0.00     0.092 C 
ATOM      8  H11 non d ame     -11.940   9.363  69.017  0.00  0.00     0.088 H 
BRANCH   7   9
ATOM      9  N3  non d ame      -9.946   9.905  69.136  0.00  0.00    -0.346 N 
ATOM     10  C7  non d ame      -9.667   9.196  67.911  0.00  0.00     0.240 C 
ATOM     11  O3  non d ame     -10.544   8.741  67.283  0.00  0.00    -0.271 OA
ATOM     12  H10 non d ame      -9.179  10.290  69.668  0.00  0.00     0.163 HD
BRANCH  10  13
ATOM     13  C6  non d ame      -8.191   9.032  67.431  0.00  0.00     0.086 C 
ATOM     14  H6  non d ame      -8.109   8.924  66.350  0.00  0.00     0.086 H 
BRANCH  13  15
ATOM     15  N2  non d ame      -7.444  10.226  67.788  0.00  0.00    -0.343 N 
ATOM     16  C5  non d ame      -6.640  10.905  66.770  0.00  0.00     0.273 C 
ATOM     17  O2  non d ame      -6.599  10.482  65.667  0.00  0.00    -0.266 OA
ATOM     18  H5  non d ame      -7.483  10.580  68.734  0.00  0.00     0.163 HD
BRANCH  16  19
ATOM     19  C4  non d ame      -5.846  12.170  67.133  0.00  0.00     0.154 A 
ATOM     20  C1  non d ame      -6.294  13.275  67.925  0.00  0.00    -0.017 A 
ATOM     21  C2  non d ame      -5.199  14.166  67.959  0.00  0.00     0.077 A 
ATOM     22  H1  non d ame      -7.265  13.409  68.402  0.00  0.00     0.091 H 
ATOM     23  O1  non d ame      -4.239  13.626  67.266  0.00  0.00    -0.218 OA
ATOM     24  N1  non d ame      -4.593  12.461  66.774  0.00  0.00    -0.123 NA
BRANCH  21  25
ATOM     25  C3  non d ame      -5.150  15.509  68.675  0.00  0.00    -0.029 C 
ATOM     26  H2  non d ame      -4.539  16.206  68.101  0.00  0.00     0.036 H 
ATOM     27  H3  non d ame      -6.161  15.906  68.771  0.00  0.00     0.036 H 
ATOM     28  H4  non d ame      -4.717  15.377  69.667  0.00  0.00     0.036 H 
ENDBRANCH  21  25
ENDBRANCH  16  19
ENDBRANCH  13  15
BRANCH  13  29
ATOM     29  C8  non d ame      -7.577   7.822  68.089  0.00  0.00    -0.049 C 
ATOM     30  H7  non d ame      -7.791   7.841  69.158  0.00  0.00     0.030 H 
ATOM     31  H8  non d ame      -7.998   6.917  67.650  0.00  0.00     0.030 H 
ATOM     32  H9  non d ame      -6.499   7.834  67.935  0.00  0.00     0.030 H 
ENDBRANCH  13  29
ENDBRANCH  10  13
ENDBRANCH   7   9
BRANCH   7  33
ATOM     33  C11 non d ame     -11.403   9.776  71.122  0.00  0.00    -0.033 C 
ATOM     34  H12 non d ame     -11.228  10.718  71.640  0.00  0.00     0.042 H 
BRANCH  33  35
ATOM     35  C12 non d ame     -12.818   9.267  71.539  0.00  0.00    -0.071 C 
ATOM     36  H13 non d ame     -13.428  10.112  71.860  0.00  0.00     0.028 H 
ATOM     37  H14 non d ame     -13.294   8.779  70.688  0.00  0.00     0.028 H 
ATOM     38  H15 non d ame     -12.722   8.556  72.359  0.00  0.00     0.028 H 
ENDBRANCH  33  35
BRANCH  33  39
ATOM     39  C13 non d ame     -10.289   8.771  71.558  0.00  0.00    -0.071 C 
ATOM     40  H16 non d ame      -9.781   9.152  72.443  0.00  0.00     0.028 H 
ATOM     41  H17 non d ame     -10.740   7.804  71.786  0.00  0.00     0.028 H 
ATOM     42  H18 non d ame      -9.569   8.653  70.748  0.00  0.00     0.028 H 
ENDBRANCH  33  39
ENDBRANCH   7  33
ENDBRANCH   4   7
ENDBRANCH   1   3
BRANCH   1  43
ATOM     43  C15 non d ame     -11.301  14.473  69.073  0.00  0.00     0.240 C 
ATOM     44  O5  non d ame     -10.142  14.638  69.277  0.00  0.00    -0.271 OA
ATOM     45  N6  non d ame     -11.883  14.852  67.755  0.00  0.00    -0.355 N 
ATOM     46  H46 non d ame     -12.866  14.713  67.568  0.00  0.00     0.162 HD
BRANCH  45  47
ATOM     47  C20 non d ame     -11.014  15.437  66.711  0.00  0.00     0.013 C 
ATOM     48  H30 non d ame     -11.654  15.807  65.910  0.00  0.00     0.072 H 
BRANCH  47  49
ATOM     49  C21 non d ame     -10.084  14.370  66.179  0.00  0.00    -0.038 C 
ATOM     50  H31 non d ame      -9.098  14.834  66.135  0.00  0.00     0.036 H 
ATOM     51  H32 non d ame     -10.248  13.496  66.810  0.00  0.00     0.036 H 
BRANCH  49  52
ATOM     52  C22 non d ame     -10.429  13.939  64.737  0.00  0.00     0.018 C 
ATOM     53  H33 non d ame     -10.884  14.812  64.268  0.00  0.00     0.048 H 
ATOM     54  H34 non d ame      -9.511  13.517  64.328  0.00  0.00     0.048 H 
BRANCH  52  55
ATOM     55  C23 non d ame     -11.492  12.808  64.659  0.00  0.00     0.259 C 
ATOM     56  O7  non d ame     -12.537  12.923  65.213  0.00  0.00    -0.265 OA
BRANCH  55  57
ATOM     57  O8  non d ame     -11.197  11.625  63.927  0.00  0.00    -0.317 OA
BRANCH  57  58
ATOM     58  C29 non d ame     -10.219  10.785  64.547  0.00  0.00     0.052 C 
ATOM     59  H47 non d ame      -9.676  11.427  65.240  0.00  0.00     0.082 H 
ATOM     60  H48 non d ame     -10.768   9.920  64.921  0.00  0.00     0.082 H 
BRANCH  58  61
ATOM     61  C35 non d ame      -9.235  10.303  63.448  0.00  0.00    -0.034 A 
ATOM     62  C30 non d ame      -8.807  11.185  62.461  0.00  0.00    -0.075 A 
ATOM     63  C31 non d ame      -7.924  10.753  61.473  0.00  0.00    -0.082 A 
ATOM     64  H49 non d ame      -9.164  12.216  62.462  0.00  0.00     0.084 H 
ATOM     65  C32 non d ame      -7.469   9.431  61.473  0.00  0.00    -0.083 A 
ATOM     66  H50 non d ame      -7.588  11.448  60.703  0.00  0.00     0.083 H 
ATOM     67  C33 non d ame      -7.902   8.554  62.458  0.00  0.00    -0.082 A 
ATOM     68  H51 non d ame      -6.778   9.085  60.705  0.00  0.00     0.083 H 
ATOM     69  C34 non d ame      -8.784   8.982  63.448  0.00  0.00    -0.075 A 
ATOM     70  H52 non d ame      -7.548   7.522  62.454  0.00  0.00     0.083 H 
ATOM     71  H53 non d ame      -9.118   8.287  64.219  0.00  0.00     0.084 H 
ENDBRANCH  58  61
ENDBRANCH  57  58
ENDBRANCH  55  57
ENDBRANCH  52  55
ENDBRANCH  49  52
ENDBRANCH  47  49
BRANCH  47  72
ATOM     72  C24 non d ame     -10.193  16.580  67.304  0.00  0.00    -0.039 C 
ATOM     73  H35 non d ame     -10.879  17.124  67.954  0.00  0.00     0.036 H 
ATOM     74  H36 non d ame      -9.303  16.111  67.723  0.00  0.00     0.036 H 
BRANCH  72  75
ATOM     75  C25 non d ame      -9.700  17.604  66.174  0.00  0.00    -0.001 C 
ATOM     76  C26 non d ame      -8.060  17.723  66.202  0.00  0.00    -0.035 C 
ATOM     77  C27 non d ame      -7.719  19.032  66.259  0.00  0.00     0.085 C 
ATOM     78  H38 non d ame      -7.672  17.318  67.137  0.00  0.00     0.036 H 
ATOM     79  H39 non d ame      -7.645  17.392  65.250  0.00  0.00     0.036 H 
ATOM     80  N5  non d ame      -8.971  19.801  66.602  0.00  0.00    -0.049 N 
ATOM     81  H40 non d ame      -7.013  19.114  67.087  0.00  0.00     0.075 H 
ATOM     82  H41 non d ame      -7.406  19.295  65.249  0.00  0.00     0.075 H 
ATOM     83  C28 non d ame     -10.199  18.781  66.361  0.00  0.00     0.193 C 
ATOM     84  H42 non d ame      -8.917  20.012  67.588  0.00  0.00     0.280 HD
ATOM     85  H43 non d ame      -9.040  20.551  65.929  0.00  0.00     0.280 HD
ATOM     86  H44 non d ame     -10.829  18.872  65.476  0.00  0.00     0.129 H 
ATOM     87  H37 non d ame     -10.167  17.410  65.209  0.00  0.00     0.046 H 
BRANCH  83  88
ATOM     88  O6  non d ame     -11.095  18.817  67.473  0.00  0.00    -0.369 OA
ATOM     89  H45 non d ame     -10.828  19.513  68.077  0.00  0.00     0.212 HD
ENDBRANCH  83  88
ENDBRANCH  72  75
ENDBRANCH  47  72
ENDBRANCH  45  47
ENDBRANCH   1  43
BRANCH   1  90
ATOM     90  C16 non d ame     -12.060  14.661  71.463  0.00  0.00    -0.035 C 
ATOM     91  H21 non d ame     -11.902  13.924  72.251  0.00  0.00     0.037 H 
ATOM     92  H22 non d ame     -11.294  15.407  71.252  0.00  0.00     0.037 H 
BRANCH  90  93
ATOM     93  C17 non d ame     -13.350  15.451  71.851  0.00  0.00    -0.059 C 
ATOM     94  H23 non d ame     -13.405  16.330  71.209  0.00  0.00     0.038 H 
BRANCH  93  95
ATOM     95  C18 non d ame     -14.648  14.612  71.620  0.00  0.00    -0.073 C 
ATOM     96  H24 non d ame     -15.456  15.020  72.226  0.00  0.00     0.028 H 
ATOM     97  H25 non d ame     -14.925  14.654  70.566  0.00  0.00     0.028 H 
ATOM     98  H26 non d ame     -14.465  13.576  71.907  0.00  0.00     0.028 H 
ENDBRANCH  93  95
BRANCH  93  99
ATOM     99  C19 non d ame     -13.273  15.948  73.297  0.00  0.00    -0.073 C 
ATOM    100  H27 non d ame     -12.289  16.381  73.480  0.00  0.00     0.028 H 
ATOM    101  H28 non d ame     -14.040  16.706  73.461  0.00  0.00     0.028 H 
ATOM    102  H29 non d ame     -13.436  15.113  73.977  0.00  0.00     0.028 H 
ENDBRANCH  93  99
ENDBRANCH  90  93
ENDBRANCH   1  90
TORSDOF 26
ENDMDL
MODEL 5
REMARK VINA RESULT:      -6.4      1.730      2.588
REMARK  26 active torsions:
REMARK  status: ('A' for Active; 'I' for Inactive)
REMARK    1  A    between atoms: C2_2  and  C3_3 
REMARK    2  A    between atoms: C4_6  and  C5_7 
REMARK       I    between atoms: C5_7  and  N2_9 
REMARK    3  A    between atoms: N2_9  and  C6_10 
REMARK    4  A    between atoms: C6_10  and  C7_11 
REMARK    5  A    between atoms: C6_10  and  C8_13 
REMARK       I    between atoms: C7_11  and  N3_14 
REMARK    6  A    between atoms: N3_14  and  C9_15 
REMARK    7  A    between atoms: C9_15  and  C10_16 
REMARK    8  A    between atoms: C9_15  and  C11_18 
REMARK       I    between atoms: C10_16  and  N4_21 
REMARK    9  A    between atoms: C11_18  and  C12_19 
REMARK   10  A    between atoms: C11_18  and  C13_20 
REMARK   11  A    between atoms: N4_21  and  C14_22 
REMARK   12  A    between atoms: C14_22  and  C15_23 
REMARK   13  A    between atoms: C14_22  and  C16_25 
REMARK       I    between atoms: C15_23  and  N6_40 
REMARK   14  A    between atoms: C16_25  and  C17_26 
REMARK   15  A    between atoms: C17_26  and  C18_27 
REMARK   16  A    between atoms: C17_26  and  C19_28 
REMARK   17  A    between atoms: C20_29  and  C21_30 
REMARK   18  A    between atoms: C20_29  and  C24_33 
REMARK   19  A    between atoms: C20_29  and  N6_40 
REMARK   20  A    between atoms: C21_30  and  C22_31 
REMARK   21  A    between atoms: C22_31  and  C23_32 
REMARK   22  A    between atoms: C23_32  and  O8_43 
REMARK   23  A    between atoms: C24_33  and  C25_34 
REMARK   24  A    between atoms: C28_38  and  O6_39 
REMARK   25  A    between atoms: C29_42  and  O8_43 
REMARK   26  A    between atoms: C29_42  and  C35_49 
ROOT
ATOM      1  C14 non d ame     -12.313  13.921  70.148  0.00  0.00     0.089 C 
ATOM      2  H20 non d ame     -13.387  13.737  70.121  0.00  0.00     0.087 H 
ENDROOT
BRANCH   1   3
ATOM      3  N4  non d ame     -11.645  12.642  69.962  0.00  0.00    -0.346 N 
ATOM      4  C10 non d ame     -12.202  11.392  70.595  0.00  0.00     0.241 C 
ATOM      5  O4  non d ame     -13.189  11.441  71.252  0.00  0.00    -0.271 OA
ATOM      6  H19 non d ame     -10.805  12.622  69.401  0.00  0.00     0.163 HD
BRANCH   4   7
ATOM      7  C9  non d ame     -11.501  10.075  70.387  0.00  0.00     0.092 C 
ATOM      8  H11 non d ame     -11.924   9.577  69.514  0.00  0.00     0.088 H 
BRANCH   7   9
ATOM      9  N3  non d ame     -10.083  10.316  70.102  0.00  0.00    -0.346 N 
ATOM     10  C7  non d ame      -9.577  10.139  68.763  0.00  0.00     0.240 C 
ATOM     11  O3  non d ame     -10.296   9.802  67.903  0.00  0.00    -0.271 OA
ATOM     12  H10 non d ame      -9.450  10.606  70.834  0.00  0.00     0.163 HD
BRANCH  10  13
ATOM     13  C6  non d ame      -8.066  10.395  68.467  0.00  0.00     0.086 C 
ATOM     14  H6  non d ame      -7.906  10.966  67.553  0.00  0.00     0.086 H 
BRANCH  13  15
ATOM     15  N2  non d ame      -7.499  11.177  69.552  0.00  0.00    -0.343 N 
ATOM     16  C5  non d ame      -6.364  12.064  69.285  0.00  0.00     0.273 C 
ATOM     17  O2  non d ame      -5.914  12.139  68.195  0.00  0.00    -0.266 OA
ATOM     18  H5  non d ame      -7.888  11.106  70.481  0.00  0.00     0.163 HD
BRANCH  16  19
ATOM     19  C4  non d ame      -5.755  12.899  70.422  0.00  0.00     0.154 A 
ATOM     20  C1  non d ame      -4.733  12.496  71.338  0.00  0.00    -0.017 A 
ATOM     21  C2  non d ame      -4.533  13.616  72.176  0.00  0.00     0.077 A 
ATOM     22  H1  non d ame      -4.214  11.539  71.388  0.00  0.00     0.091 H 
ATOM     23  O1  non d ame      -5.350  14.548  71.778  0.00  0.00    -0.218 OA
ATOM     24  N1  non d ame      -6.074  14.153  70.756  0.00  0.00    -0.123 NA
BRANCH  21  25
ATOM     25  C3  non d ame      -3.545  13.715  73.330  0.00  0.00    -0.029 C 
ATOM     26  H2  non d ame      -4.085  13.674  74.277  0.00  0.00     0.036 H 
ATOM     27  H3  non d ame      -2.842  12.883  73.278  0.00  0.00     0.036 H 
ATOM     28  H4  non d ame      -2.999  14.656  73.263  0.00  0.00     0.036 H 
ENDBRANCH  21  25
ENDBRANCH  16  19
ENDBRANCH  13  15
BRANCH  13  29
ATOM     29  C8  non d ame      -7.345   9.076  68.349  0.00  0.00    -0.049 C 
ATOM     30  H7  non d ame      -6.387   9.138  68.866  0.00  0.00     0.030 H 
ATOM     31  H8  non d ame      -7.950   8.289  68.798  0.00  0.00     0.030 H 
ATOM     32  H9  non d ame      -7.174   8.849  67.297  0.00  0.00     0.030 H 
ENDBRANCH  13  29
ENDBRANCH  10  13
ENDBRANCH   7   9
BRANCH   7  33
ATOM     33  C11 non d ame     -11.628   9.210  71.675  0.00  0.00    -0.033 C 
ATOM     34  H12 non d ame     -11.951   9.868  72.482  0.00  0.00     0.042 H 
BRANCH  33  35
ATOM     35  C12 non d ame     -12.715   8.102  71.510  0.00  0.00    -0.071 C 
ATOM     36  H13 non d ame     -12.243   7.121  71.555  0.00  0.00     0.028 H 
ATOM     37  H14 non d ame     -13.447   8.190  72.313  0.00  0.00     0.028 H 
ATOM     38  H15 non d ame     -13.213   8.223  70.548  0.00  0.00     0.028 H 
ENDBRANCH  33  35
BRANCH  33  39
ATOM     39  C13 non d ame     -10.249   8.596  72.075  0.00  0.00    -0.071 C 
ATOM     40  H16 non d ame      -9.688   8.345  71.175  0.00  0.00     0.028 H 
ATOM     41  H17 non d ame      -9.685   9.320  72.664  0.00  0.00     0.028 H 
ATOM     42  H18 non d ame     -10.411   7.694  72.665  0.00  0.00     0.028 H 
ENDBRANCH  33  39
ENDBRANCH   7  33
ENDBRANCH   4   7
ENDBRANCH   1   3
BRANCH   1  43
ATOM     43  C15 non d ame     -11.854  14.889  69.020  0.00  0.00     0.240 C 
ATOM     44  O5  non d ame     -12.032  16.058  69.136  0.00  0.00    -0.271 OA
ATOM     45  N6  non d ame     -11.185  14.358  67.798  0.00  0.00    -0.355 N 
ATOM     46  H46 non d ame     -11.025  13.367  67.691  0.00  0.00     0.162 HD
BRANCH  45  47
ATOM     47  C20 non d ame     -10.754  15.291  66.735  0.00  0.00     0.013 C 
ATOM     48  H30 non d ame     -11.229  16.254  66.921  0.00  0.00     0.072 H 
BRANCH  47  49
ATOM     49  C21 non d ame     -11.188  14.752  65.391  0.00  0.00    -0.038 C 
ATOM     50  H31 non d ame     -12.150  15.221  65.181  0.00  0.00     0.036 H 
ATOM     51  H32 non d ame     -10.344  14.916  64.721  0.00  0.00     0.036 H 
BRANCH  49  52
ATOM     52  C22 non d ame     -11.440  13.228  65.409  0.00  0.00     0.018 C 
ATOM     53  H33 non d ame     -10.500  12.777  65.728  0.00  0.00     0.048 H 
ATOM     54  H34 non d ame     -12.343  13.085  66.004  0.00  0.00     0.048 H 
BRANCH  52  55
ATOM     55  C23 non d ame     -11.751  12.628  64.009  0.00  0.00     0.259 C 
ATOM     56  O7  non d ame     -12.287  13.285  63.177  0.00  0.00    -0.265 OA
BRANCH  55  57
ATOM     57  O8  non d ame     -11.398  11.277  63.737  0.00  0.00    -0.317 OA
BRANCH  57  58
ATOM     58  C29 non d ame     -10.240  10.824  64.444  0.00  0.00     0.052 C 
ATOM     59  H47 non d ame      -9.828  11.707  64.932  0.00  0.00     0.082 H 
ATOM     60  H48 non d ame     -10.573   9.976  65.042  0.00  0.00     0.082 H 
BRANCH  58  61
ATOM     61  C35 non d ame      -9.211  10.314  63.400  0.00  0.00    -0.034 A 
ATOM     62  C30 non d ame      -8.764  11.162  62.391  0.00  0.00    -0.075 A 
ATOM     63  C31 non d ame      -7.840  10.705  61.453  0.00  0.00    -0.082 A 
ATOM     64  H49 non d ame      -9.137  12.185  62.336  0.00  0.00     0.084 H 
ATOM     65  C32 non d ame      -7.364   9.392  61.524  0.00  0.00    -0.083 A 
ATOM     66  H50 non d ame      -7.490  11.372  60.665  0.00  0.00     0.083 H 
ATOM     67  C33 non d ame      -7.815   8.549  62.531  0.00  0.00    -0.082 A 
ATOM     68  H51 non d ame      -6.641   9.027  60.796  0.00  0.00     0.083 H 
ATOM     69  C34 non d ame      -8.737   9.003  63.472  0.00  0.00    -0.075 A 
ATOM     70  H52 non d ame      -7.444   7.525  62.582  0.00  0.00     0.083 H 
ATOM     71  H53 non d ame      -9.086   8.335  64.260  0.00  0.00     0.084 H 
ENDBRANCH  58  61
ENDBRANCH  57  58
ENDBRANCH  55  57
ENDBRANCH  52  55
ENDBRANCH  49  52
ENDBRANCH  47  49
BRANCH  47  72
ATOM     72  C24 non d ame      -9.234  15.435  66.760  0.00  0.00    -0.039 C 
ATOM     73  H35 non d ame      -8.865  14.531  67.246  0.00  0.00     0.036 H 
ATOM     74  H36 non d ame      -8.946  15.656  65.732  0.00  0.00     0.036 H 
BRANCH  72  75
ATOM     75  C25 non d ame      -8.771  16.678  67.658  0.00  0.00    -0.001 C 
ATOM     76  C26 non d ame      -7.597  17.526  66.878  0.00  0.00    -0.035 C 
ATOM     77  C27 non d ame      -6.547  17.690  67.718  0.00  0.00     0.085 C 
ATOM     78  H38 non d ame      -7.182  16.929  66.066  0.00  0.00     0.036 H 
ATOM     79  H39 non d ame      -7.935  18.545  66.690  0.00  0.00     0.036 H 
ATOM     80  N5  non d ame      -6.762  16.755  68.883  0.00  0.00    -0.049 N 
ATOM     81  H40 non d ame      -5.671  17.364  67.157  0.00  0.00     0.075 H 
ATOM     82  H41 non d ame      -6.616  18.719  68.072  0.00  0.00     0.075 H 
ATOM     83  C28 non d ame      -8.304  16.284  68.796  0.00  0.00     0.193 C 
ATOM     84  H42 non d ame      -6.172  15.952  68.719  0.00  0.00     0.280 HD
ATOM     85  H43 non d ame      -6.642  17.307  69.720  0.00  0.00     0.280 HD
ATOM     86  H44 non d ame      -9.050  16.703  69.471  0.00  0.00     0.129 H 
ATOM     87  H37 non d ame      -9.617  17.245  68.046  0.00  0.00     0.046 H 
BRANCH  83  88
ATOM     88  O6  non d ame      -8.397  14.868  68.956  0.00  0.00    -0.369 OA
ATOM     89  H45 non d ame      -7.606  14.454  68.604  0.00  0.00     0.212 HD
ENDBRANCH  83  88
ENDBRANCH  72  75
ENDBRANCH  47  72
ENDBRANCH  45  47
ENDBRANCH   1  43
BRANCH   1  90
ATOM     90  C16 non d ame     -11.922  14.493  71.502  0.00  0.00    -0.035 C 
ATOM     91  H21 non d ame     -11.225  13.771  71.930  0.00  0.00     0.037 H 
ATOM     92  H22 non d ame     -11.595  15.513  71.301  0.00  0.00     0.037 H 
BRANCH  90  93
ATOM     93  C17 non d ame     -13.115  14.602  72.504  0.00  0.00    -0.059 C 
ATOM     94  H23 non d ame     -13.249  13.624  72.966  0.00  0.00     0.038 H 
BRANCH  93  95
ATOM     95  C18 non d ame     -12.835  15.633  73.644  0.00  0.00    -0.073 C 
ATOM     96  H24 non d ame     -12.601  16.603  73.206  0.00  0.00     0.028 H 
ATOM     97  H25 non d ame     -13.718  15.724  74.277  0.00  0.00     0.028 H 
ATOM     98  H26 non d ame     -11.991  15.292  74.243  0.00  0.00     0.028 H 
ENDBRANCH  93  95
BRANCH  93  99
ATOM     99  C19 non d ame     -14.416  14.940  71.771  0.00  0.00    -0.073 C 
ATOM    100  H27 non d ame     -15.032  15.582  72.401  0.00  0.00     0.028 H 
ATOM    101  H28 non d ame     -14.184  15.458  70.840  0.00  0.00     0.028 H 
ATOM    102  H29 non d ame     -14.957  14.021  71.549  0.00  0.00     0.028 H 
ENDBRANCH  93  99
ENDBRANCH  90  93
ENDBRANCH   1  90
TORSDOF 26
ENDMDL
MODEL 6
REMARK VINA RESULT:      -6.3      3.181      6.935
REMARK  26 active torsions:
REMARK  status: ('A' for Active; 'I' for Inactive)
REMARK    1  A    between atoms: C2_2  and  C3_3 
REMARK    2  A    between atoms: C4_6  and  C5_7 
REMARK       I    between atoms: C5_7  and  N2_9 
REMARK    3  A    between atoms: N2_9  and  C6_10 
REMARK    4  A    between atoms: C6_10  and  C7_11 
REMARK    5  A    between atoms: C6_10  and  C8_13 
REMARK       I    between atoms: C7_11  and  N3_14 
REMARK    6  A    between atoms: N3_14  and  C9_15 
REMARK    7  A    between atoms: C9_15  and  C10_16 
REMARK    8  A    between atoms: C9_15  and  C11_18 
REMARK       I    between atoms: C10_16  and  N4_21 
REMARK    9  A    between atoms: C11_18  and  C12_19 
REMARK   10  A    between atoms: C11_18  and  C13_20 
REMARK   11  A    between atoms: N4_21  and  C14_22 
REMARK   12  A    between atoms: C14_22  and  C15_23 
REMARK   13  A    between atoms: C14_22  and  C16_25 
REMARK       I    between atoms: C15_23  and  N6_40 
REMARK   14  A    between atoms: C16_25  and  C17_26 
REMARK   15  A    between atoms: C17_26  and  C18_27 
REMARK   16  A    between atoms: C17_26  and  C19_28 
REMARK   17  A    between atoms: C20_29  and  C21_30 
REMARK   18  A    between atoms: C20_29  and  C24_33 
REMARK   19  A    between atoms: C20_29  and  N6_40 
REMARK   20  A    between atoms: C21_30  and  C22_31 
REMARK   21  A    between atoms: C22_31  and  C23_32 
REMARK   22  A    between atoms: C23_32  and  O8_43 
REMARK   23  A    between atoms: C24_33  and  C25_34 
REMARK   24  A    between atoms: C28_38  and  O6_39 
REMARK   25  A    between atoms: C29_42  and  O8_43 
REMARK   26  A    between atoms: C29_42  and  C35_49 
ROOT
ATOM      1  C14 non d ame     -10.429  10.839  68.776  0.00  0.00     0.089 C 
ATOM      2  H20 non d ame      -9.506  10.735  69.348  0.00  0.00     0.087 H 
ENDROOT
BRANCH   1   3
ATOM      3  N4  non d ame     -11.146   9.576  68.867  0.00  0.00    -0.346 N 
ATOM      4  C10 non d ame     -10.787   8.572  69.934  0.00  0.00     0.241 C 
ATOM      5  O4  non d ame      -9.916   8.802  70.706  0.00  0.00    -0.271 OA
ATOM      6  H19 non d ame     -11.882   9.398  68.199  0.00  0.00     0.163 HD
BRANCH   4   7
ATOM      7  C9  non d ame     -11.544   7.272  70.017  0.00  0.00     0.092 C 
ATOM      8  H11 non d ame     -12.408   7.317  69.354  0.00  0.00     0.088 H 
BRANCH   7   9
ATOM      9  N3  non d ame     -10.690   6.178  69.543  0.00  0.00    -0.346 N 
ATOM     10  C7  non d ame     -10.599   5.895  68.132  0.00  0.00     0.240 C 
ATOM     11  O3  non d ame     -11.208   6.535  67.364  0.00  0.00    -0.271 OA
ATOM     12  H10 non d ame     -10.161   5.616  70.194  0.00  0.00     0.163 HD
BRANCH  10  13
ATOM     13  C6  non d ame      -9.692   4.727  67.634  0.00  0.00     0.086 C 
ATOM     14  H6  non d ame     -10.181   4.101  66.888  0.00  0.00     0.086 H 
BRANCH  13  15
ATOM     15  N2  non d ame      -8.511   5.287  66.997  0.00  0.00    -0.343 N 
ATOM     16  C5  non d ame      -8.395   5.254  65.538  0.00  0.00     0.273 C 
ATOM     17  O2  non d ame      -9.255   4.773  64.885  0.00  0.00    -0.266 OA
ATOM     18  H5  non d ame      -7.779   5.694  67.563  0.00  0.00     0.163 HD
BRANCH  16  19
ATOM     19  C4  non d ame      -7.153   5.844  64.851  0.00  0.00     0.154 A 
ATOM     20  C1  non d ame      -7.092   7.016  64.032  0.00  0.00    -0.017 A 
ATOM     21  C2  non d ame      -5.736   7.123  63.652  0.00  0.00     0.077 A 
ATOM     22  H1  non d ame      -7.907   7.685  63.756  0.00  0.00     0.091 H 
ATOM     23  O1  non d ame      -5.101   6.126  64.195  0.00  0.00    -0.218 OA
ATOM     24  N1  non d ame      -5.906   5.366  64.900  0.00  0.00    -0.123 NA
BRANCH  21  25
ATOM     25  C3  non d ame      -5.130   8.207  62.769  0.00  0.00    -0.029 C 
ATOM     26  H2  non d ame      -5.441   8.051  61.736  0.00  0.00     0.036 H 
ATOM     27  H3  non d ame      -5.472   9.184  63.108  0.00  0.00     0.036 H 
ATOM     28  H4  non d ame      -4.042   8.161  62.832  0.00  0.00     0.036 H 
ENDBRANCH  21  25
ENDBRANCH  16  19
ENDBRANCH  13  15
BRANCH  13  29
ATOM     29  C8  non d ame      -9.288   3.866  68.804  0.00  0.00    -0.049 C 
ATOM     30  H7  non d ame      -9.049   4.501  69.657  0.00  0.00     0.030 H 
ATOM     31  H8  non d ame     -10.111   3.201  69.066  0.00  0.00     0.030 H 
ATOM     32  H9  non d ame      -8.413   3.275  68.535  0.00  0.00     0.030 H 
ENDBRANCH  13  29
ENDBRANCH  10  13
ENDBRANCH   7   9
BRANCH   7  33
ATOM     33  C11 non d ame     -11.953   7.004  71.495  0.00  0.00    -0.033 C 
ATOM     34  H12 non d ame     -11.585   7.836  72.094  0.00  0.00     0.042 H 
BRANCH  33  35
ATOM     35  C12 non d ame     -13.505   6.960  71.656  0.00  0.00    -0.071 C 
ATOM     36  H13 non d ame     -13.840   7.853  72.185  0.00  0.00     0.028 H 
ATOM     37  H14 non d ame     -13.971   6.925  70.672  0.00  0.00     0.028 H 
ATOM     38  H15 non d ame     -13.786   6.074  72.224  0.00  0.00     0.028 H 
ENDBRANCH  33  35
BRANCH  33  39
ATOM     39  C13 non d ame     -11.291   5.693  72.030  0.00  0.00    -0.071 C 
ATOM     40  H16 non d ame     -11.319   4.929  71.253  0.00  0.00     0.028 H 
ATOM     41  H17 non d ame     -10.255   5.895  72.304  0.00  0.00     0.028 H 
ATOM     42  H18 non d ame     -11.837   5.342  72.905  0.00  0.00     0.028 H 
ENDBRANCH  33  39
ENDBRANCH   7  33
ENDBRANCH   4   7
ENDBRANCH   1   3
BRANCH   1  43
ATOM     43  C15 non d ame     -11.342  11.968  69.335  0.00  0.00     0.240 C 
ATOM     44  O5  non d ame     -12.351  11.688  69.897  0.00  0.00    -0.271 OA
ATOM     45  N6  non d ame     -10.953  13.398  69.176  0.00  0.00    -0.355 N 
ATOM     46  H46 non d ame     -10.096  13.648  68.704  0.00  0.00     0.162 HD
BRANCH  45  47
ATOM     47  C20 non d ame     -11.831  14.460  69.714  0.00  0.00     0.013 C 
ATOM     48  H30 non d ame     -12.857  14.091  69.692  0.00  0.00     0.072 H 
BRANCH  47  49
ATOM     49  C21 non d ame     -11.709  15.695  68.850  0.00  0.00    -0.038 C 
ATOM     50  H31 non d ame     -12.029  15.391  67.854  0.00  0.00     0.036 H 
ATOM     51  H32 non d ame     -12.248  16.480  69.381  0.00  0.00     0.036 H 
BRANCH  49  52
ATOM     52  C22 non d ame     -10.251  16.185  68.709  0.00  0.00     0.018 C 
ATOM     53  H33 non d ame     -10.115  16.935  69.490  0.00  0.00     0.048 H 
ATOM     54  H34 non d ame      -9.636  15.285  68.705  0.00  0.00     0.048 H 
BRANCH  52  55
ATOM     55  C23 non d ame      -9.961  16.909  67.365  0.00  0.00     0.259 C 
ATOM     56  O7  non d ame      -9.433  17.973  67.355  0.00  0.00    -0.265 OA
BRANCH  55  57
ATOM     57  O8  non d ame     -10.346  16.290  66.144  0.00  0.00    -0.317 OA
BRANCH  57  58
ATOM     58  C29 non d ame      -9.569  15.138  65.804  0.00  0.00     0.052 C 
ATOM     59  H47 non d ame      -8.894  15.461  65.011  0.00  0.00     0.082 H 
ATOM     60  H48 non d ame      -9.166  14.766  66.746  0.00  0.00     0.082 H 
BRANCH  58  61
ATOM     61  C35 non d ame     -10.530  14.066  65.225  0.00  0.00    -0.034 A 
ATOM     62  C30 non d ame     -10.071  13.159  64.275  0.00  0.00    -0.075 A 
ATOM     63  C31 non d ame     -10.934  12.196  63.755  0.00  0.00    -0.082 A 
ATOM     64  H49 non d ame      -9.035  13.202  63.939  0.00  0.00     0.084 H 
ATOM     65  C32 non d ame     -12.263  12.143  64.186  0.00  0.00    -0.083 A 
ATOM     66  H50 non d ame     -10.571  11.485  63.012  0.00  0.00     0.083 H 
ATOM     67  C33 non d ame     -12.717  13.052  65.131  0.00  0.00    -0.082 A 
ATOM     68  H51 non d ame     -12.944  11.393  63.784  0.00  0.00     0.083 H 
ATOM     69  C34 non d ame     -11.857  14.015  65.656  0.00  0.00    -0.075 A 
ATOM     70  H52 non d ame     -13.755  13.010  65.464  0.00  0.00     0.083 H 
ATOM     71  H53 non d ame     -12.222  14.725  66.399  0.00  0.00     0.084 H 
ENDBRANCH  58  61
ENDBRANCH  57  58
ENDBRANCH  55  57
ENDBRANCH  52  55
ENDBRANCH  49  52
ENDBRANCH  47  49
BRANCH  47  72
ATOM     72  C24 non d ame     -11.419  14.796  71.145  0.00  0.00    -0.039 C 
ATOM     73  H35 non d ame     -10.611  14.103  71.384  0.00  0.00     0.036 H 
ATOM     74  H36 non d ame     -11.234  15.870  71.150  0.00  0.00     0.036 H 
BRANCH  72  75
ATOM     75  C25 non d ame     -12.605  14.516  72.185  0.00  0.00    -0.001 C 
ATOM     76  C26 non d ame     -14.002  14.214  71.373  0.00  0.00    -0.035 C 
ATOM     77  C27 non d ame     -14.976  15.015  71.867  0.00  0.00     0.085 C 
ATOM     78  H38 non d ame     -13.909  14.537  70.336  0.00  0.00     0.036 H 
ATOM     79  H39 non d ame     -14.358  13.209  71.601  0.00  0.00     0.036 H 
ATOM     80  N5  non d ame     -14.298  16.063  72.716  0.00  0.00    -0.049 N 
ATOM     81  H40 non d ame     -15.426  15.497  70.999  0.00  0.00     0.075 H 
ATOM     82  H41 non d ame     -15.581  14.375  72.510  0.00  0.00     0.075 H 
ATOM     83  C28 non d ame     -12.794  15.529  72.963  0.00  0.00     0.193 C 
ATOM     84  H42 non d ame     -14.253  16.901  72.154  0.00  0.00     0.280 HD
ATOM     85  H43 non d ame     -14.784  16.074  73.601  0.00  0.00     0.280 HD
ATOM     86  H44 non d ame     -12.510  15.098  73.923  0.00  0.00     0.129 H 
ATOM     87  H37 non d ame     -12.317  13.803  72.958  0.00  0.00     0.046 H 
BRANCH  83  88
ATOM     88  O6  non d ame     -11.853  16.577  72.721  0.00  0.00    -0.369 OA
ATOM     89  H45 non d ame     -11.030  16.200  72.404  0.00  0.00     0.212 HD
ENDBRANCH  83  88
ENDBRANCH  72  75
ENDBRANCH  47  72
ENDBRANCH  45  47
ENDBRANCH   1  43
BRANCH   1  90
ATOM     90  C16 non d ame     -10.102  11.120  67.318  0.00  0.00    -0.035 C 
ATOM     91  H21 non d ame     -11.039  10.973  66.779  0.00  0.00     0.037 H 
ATOM     92  H22 non d ame      -9.619  12.097  67.314  0.00  0.00     0.037 H 
BRANCH  90  93
ATOM     93  C17 non d ame      -9.076  10.117  66.702  0.00  0.00    -0.059 C 
ATOM     94  H23 non d ame      -8.753   9.444  67.496  0.00  0.00     0.038 H 
BRANCH  93  95
ATOM     95  C18 non d ame      -9.710   9.247  65.569  0.00  0.00    -0.073 C 
ATOM     96  H24 non d ame      -9.447   8.201  65.724  0.00  0.00     0.028 H 
ATOM     97  H25 non d ame     -10.795   9.357  65.590  0.00  0.00     0.028 H 
ATOM     98  H26 non d ame      -9.331   9.579  64.602  0.00  0.00     0.028 H 
ENDBRANCH  93  95
BRANCH  93  99
ATOM     99  C19 non d ame      -7.832  10.850  66.194  0.00  0.00    -0.073 C 
ATOM    100  H27 non d ame      -7.957  11.090  65.137  0.00  0.00     0.028 H 
ATOM    101  H28 non d ame      -7.696  11.771  66.762  0.00  0.00     0.028 H 
ATOM    102  H29 non d ame      -6.957  10.213  66.321  0.00  0.00     0.028 H 
ENDBRANCH  93  99
ENDBRANCH  90  93
ENDBRANCH   1  90
TORSDOF 26
ENDMDL
MODEL 7
REMARK VINA RESULT:      -6.2      3.651      9.482
REMARK  26 active torsions:
REMARK  status: ('A' for Active; 'I' for Inactive)
REMARK    1  A    between atoms: C2_2  and  C3_3 
REMARK    2  A    between atoms: C4_6  and  C5_7 
REMARK       I    between atoms: C5_7  and  N2_9 
REMARK    3  A    between atoms: N2_9  and  C6_10 
REMARK    4  A    between atoms: C6_10  and  C7_11 
REMARK    5  A    between atoms: C6_10  and  C8_13 
REMARK       I    between atoms: C7_11  and  N3_14 
REMARK    6  A    between atoms: N3_14  and  C9_15 
REMARK    7  A    between atoms: C9_15  and  C10_16 
REMARK    8  A    between atoms: C9_15  and  C11_18 
REMARK       I    between atoms: C10_16  and  N4_21 
REMARK    9  A    between atoms: C11_18  and  C12_19 
REMARK   10  A    between atoms: C11_18  and  C13_20 
REMARK   11  A    between atoms: N4_21  and  C14_22 
REMARK   12  A    between atoms: C14_22  and  C15_23 
REMARK   13  A    between atoms: C14_22  and  C16_25 
REMARK       I    between atoms: C15_23  and  N6_40 
REMARK   14  A    between atoms: C16_25  and  C17_26 
REMARK   15  A    between atoms: C17_26  and  C18_27 
REMARK   16  A    between atoms: C17_26  and  C19_28 
REMARK   17  A    between atoms: C20_29  and  C21_30 
REMARK   18  A    between atoms: C20_29  and  C24_33 
REMARK   19  A    between atoms: C20_29  and  N6_40 
REMARK   20  A    between atoms: C21_30  and  C22_31 
REMARK   21  A    between atoms: C22_31  and  C23_32 
REMARK   22  A    between atoms: C23_32  and  O8_43 
REMARK   23  A    between atoms: C24_33  and  C25_34 
REMARK   24  A    between atoms: C28_38  and  O6_39 
REMARK   25  A    between atoms: C29_42  and  O8_43 
REMARK   26  A    between atoms: C29_42  and  C35_49 
ROOT
ATOM      1  C14 non d ame      -8.249   8.356  62.872  0.00  0.00     0.089 C 
ATOM      2  H20 non d ame      -8.713   8.328  61.886  0.00  0.00     0.087 H 
ENDROOT
BRANCH   1   3
ATOM      3  N4  non d ame      -9.158   9.060  63.764  0.00  0.00    -0.346 N 
ATOM      4  C10 non d ame      -9.602  10.465  63.445  0.00  0.00     0.241 C 
ATOM      5  O4  non d ame      -9.212  11.010  62.465  0.00  0.00    -0.271 OA
ATOM      6  H19 non d ame      -9.476   8.580  64.594  0.00  0.00     0.163 HD
BRANCH   4   7
ATOM      7  C9  non d ame     -10.547  11.177  64.377  0.00  0.00     0.092 C 
ATOM      8  H11 non d ame     -11.251  10.456  64.792  0.00  0.00     0.088 H 
BRANCH   7   9
ATOM      9  N3  non d ame      -9.794  11.744  65.499  0.00  0.00    -0.346 N 
ATOM     10  C7  non d ame      -9.820  11.093  66.786  0.00  0.00     0.240 C 
ATOM     11  O3  non d ame     -10.443  10.113  66.936  0.00  0.00    -0.271 OA
ATOM     12  H10 non d ame      -9.253  12.589  65.386  0.00  0.00     0.163 HD
BRANCH  10  13
ATOM     13  C6  non d ame      -9.018  11.702  67.978  0.00  0.00     0.086 C 
ATOM     14  H6  non d ame      -8.273  12.430  67.657  0.00  0.00     0.086 H 
BRANCH  13  15
ATOM     15  N2  non d ame      -9.938  12.408  68.853  0.00  0.00    -0.343 N 
ATOM     16  C5  non d ame     -10.346  13.775  68.520  0.00  0.00     0.273 C 
ATOM     17  O2  non d ame      -9.926  14.298  67.546  0.00  0.00    -0.266 OA
ATOM     18  H5  non d ame     -10.291  11.954  69.684  0.00  0.00     0.163 HD
BRANCH  16  19
ATOM     19  C4  non d ame     -11.320  14.533  69.435  0.00  0.00     0.154 A 
ATOM     20  C1  non d ame     -12.226  13.969  70.389  0.00  0.00    -0.017 A 
ATOM     21  C2  non d ame     -12.886  15.079  70.963  0.00  0.00     0.077 A 
ATOM     22  H1  non d ame     -12.380  12.917  70.629  0.00  0.00     0.091 H 
ATOM     23  O1  non d ame     -12.408  16.149  70.398  0.00  0.00    -0.218 OA
ATOM     24  N1  non d ame     -11.493  15.856  69.503  0.00  0.00    -0.123 NA
BRANCH  21  25
ATOM     25  C3  non d ame     -13.959  15.030  72.042  0.00  0.00    -0.029 C 
ATOM     26  H2  non d ame     -13.712  14.253  72.766  0.00  0.00     0.036 H 
ATOM     27  H3  non d ame     -14.009  15.994  72.548  0.00  0.00     0.036 H 
ATOM     28  H4  non d ame     -14.925  14.809  71.587  0.00  0.00     0.036 H 
ENDBRANCH  21  25
ENDBRANCH  16  19
ENDBRANCH  13  15
BRANCH  13  29
ATOM     29  C8  non d ame      -8.326  10.599  68.738  0.00  0.00    -0.049 C 
ATOM     30  H7  non d ame      -8.970   9.720  68.770  0.00  0.00     0.030 H 
ATOM     31  H8  non d ame      -7.390  10.346  68.240  0.00  0.00     0.030 H 
ATOM     32  H9  non d ame      -8.118  10.933  69.754  0.00  0.00     0.030 H 
ENDBRANCH  13  29
ENDBRANCH  10  13
ENDBRANCH   7   9
BRANCH   7  33
ATOM     33  C11 non d ame     -11.268  12.323  63.608  0.00  0.00    -0.033 C 
ATOM     34  H12 non d ame     -10.715  12.498  62.685  0.00  0.00     0.042 H 
BRANCH  33  35
ATOM     35  C12 non d ame     -12.722  11.917  63.215  0.00  0.00    -0.071 C 
ATOM     36  H13 non d ame     -13.131  12.655  62.523  0.00  0.00     0.028 H 
ATOM     37  H14 non d ame     -12.709  10.939  62.735  0.00  0.00     0.028 H 
ATOM     38  H15 non d ame     -13.342  11.876  64.110  0.00  0.00     0.028 H 
ENDBRANCH  33  35
BRANCH  33  39
ATOM     39  C13 non d ame     -11.254  13.648  64.438  0.00  0.00    -0.071 C 
ATOM     40  H16 non d ame     -11.277  14.501  63.760  0.00  0.00     0.028 H 
ATOM     41  H17 non d ame     -12.128  13.677  65.089  0.00  0.00     0.028 H 
ATOM     42  H18 non d ame     -10.348  13.688  65.042  0.00  0.00     0.028 H 
ENDBRANCH  33  39
ENDBRANCH   7  33
ENDBRANCH   4   7
ENDBRANCH   1   3
BRANCH   1  43
ATOM     43  C15 non d ame      -7.999   6.931  63.443  0.00  0.00     0.240 C 
ATOM     44  O5  non d ame      -7.389   6.136  62.804  0.00  0.00    -0.271 OA
ATOM     45  N6  non d ame      -8.512   6.560  64.793  0.00  0.00    -0.355 N 
ATOM     46  H46 non d ame      -9.028   7.228  65.347  0.00  0.00     0.162 HD
BRANCH  45  47
ATOM     47  C20 non d ame      -8.265   5.201  65.322  0.00  0.00     0.013 C 
ATOM     48  H30 non d ame      -7.947   4.570  64.493  0.00  0.00     0.072 H 
BRANCH  47  49
ATOM     49  C21 non d ame      -9.542   4.659  65.924  0.00  0.00    -0.038 C 
ATOM     50  H31 non d ame     -10.155   4.344  65.079  0.00  0.00     0.036 H 
ATOM     51  H32 non d ame      -9.229   3.931  66.672  0.00  0.00     0.036 H 
BRANCH  49  52
ATOM     52  C22 non d ame     -10.355   5.736  66.675  0.00  0.00     0.018 C 
ATOM     53  H33 non d ame      -9.782   6.659  66.579  0.00  0.00     0.048 H 
ATOM     54  H34 non d ame     -11.366   5.678  66.271  0.00  0.00     0.048 H 
BRANCH  52  55
ATOM     55  C23 non d ame     -10.487   5.470  68.200  0.00  0.00     0.259 C 
ATOM     56  O7  non d ame      -9.800   4.660  68.733  0.00  0.00    -0.265 OA
BRANCH  55  57
ATOM     57  O8  non d ame     -11.450   6.197  68.954  0.00  0.00    -0.317 OA
BRANCH  57  58
ATOM     58  C29 non d ame     -11.109   6.358  70.333  0.00  0.00     0.052 C 
ATOM     59  H47 non d ame     -11.595   5.535  70.856  0.00  0.00     0.082 H 
ATOM     60  H48 non d ame     -10.023   6.455  70.360  0.00  0.00     0.082 H 
BRANCH  58  61
ATOM     61  C35 non d ame     -11.732   7.691  70.828  0.00  0.00    -0.034 A 
ATOM     62  C30 non d ame     -12.809   7.672  71.709  0.00  0.00    -0.075 A 
ATOM     63  C31 non d ame     -13.369   8.868  72.153  0.00  0.00    -0.082 A 
ATOM     64  H49 non d ame     -13.214   6.719  72.050  0.00  0.00     0.084 H 
ATOM     65  C32 non d ame     -12.849  10.088  71.712  0.00  0.00    -0.083 A 
ATOM     66  H50 non d ame     -14.211   8.850  72.845  0.00  0.00     0.083 H 
ATOM     67  C33 non d ame     -11.776  10.102  70.831  0.00  0.00    -0.082 A 
ATOM     68  H51 non d ame     -13.280  11.028  72.055  0.00  0.00     0.083 H 
ATOM     69  C34 non d ame     -11.212   8.909  70.386  0.00  0.00    -0.075 A 
ATOM     70  H52 non d ame     -11.374  11.056  70.487  0.00  0.00     0.083 H 
ATOM     71  H53 non d ame     -10.369   8.928  69.695  0.00  0.00     0.084 H 
ENDBRANCH  58  61
ENDBRANCH  57  58
ENDBRANCH  55  57
ENDBRANCH  52  55
ENDBRANCH  49  52
ENDBRANCH  47  49
BRANCH  47  72
ATOM     72  C24 non d ame      -7.179   5.255  66.395  0.00  0.00    -0.039 C 
ATOM     73  H35 non d ame      -7.194   6.278  66.772  0.00  0.00     0.036 H 
ATOM     74  H36 non d ame      -7.394   4.424  67.067  0.00  0.00     0.036 H 
BRANCH  72  75
ATOM     75  C25 non d ame      -5.723   5.000  65.777  0.00  0.00    -0.001 C 
ATOM     76  C26 non d ame      -5.145   3.547  66.287  0.00  0.00    -0.035 C 
ATOM     77  C27 non d ame      -3.904   3.726  66.799  0.00  0.00     0.085 C 
ATOM     78  H38 non d ame      -5.724   3.193  67.140  0.00  0.00     0.036 H 
ATOM     79  H39 non d ame      -4.976   2.891  65.433  0.00  0.00     0.036 H 
ATOM     80  N5  non d ame      -3.714   5.212  66.985  0.00  0.00    -0.049 N 
ATOM     81  H40 non d ame      -3.920   3.245  67.777  0.00  0.00     0.075 H 
ATOM     82  H41 non d ame      -3.218   3.374  66.029  0.00  0.00     0.075 H 
ATOM     83  C28 non d ame      -4.893   5.920  66.140  0.00  0.00     0.193 C 
ATOM     84  H42 non d ame      -3.863   5.399  67.966  0.00  0.00     0.280 HD
ATOM     85  H43 non d ame      -2.829   5.443  66.556  0.00  0.00     0.280 HD
ATOM     86  H44 non d ame      -4.682   6.387  65.178  0.00  0.00     0.129 H 
ATOM     87  H37 non d ame      -5.688   5.199  64.706  0.00  0.00     0.046 H 
BRANCH  83  88
ATOM     88  O6  non d ame      -5.523   6.933  66.927  0.00  0.00    -0.369 OA
ATOM     89  H45 non d ame      -6.223   6.541  67.453  0.00  0.00     0.212 HD
ENDBRANCH  83  88
ENDBRANCH  72  75
ENDBRANCH  47  72
ENDBRANCH  45  47
ENDBRANCH   1  43
BRANCH   1  90
ATOM     90  C16 non d ame      -6.934   9.116  62.801  0.00  0.00    -0.035 C 
ATOM     91  H21 non d ame      -6.444   8.761  61.895  0.00  0.00     0.037 H 
ATOM     92  H22 non d ame      -7.204  10.168  62.898  0.00  0.00     0.037 H 
BRANCH  90  93
ATOM     93  C17 non d ame      -5.963   8.799  63.982  0.00  0.00    -0.059 C 
ATOM     94  H23 non d ame      -6.361   7.936  64.515  0.00  0.00     0.038 H 
BRANCH  93  95
ATOM     95  C18 non d ame      -4.529   8.432  63.483  0.00  0.00    -0.073 C 
ATOM     96  H24 non d ame      -4.540   8.316  62.400  0.00  0.00     0.028 H 
ATOM     97  H25 non d ame      -3.834   9.226  63.757  0.00  0.00     0.028 H 
ATOM     98  H26 non d ame      -4.212   7.497  63.946  0.00  0.00     0.028 H 
ENDBRANCH  93  95
BRANCH  93  99
ATOM     99  C19 non d ame      -5.912   9.963  64.976  0.00  0.00    -0.073 C 
ATOM    100  H27 non d ame      -4.898  10.362  65.017  0.00  0.00     0.028 H 
ATOM    101  H28 non d ame      -6.598  10.746  64.653  0.00  0.00     0.028 H 
ATOM    102  H29 non d ame      -6.204   9.609  65.965  0.00  0.00     0.028 H 
ENDBRANCH  93  99
ENDBRANCH  90  93
ENDBRANCH   1  90
TORSDOF 26
ENDMDL
MODEL 8
REMARK VINA RESULT:      -6.2      3.248      8.358
REMARK  26 active torsions:
REMARK  status: ('A' for Active; 'I' for Inactive)
REMARK    1  A    between atoms: C2_2  and  C3_3 
REMARK    2  A    between atoms: C4_6  and  C5_7 
REMARK       I    between atoms: C5_7  and  N2_9 
REMARK    3  A    between atoms: N2_9  and  C6_10 
REMARK    4  A    between atoms: C6_10  and  C7_11 
REMARK    5  A    between atoms: C6_10  and  C8_13 
REMARK       I    between atoms: C7_11  and  N3_14 
REMARK    6  A    between atoms: N3_14  and  C9_15 
REMARK    7  A    between atoms: C9_15  and  C10_16 
REMARK    8  A    between atoms: C9_15  and  C11_18 
REMARK       I    between atoms: C10_16  and  N4_21 
REMARK    9  A    between atoms: C11_18  and  C12_19 
REMARK   10  A    between atoms: C11_18  and  C13_20 
REMARK   11  A    between atoms: N4_21  and  C14_22 
REMARK   12  A    between atoms: C14_22  and  C15_23 
REMARK   13  A    between atoms: C14_22  and  C16_25 
REMARK       I    between atoms: C15_23  and  N6_40 
REMARK   14  A    between atoms: C16_25  and  C17_26 
REMARK   15  A    between atoms: C17_26  and  C18_27 
REMARK   16  A    between atoms: C17_26  and  C19_28 
REMARK   17  A    between atoms: C20_29  and  C21_30 
REMARK   18  A    between atoms: C20_29  and  C24_33 
REMARK   19  A    between atoms: C20_29  and  N6_40 
REMARK   20  A    between atoms: C21_30  and  C22_31 
REMARK   21  A    between atoms: C22_31  and  C23_32 
REMARK   22  A    between atoms: C23_32  and  O8_43 
REMARK   23  A    between atoms: C24_33  and  C25_34 
REMARK   24  A    between atoms: C28_38  and  O6_39 
REMARK   25  A    between atoms: C29_42  and  O8_43 
REMARK   26  A    between atoms: C29_42  and  C35_49 
ROOT
ATOM      1  C14 non d ame     -11.736  14.958  70.128  0.00  0.00     0.089 C 
ATOM      2  H20 non d ame     -12.771  14.884  69.792  0.00  0.00     0.087 H 
ENDROOT
BRANCH   1   3
ATOM      3  N4  non d ame     -11.202  13.606  70.203  0.00  0.00    -0.346 N 
ATOM      4  C10 non d ame     -11.466  12.620  69.092  0.00  0.00     0.241 C 
ATOM      5  O4  non d ame     -12.113  12.937  68.150  0.00  0.00    -0.271 OA
ATOM      6  H19 non d ame     -10.655  13.355  71.015  0.00  0.00     0.163 HD
BRANCH   4   7
ATOM      7  C9  non d ame     -10.900  11.227  69.183  0.00  0.00     0.092 C 
ATOM      8  H11 non d ame     -10.070  11.223  69.890  0.00  0.00     0.088 H 
BRANCH   7   9
ATOM      9  N3  non d ame     -11.922  10.318  69.709  0.00  0.00    -0.346 N 
ATOM     10  C7  non d ame     -11.637   9.503  70.865  0.00  0.00     0.240 C 
ATOM     11  O3  non d ame     -10.589   9.566  71.383  0.00  0.00    -0.271 OA
ATOM     12  H10 non d ame     -12.830  10.251  69.272  0.00  0.00     0.163 HD
BRANCH  10  13
ATOM     13  C6  non d ame     -12.728   8.535  71.418  0.00  0.00     0.086 C 
ATOM     14  H6  non d ame     -13.276   8.022  70.628  0.00  0.00     0.086 H 
BRANCH  13  15
ATOM     15  N2  non d ame     -12.083   7.503  72.214  0.00  0.00    -0.343 N 
ATOM     16  C5  non d ame     -11.544   6.313  71.552  0.00  0.00     0.273 C 
ATOM     17  O2  non d ame     -11.636   6.194  70.379  0.00  0.00    -0.266 OA
ATOM     18  H5  non d ame     -12.011   7.612  73.215  0.00  0.00     0.163 HD
BRANCH  16  19
ATOM     19  C4  non d ame     -10.858   5.216  72.380  0.00  0.00     0.154 A 
ATOM     20  C1  non d ame     -10.852   5.085  73.805  0.00  0.00    -0.017 A 
ATOM     21  C2  non d ame     -10.091   3.922  74.061  0.00  0.00     0.077 A 
ATOM     22  H1  non d ame     -11.327   5.734  74.542  0.00  0.00     0.091 H 
ATOM     23  O1  non d ame      -9.711   3.448  72.910  0.00  0.00    -0.218 OA
ATOM     24  N1  non d ame     -10.146   4.186  71.915  0.00  0.00    -0.123 NA
BRANCH  21  25
ATOM     25  C3  non d ame      -9.776   3.334  75.429  0.00  0.00    -0.029 C 
ATOM     26  H2  non d ame      -8.722   3.495  75.661  0.00  0.00     0.036 H 
ATOM     27  H3  non d ame     -10.392   3.820  76.185  0.00  0.00     0.036 H 
ATOM     28  H4  non d ame      -9.987   2.264  75.422  0.00  0.00     0.036 H 
ENDBRANCH  21  25
ENDBRANCH  16  19
ENDBRANCH  13  15
BRANCH  13  29
ATOM     29  C8  non d ame     -13.705   9.307  72.267  0.00  0.00    -0.049 C 
ATOM     30  H7  non d ame     -13.766   8.852  73.256  0.00  0.00     0.030 H 
ATOM     31  H8  non d ame     -13.368  10.339  72.361  0.00  0.00     0.030 H 
ATOM     32  H9  non d ame     -14.688   9.287  71.798  0.00  0.00     0.030 H 
ENDBRANCH  13  29
ENDBRANCH  10  13
ENDBRANCH   7   9
BRANCH   7  33
ATOM     33  C11 non d ame     -10.465  10.751  67.767  0.00  0.00    -0.033 C 
ATOM     34  H12 non d ame     -11.026  11.334  67.037  0.00  0.00     0.042 H 
BRANCH  33  35
ATOM     35  C12 non d ame      -8.948  11.021  67.517  0.00  0.00    -0.071 C 
ATOM     36  H13 non d ame      -8.363  10.583  68.326  0.00  0.00     0.028 H 
ATOM     37  H14 non d ame      -8.651  10.572  66.570  0.00  0.00     0.028 H 
ATOM     38  H15 non d ame      -8.772  12.096  67.481  0.00  0.00     0.028 H 
ENDBRANCH  33  35
BRANCH  33  39
ATOM     39  C13 non d ame     -10.814   9.243  67.552  0.00  0.00    -0.071 C 
ATOM     40  H16 non d ame     -10.330   8.884  66.644  0.00  0.00     0.028 H 
ATOM     41  H17 non d ame     -10.463   8.663  68.406  0.00  0.00     0.028 H 
ATOM     42  H18 non d ame     -11.894   9.131  67.456  0.00  0.00     0.028 H 
ENDBRANCH  33  39
ENDBRANCH   7  33
ENDBRANCH   4   7
ENDBRANCH   1   3
BRANCH   1  43
ATOM     43  C15 non d ame     -10.857  15.784  69.147  0.00  0.00     0.240 C 
ATOM     44  O5  non d ame      -9.925  16.396  69.559  0.00  0.00    -0.271 OA
ATOM     45  N6  non d ame     -11.173  15.807  67.690  0.00  0.00    -0.355 N 
ATOM     46  H46 non d ame     -11.959  15.288  67.327  0.00  0.00     0.162 HD
BRANCH  45  47
ATOM     47  C20 non d ame     -10.327  16.596  66.769  0.00  0.00     0.013 C 
ATOM     48  H30 non d ame      -9.331  16.669  67.207  0.00  0.00     0.072 H 
BRANCH  47  49
ATOM     49  C21 non d ame     -10.921  17.977  66.604  0.00  0.00    -0.038 C 
ATOM     50  H31 non d ame     -11.419  17.970  65.635  0.00  0.00     0.036 H 
ATOM     51  H32 non d ame     -11.496  18.159  67.512  0.00  0.00     0.036 H 
BRANCH  49  52
ATOM     52  C22 non d ame      -9.849  19.087  66.537  0.00  0.00     0.018 C 
ATOM     53  H33 non d ame      -9.872  19.457  65.512  0.00  0.00     0.048 H 
ATOM     54  H34 non d ame     -10.069  19.761  67.365  0.00  0.00     0.048 H 
BRANCH  52  55
ATOM     55  C23 non d ame      -8.401  18.574  66.775  0.00  0.00     0.259 C 
ATOM     56  O7  non d ame      -7.693  18.320  65.855  0.00  0.00    -0.265 OA
BRANCH  55  57
ATOM     57  O8  non d ame      -7.934  18.400  68.107  0.00  0.00    -0.317 OA
BRANCH  57  58
ATOM     58  C29 non d ame      -7.603  19.622  68.772  0.00  0.00     0.052 C 
ATOM     59  H47 non d ame      -7.827  20.416  68.060  0.00  0.00     0.082 H 
ATOM     60  H48 non d ame      -8.122  19.586  69.730  0.00  0.00     0.082 H 
BRANCH  58  61
ATOM     61  C35 non d ame      -6.074  19.621  69.042  0.00  0.00    -0.034 A 
ATOM     62  C30 non d ame      -5.447  18.464  69.492  0.00  0.00    -0.075 A 
ATOM     63  C31 non d ame      -4.074  18.463  69.734  0.00  0.00    -0.082 A 
ATOM     64  H49 non d ame      -6.030  17.558  69.654  0.00  0.00     0.084 H 
ATOM     65  C32 non d ame      -3.328  19.627  69.528  0.00  0.00    -0.083 A 
ATOM     66  H50 non d ame      -3.585  17.554  70.085  0.00  0.00     0.083 H 
ATOM     67  C33 non d ame      -3.960  20.780  69.082  0.00  0.00    -0.082 A 
ATOM     68  H51 non d ame      -2.255  19.635  69.714  0.00  0.00     0.083 H 
ATOM     69  C34 non d ame      -5.331  20.785  68.836  0.00  0.00    -0.075 A 
ATOM     70  H52 non d ame      -3.376  21.687  68.924  0.00  0.00     0.083 H 
ATOM     71  H53 non d ame      -5.820  21.694  68.485  0.00  0.00     0.084 H 
ENDBRANCH  58  61
ENDBRANCH  57  58
ENDBRANCH  55  57
ENDBRANCH  52  55
ENDBRANCH  49  52
ENDBRANCH  47  49
BRANCH  47  72
ATOM     72  C24 non d ame     -10.258  15.905  65.409  0.00  0.00    -0.039 C 
ATOM     73  H35 non d ame     -10.561  16.661  64.684  0.00  0.00     0.036 H 
ATOM     74  H36 non d ame      -9.262  15.467  65.356  0.00  0.00     0.036 H 
BRANCH  72  75
ATOM     75  C25 non d ame     -11.310  14.701  65.303  0.00  0.00    -0.001 C 
ATOM     76  C26 non d ame     -10.520  13.294  64.987  0.00  0.00    -0.035 C 
ATOM     77  C27 non d ame     -11.103  12.696  63.920  0.00  0.00     0.085 C 
ATOM     78  H38 non d ame      -9.508  13.503  64.641  0.00  0.00     0.036 H 
ATOM     79  H39 non d ame     -10.684  12.583  65.798  0.00  0.00     0.036 H 
ATOM     80  N5  non d ame     -12.006  13.722  63.278  0.00  0.00    -0.049 N 
ATOM     81  H40 non d ame     -10.286  12.463  63.235  0.00  0.00     0.075 H 
ATOM     82  H41 non d ame     -11.714  11.894  64.333  0.00  0.00     0.075 H 
ATOM     83  C28 non d ame     -12.166  14.910  64.359  0.00  0.00     0.193 C 
ATOM     84  H42 non d ame     -11.507  14.081  62.477  0.00  0.00     0.280 HD
ATOM     85  H43 non d ame     -12.904  13.276  63.156  0.00  0.00     0.280 HD
ATOM     86  H44 non d ame     -13.083  15.009  64.941  0.00  0.00     0.129 H 
ATOM     87  H37 non d ame     -12.018  14.697  66.131  0.00  0.00     0.046 H 
BRANCH  83  88
ATOM     88  O6  non d ame     -11.975  16.178  63.729  0.00  0.00    -0.369 OA
ATOM     89  H45 non d ame     -11.054  16.274  63.476  0.00  0.00     0.212 HD
ENDBRANCH  83  88
ENDBRANCH  72  75
ENDBRANCH  47  72
ENDBRANCH  45  47
ENDBRANCH   1  43
BRANCH   1  90
ATOM     90  C16 non d ame     -11.688  15.587  71.511  0.00  0.00    -0.035 C 
ATOM     91  H21 non d ame     -10.729  15.284  71.933  0.00  0.00     0.037 H 
ATOM     92  H22 non d ame     -11.905  16.644  71.355  0.00  0.00     0.037 H 
BRANCH  90  93
ATOM     93  C17 non d ame     -12.787  15.050  72.483  0.00  0.00    -0.059 C 
ATOM     94  H23 non d ame     -12.781  13.962  72.419  0.00  0.00     0.038 H 
BRANCH  93  95
ATOM     95  C18 non d ame     -12.503  15.442  73.968  0.00  0.00    -0.073 C 
ATOM     96  H24 non d ame     -12.727  14.595  74.616  0.00  0.00     0.028 H 
ATOM     97  H25 non d ame     -11.453  15.715  74.077  0.00  0.00     0.028 H 
ATOM     98  H26 non d ame     -13.130  16.289  74.247  0.00  0.00     0.028 H 
ENDBRANCH  93  95
BRANCH  93  99
ATOM     99  C19 non d ame     -14.177  15.523  72.051  0.00  0.00    -0.073 C 
ATOM    100  H27 non d ame     -14.120  16.559  71.715  0.00  0.00     0.028 H 
ATOM    101  H28 non d ame     -14.538  14.895  71.236  0.00  0.00     0.028 H 
ATOM    102  H29 non d ame     -14.863  15.452  72.895  0.00  0.00     0.028 H 
ENDBRANCH  93  99
ENDBRANCH  90  93
ENDBRANCH   1  90
TORSDOF 26
ENDMDL
MODEL 9
REMARK VINA RESULT:      -6.2      2.746      6.498
REMARK  26 active torsions:
REMARK  status: ('A' for Active; 'I' for Inactive)
REMARK    1  A    between atoms: C2_2  and  C3_3 
REMARK    2  A    between atoms: C4_6  and  C5_7 
REMARK       I    between atoms: C5_7  and  N2_9 
REMARK    3  A    between atoms: N2_9  and  C6_10 
REMARK    4  A    between atoms: C6_10  and  C7_11 
REMARK    5  A    between atoms: C6_10  and  C8_13 
REMARK       I    between atoms: C7_11  and  N3_14 
REMARK    6  A    between atoms: N3_14  and  C9_15 
REMARK    7  A    between atoms: C9_15  and  C10_16 
REMARK    8  A    between atoms: C9_15  and  C11_18 
REMARK       I    between atoms: C10_16  and  N4_21 
REMARK    9  A    between atoms: C11_18  and  C12_19 
REMARK   10  A    between atoms: C11_18  and  C13_20 
REMARK   11  A    between atoms: N4_21  and  C14_22 
REMARK   12  A    between atoms: C14_22  and  C15_23 
REMARK   13  A    between atoms: C14_22  and  C16_25 
REMARK       I    between atoms: C15_23  and  N6_40 
REMARK   14  A    between atoms: C16_25  and  C17_26 
REMARK   15  A    between atoms: C17_26  and  C18_27 
REMARK   16  A    between atoms: C17_26  and  C19_28 
REMARK   17  A    between atoms: C20_29  and  C21_30 
REMARK   18  A    between atoms: C20_29  and  C24_33 
REMARK   19  A    between atoms: C20_29  and  N6_40 
REMARK   20  A    between atoms: C21_30  and  C22_31 
REMARK   21  A    between atoms: C22_31  and  C23_32 
REMARK   22  A    between atoms: C23_32  and  O8_43 
REMARK   23  A    between atoms: C24_33  and  C25_34 
REMARK   24  A    between atoms: C28_38  and  O6_39 
REMARK   25  A    between atoms: C29_42  and  O8_43 
REMARK   26  A    between atoms: C29_42  and  C35_49 
ROOT
ATOM      1  C14 non d ame     -11.671  12.982  68.862  0.00  0.00     0.089 C 
ATOM      2  H20 non d ame     -12.745  12.881  68.704  0.00  0.00     0.087 H 
ENDROOT
BRANCH   1   3
ATOM      3  N4  non d ame     -11.245  11.871  69.700  0.00  0.00    -0.346 N 
ATOM      4  C10 non d ame     -11.418  10.450  69.227  0.00  0.00     0.241 C 
ATOM      5  O4  non d ame     -11.905  10.225  68.168  0.00  0.00    -0.271 OA
ATOM      6  H19 non d ame     -10.835  12.083  70.599  0.00  0.00     0.163 HD
BRANCH   4   7
ATOM      7  C9  non d ame     -10.967   9.312  70.105  0.00  0.00     0.092 C 
ATOM      8  H11 non d ame     -11.260   8.368  69.647  0.00  0.00     0.088 H 
BRANCH   7   9
ATOM      9  N3  non d ame      -9.503   9.314  70.194  0.00  0.00    -0.346 N 
ATOM     10  C7  non d ame      -8.727   8.479  69.311  0.00  0.00     0.240 C 
ATOM     11  O3  non d ame      -9.263   7.798  68.525  0.00  0.00    -0.271 OA
ATOM     12  H10 non d ame      -9.027   9.895  70.869  0.00  0.00     0.163 HD
BRANCH  10  13
ATOM     13  C6  non d ame      -7.170   8.483  69.413  0.00  0.00     0.086 C 
ATOM     14  H6  non d ame      -6.746   7.479  69.441  0.00  0.00     0.086 H 
BRANCH  13  15
ATOM     15  N2  non d ame      -6.622   9.133  68.235  0.00  0.00    -0.343 N 
ATOM     16  C5  non d ame      -6.042   8.317  67.165  0.00  0.00     0.273 C 
ATOM     17  O2  non d ame      -6.019   7.140  67.264  0.00  0.00    -0.266 OA
ATOM     18  H5  non d ame      -6.643  10.140  68.160  0.00  0.00     0.163 HD
BRANCH  16  19
ATOM     19  C4  non d ame      -5.461   8.991  65.912  0.00  0.00     0.154 A 
ATOM     20  C1  non d ame      -4.692   8.373  64.876  0.00  0.00    -0.017 A 
ATOM     21  C2  non d ame      -4.405   9.414  63.966  0.00  0.00     0.077 A 
ATOM     22  H1  non d ame      -4.388   7.329  64.797  0.00  0.00     0.091 H 
ATOM     23  O1  non d ame      -4.951  10.499  64.433  0.00  0.00    -0.218 OA
ATOM     24  N1  non d ame      -5.572  10.277  65.568  0.00  0.00    -0.123 NA
BRANCH  21  25
ATOM     25  C3  non d ame      -3.605   9.289  62.675  0.00  0.00    -0.029 C 
ATOM     26  H2  non d ame      -4.014   8.480  62.071  0.00  0.00     0.036 H 
ATOM     27  H3  non d ame      -3.665  10.225  62.119  0.00  0.00     0.036 H 
ATOM     28  H4  non d ame      -2.563   9.075  62.913  0.00  0.00     0.036 H 
ENDBRANCH  21  25
ENDBRANCH  16  19
ENDBRANCH  13  15
BRANCH  13  29
ATOM     29  C8  non d ame      -6.747   9.224  70.656  0.00  0.00    -0.049 C 
ATOM     30  H7  non d ame      -7.625   9.645  71.145  0.00  0.00     0.030 H 
ATOM     31  H8  non d ame      -6.246   8.536  71.337  0.00  0.00     0.030 H 
ATOM     32  H9  non d ame      -6.064  10.029  70.384  0.00  0.00     0.030 H 
ENDBRANCH  13  29
ENDBRANCH  10  13
ENDBRANCH   7   9
BRANCH   7  33
ATOM     33  C11 non d ame     -11.571   9.485  71.529  0.00  0.00    -0.033 C 
ATOM     34  H12 non d ame     -11.146  10.393  71.958  0.00  0.00     0.042 H 
BRANCH  33  35
ATOM     35  C12 non d ame     -13.119   9.674  71.471  0.00  0.00    -0.071 C 
ATOM     36  H13 non d ame     -13.362  10.461  70.756  0.00  0.00     0.028 H 
ATOM     37  H14 non d ame     -13.587   8.741  71.157  0.00  0.00     0.028 H 
ATOM     38  H15 non d ame     -13.488   9.952  72.457  0.00  0.00     0.028 H 
ENDBRANCH  33  35
BRANCH  33  39
ATOM     39  C13 non d ame     -11.181   8.286  72.452  0.00  0.00    -0.071 C 
ATOM     40  H16 non d ame     -11.117   8.628  73.484  0.00  0.00     0.028 H 
ATOM     41  H17 non d ame     -11.938   7.506  72.374  0.00  0.00     0.028 H 
ATOM     42  H18 non d ame     -10.215   7.888  72.140  0.00  0.00     0.028 H 
ENDBRANCH  33  39
ENDBRANCH   7  33
ENDBRANCH   4   7
ENDBRANCH   1   3
BRANCH   1  43
ATOM     43  C15 non d ame     -10.873  12.930  67.528  0.00  0.00     0.240 C 
ATOM     44  O5  non d ame      -9.735  13.271  67.506  0.00  0.00    -0.271 OA
ATOM     45  N6  non d ame     -11.526  12.446  66.278  0.00  0.00    -0.355 N 
ATOM     46  H46 non d ame     -12.490  12.148  66.285  0.00  0.00     0.162 HD
BRANCH  45  47
ATOM     47  C20 non d ame     -10.753  12.401  65.018  0.00  0.00     0.013 C 
ATOM     48  H30 non d ame      -9.761  12.804  65.218  0.00  0.00     0.072 H 
BRANCH  47  49
ATOM     49  C21 non d ame     -11.452  13.241  63.973  0.00  0.00    -0.038 C 
ATOM     50  H31 non d ame     -10.657  13.726  63.405  0.00  0.00     0.036 H 
ATOM     51  H32 non d ame     -12.148  12.569  63.472  0.00  0.00     0.036 H 
BRANCH  49  52
ATOM     52  C22 non d ame     -12.303  14.374  64.587  0.00  0.00     0.018 C 
ATOM     53  H33 non d ame     -13.092  14.577  63.862  0.00  0.00     0.048 H 
ATOM     54  H34 non d ame     -12.560  14.039  65.592  0.00  0.00     0.048 H 
BRANCH  52  55
ATOM     55  C23 non d ame     -11.532  15.711  64.765  0.00  0.00     0.259 C 
ATOM     56  O7  non d ame     -11.476  16.499  63.877  0.00  0.00    -0.265 OA
BRANCH  55  57
ATOM     57  O8  non d ame     -10.879  15.979  66.001  0.00  0.00    -0.317 OA
BRANCH  57  58
ATOM     58  C29 non d ame      -9.506  16.354  65.864  0.00  0.00     0.052 C 
ATOM     59  H47 non d ame      -8.945  15.652  66.481  0.00  0.00     0.082 H 
ATOM     60  H48 non d ame      -9.319  16.406  64.792  0.00  0.00     0.082 H 
BRANCH  58  61
ATOM     61  C35 non d ame      -9.336  17.777  66.461  0.00  0.00    -0.034 A 
ATOM     62  C30 non d ame     -10.324  18.737  66.265  0.00  0.00    -0.075 A 
ATOM     63  C31 non d ame     -10.172  20.015  66.801  0.00  0.00    -0.082 A 
ATOM     64  H49 non d ame     -11.217  18.488  65.692  0.00  0.00     0.084 H 
ATOM     65  C32 non d ame      -9.025  20.332  67.533  0.00  0.00    -0.083 A 
ATOM     66  H50 non d ame     -10.949  20.764  66.648  0.00  0.00     0.083 H 
ATOM     67  C33 non d ame      -8.040  19.372  67.723  0.00  0.00    -0.082 A 
ATOM     68  H51 non d ame      -8.898  21.329  67.956  0.00  0.00     0.083 H 
ATOM     69  C34 non d ame      -8.189  18.093  67.191  0.00  0.00    -0.075 A 
ATOM     70  H52 non d ame      -7.145  19.624  68.293  0.00  0.00     0.083 H 
ATOM     71  H53 non d ame      -7.412  17.344  67.346  0.00  0.00     0.084 H 
ENDBRANCH  58  61
ENDBRANCH  57  58
ENDBRANCH  55  57
ENDBRANCH  52  55
ENDBRANCH  49  52
ENDBRANCH  47  49
BRANCH  47  72
ATOM     72  C24 non d ame     -10.650  10.958  64.526  0.00  0.00    -0.039 C 
ATOM     73  H35 non d ame     -11.273  10.375  65.205  0.00  0.00     0.036 H 
ATOM     74  H36 non d ame     -10.890  10.996  63.464  0.00  0.00     0.036 H 
BRANCH  72  75
ATOM     75  C25 non d ame      -9.156  10.394  64.653  0.00  0.00    -0.001 C 
ATOM     76  C26 non d ame      -8.566  10.030  63.162  0.00  0.00    -0.035 C 
ATOM     77  C27 non d ame      -8.077   8.767  63.183  0.00  0.00     0.085 C 
ATOM     78  H38 non d ame      -9.381   9.976  62.441  0.00  0.00     0.036 H 
ATOM     79  H39 non d ame      -7.688  10.639  62.948  0.00  0.00     0.036 H 
ATOM     80  N5  non d ame      -8.574   8.122  64.455  0.00  0.00    -0.049 N 
ATOM     81  H40 non d ame      -8.532   8.264  62.329  0.00  0.00     0.075 H 
ATOM     82  H41 non d ame      -6.995   8.874  63.239  0.00  0.00     0.075 H 
ATOM     83  C28 non d ame      -9.119   9.327  65.380  0.00  0.00     0.193 C 
ATOM     84  H42 non d ame      -9.356   7.538  64.193  0.00  0.00     0.280 HD
ATOM     85  H43 non d ame      -7.766   7.713  64.903  0.00  0.00     0.280 HD
ATOM     86  H44 non d ame      -8.533   9.684  66.227  0.00  0.00     0.129 H 
ATOM     87  H37 non d ame      -8.532  11.018  65.295  0.00  0.00     0.046 H 
BRANCH  83  88
ATOM     88  O6  non d ame     -10.401   8.996  65.916  0.00  0.00    -0.369 OA
ATOM     89  H45 non d ame     -10.939   9.789  65.972  0.00  0.00     0.212 HD
ENDBRANCH  83  88
ENDBRANCH  72  75
ENDBRANCH  47  72
ENDBRANCH  45  47
ENDBRANCH   1  43
BRANCH   1  90
ATOM     90  C16 non d ame     -11.377  14.288  69.583  0.00  0.00    -0.035 C 
ATOM     91  H21 non d ame     -10.293  14.318  69.697  0.00  0.00     0.037 H 
ATOM     92  H22 non d ame     -11.885  15.059  69.002  0.00  0.00     0.037 H 
BRANCH  90  93
ATOM     93  C17 non d ame     -11.974  14.356  71.024  0.00  0.00    -0.059 C 
ATOM     94  H23 non d ame     -11.553  13.529  71.596  0.00  0.00     0.038 H 
BRANCH  93  95
ATOM     95  C18 non d ame     -11.594  15.683  71.757  0.00  0.00    -0.073 C 
ATOM     96  H24 non d ame     -12.455  16.352  71.765  0.00  0.00     0.028 H 
ATOM     97  H25 non d ame     -11.298  15.460  72.782  0.00  0.00     0.028 H 
ATOM     98  H26 non d ame     -10.766  16.162  71.235  0.00  0.00     0.028 H 
ENDBRANCH  93  95
BRANCH  93  99
ATOM     99  C19 non d ame     -13.492  14.164  70.997  0.00  0.00    -0.073 C 
ATOM    100  H27 non d ame     -13.965  15.059  70.589  0.00  0.00     0.028 H 
ATOM    101  H28 non d ame     -13.739  13.306  70.371  0.00  0.00     0.028 H 
ATOM    102  H29 non d ame     -13.855  13.991  72.010  0.00  0.00     0.028 H 
ENDBRANCH  93  99
ENDBRANCH  90  93
ENDBRANCH   1  90
TORSDOF 26
ENDMDL
MODEL 10
REMARK VINA RESULT:      -6.1      3.050      7.201
REMARK  26 active torsions:
REMARK  status: ('A' for Active; 'I' for Inactive)
REMARK    1  A    between atoms: C2_2  and  C3_3 
REMARK    2  A    between atoms: C4_6  and  C5_7 
REMARK       I    between atoms: C5_7  and  N2_9 
REMARK    3  A    between atoms: N2_9  and  C6_10 
REMARK    4  A    between atoms: C6_10  and  C7_11 
REMARK    5  A    between atoms: C6_10  and  C8_13 
REMARK       I    between atoms: C7_11  and  N3_14 
REMARK    6  A    between atoms: N3_14  and  C9_15 
REMARK    7  A    between atoms: C9_15  and  C10_16 
REMARK    8  A    between atoms: C9_15  and  C11_18 
REMARK       I    between atoms: C10_16  and  N4_21 
REMARK    9  A    between atoms: C11_18  and  C12_19 
REMARK   10  A    between atoms: C11_18  and  C13_20 
REMARK   11  A    between atoms: N4_21  and  C14_22 
REMARK   12  A    between atoms: C14_22  and  C15_23 
REMARK   13  A    between atoms: C14_22  and  C16_25 
REMARK       I    between atoms: C15_23  and  N6_40 
REMARK   14  A    between atoms: C16_25  and  C17_26 
REMARK   15  A    between atoms: C17_26  and  C18_27 
REMARK   16  A    between atoms: C17_26  and  C19_28 
REMARK   17  A    between atoms: C20_29  and  C21_30 
REMARK   18  A    between atoms: C20_29  and  C24_33 
REMARK   19  A    between atoms: C20_29  and  N6_40 
REMARK   20  A    between atoms: C21_30  and  C22_31 
REMARK   21  A    between atoms: C22_31  and  C23_32 
REMARK   22  A    between atoms: C23_32  and  O8_43 
REMARK   23  A    between atoms: C24_33  and  C25_34 
REMARK   24  A    between atoms: C28_38  and  O6_39 
REMARK   25  A    between atoms: C29_42  and  O8_43 
REMARK   26  A    between atoms: C29_42  and  C35_49 
ROOT
ATOM      1  C14 non d ame     -10.140   8.501  68.880  0.00  0.00     0.089 C 
ATOM      2  H20 non d ame     -11.194   8.279  68.711  0.00  0.00     0.087 H 
ENDROOT
BRANCH   1   3
ATOM      3  N4  non d ame      -9.365   7.651  67.990  0.00  0.00    -0.346 N 
ATOM      4  C10 non d ame     -10.060   6.758  66.992  0.00  0.00     0.241 C 
ATOM      5  O4  non d ame     -11.245   6.740  66.926  0.00  0.00    -0.271 OA
ATOM      6  H19 non d ame      -8.358   7.679  68.063  0.00  0.00     0.163 HD
BRANCH   4   7
ATOM      7  C9  non d ame      -9.241   5.889  66.074  0.00  0.00     0.092 C 
ATOM      8  H11 non d ame      -9.854   5.587  65.225  0.00  0.00     0.088 H 
BRANCH   7   9
ATOM      9  N3  non d ame      -8.115   6.662  65.542  0.00  0.00    -0.346 N 
ATOM     10  C7  non d ame      -7.735   6.523  64.158  0.00  0.00     0.240 C 
ATOM     11  O3  non d ame      -8.324   5.791  63.459  0.00  0.00    -0.271 OA
ATOM     12  H10 non d ame      -7.597   7.296  66.134  0.00  0.00     0.163 HD
BRANCH  10  13
ATOM     13  C6  non d ame      -6.534   7.347  63.598  0.00  0.00     0.086 C 
ATOM     14  H6  non d ame      -6.796   7.923  62.711  0.00  0.00     0.086 H 
BRANCH  13  15
ATOM     15  N2  non d ame      -6.109   8.304  64.606  0.00  0.00    -0.343 N 
ATOM     16  C5  non d ame      -5.786   9.675  64.207  0.00  0.00     0.273 C 
ATOM     17  O2  non d ame      -5.869   9.998  63.073  0.00  0.00    -0.266 OA
ATOM     18  H5  non d ame      -6.038   8.018  65.573  0.00  0.00     0.163 HD
BRANCH  16  19
ATOM     19  C4  non d ame      -5.336  10.698  65.262  0.00  0.00     0.154 A 
ATOM     20  C1  non d ame      -6.004  11.031  66.484  0.00  0.00    -0.017 A 
ATOM     21  C2  non d ame      -5.189  12.014  67.087  0.00  0.00     0.077 A 
ATOM     22  H1  non d ame      -6.936  10.621  66.873  0.00  0.00     0.091 H 
ATOM     23  O1  non d ame      -4.175  12.215  66.298  0.00  0.00    -0.218 OA
ATOM     24  N1  non d ame      -4.239  11.459  65.226  0.00  0.00    -0.123 NA
BRANCH  21  25
ATOM     25  C3  non d ame      -5.450  12.710  68.417  0.00  0.00    -0.029 C 
ATOM     26  H2  non d ame      -4.583  12.588  69.067  0.00  0.00     0.036 H 
ATOM     27  H3  non d ame      -5.627  13.771  68.243  0.00  0.00     0.036 H 
ATOM     28  H4  non d ame      -6.326  12.269  68.892  0.00  0.00     0.036 H 
ENDBRANCH  21  25
ENDBRANCH  16  19
ENDBRANCH  13  15
BRANCH  13  29
ATOM     29  C8  non d ame      -5.398   6.416  63.257  0.00  0.00    -0.049 C 
ATOM     30  H7  non d ame      -5.652   5.845  62.364  0.00  0.00     0.030 H 
ATOM     31  H8  non d ame      -4.495   6.998  63.073  0.00  0.00     0.030 H 
ATOM     32  H9  non d ame      -5.228   5.732  64.088  0.00  0.00     0.030 H 
ENDBRANCH  13  29
ENDBRANCH  10  13
ENDBRANCH   7   9
BRANCH   7  33
ATOM     33  C11 non d ame      -8.697   4.665  66.868  0.00  0.00    -0.033 C 
ATOM     34  H12 non d ame      -8.633   3.826  66.176  0.00  0.00     0.042 H 
BRANCH  33  35
ATOM     35  C12 non d ame      -7.259   4.935  67.413  0.00  0.00    -0.071 C 
ATOM     36  H13 non d ame      -6.913   4.065  67.971  0.00  0.00     0.028 H 
ATOM     37  H14 non d ame      -6.584   5.122  66.578  0.00  0.00     0.028 H 
ATOM     38  H15 non d ame      -7.277   5.805  68.069  0.00  0.00     0.028 H 
ENDBRANCH  33  35
BRANCH  33  39
ATOM     39  C13 non d ame      -9.674   4.267  68.021  0.00  0.00    -0.071 C 
ATOM     40  H16 non d ame      -9.274   4.616  68.973  0.00  0.00     0.028 H 
ATOM     41  H17 non d ame     -10.648   4.724  67.846  0.00  0.00     0.028 H 
ATOM     42  H18 non d ame      -9.781   3.183  68.047  0.00  0.00     0.028 H 
ENDBRANCH  33  39
ENDBRANCH   7  33
ENDBRANCH   4   7
ENDBRANCH   1   3
BRANCH   1  43
ATOM     43  C15 non d ame      -9.797   9.986  68.570  0.00  0.00     0.240 C 
ATOM     44  O5  non d ame      -8.779  10.454  68.969  0.00  0.00    -0.271 OA
ATOM     45  N6  non d ame     -10.732  10.824  67.767  0.00  0.00    -0.355 N 
ATOM     46  H46 non d ame     -11.597  10.437  67.418  0.00  0.00     0.162 HD
BRANCH  45  47
ATOM     47  C20 non d ame     -10.390  12.234  67.480  0.00  0.00     0.013 C 
ATOM     48  H30 non d ame      -9.741  12.592  68.279  0.00  0.00     0.072 H 
BRANCH  47  49
ATOM     49  C21 non d ame     -11.658  13.057  67.437  0.00  0.00    -0.038 C 
ATOM     50  H31 non d ame     -12.290  12.587  66.683  0.00  0.00     0.036 H 
ATOM     51  H32 non d ame     -12.000  13.125  68.470  0.00  0.00     0.036 H 
BRANCH  49  52
ATOM     52  C22 non d ame     -11.416  14.506  66.961  0.00  0.00     0.018 C 
ATOM     53  H33 non d ame     -11.067  14.425  65.932  0.00  0.00     0.048 H 
ATOM     54  H34 non d ame     -12.336  15.047  67.184  0.00  0.00     0.048 H 
BRANCH  52  55
ATOM     55  C23 non d ame     -10.289  15.241  67.739  0.00  0.00     0.259 C 
ATOM     56  O7  non d ame      -9.422  15.805  67.154  0.00  0.00    -0.265 OA
BRANCH  55  57
ATOM     57  O8  non d ame     -10.297  15.221  69.161  0.00  0.00    -0.317 OA
BRANCH  57  58
ATOM     58  C29 non d ame     -11.114  16.234  69.754  0.00  0.00     0.052 C 
ATOM     59  H47 non d ame     -10.422  16.974  70.155  0.00  0.00     0.082 H 
ATOM     60  H48 non d ame     -11.833  16.519  68.986  0.00  0.00     0.082 H 
BRANCH  58  61
ATOM     61  C35 non d ame     -11.889  15.593  70.936  0.00  0.00    -0.034 A 
ATOM     62  C30 non d ame     -11.930  16.234  72.170  0.00  0.00    -0.075 A 
ATOM     63  C31 non d ame     -12.625  15.659  73.233  0.00  0.00    -0.082 A 
ATOM     64  H49 non d ame     -11.417  17.187  72.305  0.00  0.00     0.084 H 
ATOM     65  C32 non d ame     -13.280  14.436  73.058  0.00  0.00    -0.083 A 
ATOM     66  H50 non d ame     -12.657  16.164  74.198  0.00  0.00     0.083 H 
ATOM     67  C33 non d ame     -13.233  13.799  71.826  0.00  0.00    -0.082 A 
ATOM     68  H51 non d ame     -13.826  13.980  73.884  0.00  0.00     0.083 H 
ATOM     69  C34 non d ame     -12.541  14.371  70.761  0.00  0.00    -0.075 A 
ATOM     70  H52 non d ame     -13.743  12.844  71.694  0.00  0.00     0.083 H 
ATOM     71  H53 non d ame     -12.510  13.865  69.795  0.00  0.00     0.084 H 
ENDBRANCH  58  61
ENDBRANCH  57  58
ENDBRANCH  55  57
ENDBRANCH  52  55
ENDBRANCH  49  52
ENDBRANCH  47  49
BRANCH  47  72
ATOM     72  C24 non d ame      -9.676  12.328  66.133  0.00  0.00    -0.039 C 
ATOM     73  H35 non d ame      -9.758  13.373  65.833  0.00  0.00     0.036 H 
ATOM     74  H36 non d ame      -8.694  11.884  66.294  0.00  0.00     0.036 H 
BRANCH  72  75
ATOM     75  C25 non d ame     -10.411  11.455  65.009  0.00  0.00    -0.001 C 
ATOM     76  C26 non d ame      -9.546  10.091  64.705  0.00  0.00    -0.035 C 
ATOM     77  C27 non d ame      -9.348   9.988  63.369  0.00  0.00     0.085 C 
ATOM     78  H38 non d ame      -8.537  10.191  65.105  0.00  0.00     0.036 H 
ATOM     79  H39 non d ame     -10.141   9.209  64.942  0.00  0.00     0.036 H 
ATOM     80  N5  non d ame      -9.715  11.322  62.765  0.00  0.00    -0.049 N 
ATOM     81  H40 non d ame      -8.277   9.824  63.244  0.00  0.00     0.075 H 
ATOM     82  H41 non d ame     -10.058   9.237  63.026  0.00  0.00     0.075 H 
ATOM     83  C28 non d ame     -10.532  12.118  63.908  0.00  0.00     0.193 C 
ATOM     84  H42 non d ame      -8.846  11.808  62.594  0.00  0.00     0.280 HD
ATOM     85  H43 non d ame     -10.343  11.127  61.998  0.00  0.00     0.280 HD
ATOM     86  H44 non d ame     -11.617  12.210  63.850  0.00  0.00     0.129 H 
ATOM     87  H37 non d ame     -11.475  11.333  65.213  0.00  0.00     0.046 H 
BRANCH  83  88
ATOM     88  O6  non d ame     -10.041  13.454  64.025  0.00  0.00    -0.369 OA
ATOM     89  H45 non d ame     -10.301  13.817  64.875  0.00  0.00     0.212 HD
ENDBRANCH  83  88
ENDBRANCH  72  75
ENDBRANCH  47  72
ENDBRANCH  45  47
ENDBRANCH   1  43
BRANCH   1  90
ATOM     90  C16 non d ame      -9.770   8.181  70.319  0.00  0.00    -0.035 C 
ATOM     91  H21 non d ame      -9.103   7.320  70.261  0.00  0.00     0.037 H 
ATOM     92  H22 non d ame      -9.412   9.120  70.741  0.00  0.00     0.037 H 
BRANCH  90  93
ATOM     93  C17 non d ame     -10.986   7.738  71.195  0.00  0.00    -0.059 C 
ATOM     94  H23 non d ame     -10.593   7.364  72.140  0.00  0.00     0.038 H 
BRANCH  93  95
ATOM     95  C18 non d ame     -11.945   8.929  71.516  0.00  0.00    -0.073 C 
ATOM     96  H24 non d ame     -12.465   9.231  70.607  0.00  0.00     0.028 H 
ATOM     97  H25 non d ame     -12.674   8.617  72.264  0.00  0.00     0.028 H 
ATOM     98  H26 non d ame     -11.366   9.769  71.900  0.00  0.00     0.028 H 
ENDBRANCH  93  95
BRANCH  93  99
ATOM     99  C19 non d ame     -11.748   6.588  70.532  0.00  0.00    -0.073 C 
ATOM    100  H27 non d ame     -12.305   6.037  71.289  0.00  0.00     0.028 H 
ATOM    101  H28 non d ame     -12.440   6.991  69.791  0.00  0.00     0.028 H 
ATOM    102  H29 non d ame     -11.041   5.919  70.041  0.00  0.00     0.028 H 
ENDBRANCH  93  99
ENDBRANCH  90  93
ENDBRANCH   1  90
TORSDOF 26
ENDMDL
MODEL 11
REMARK VINA RESULT:      -6.1      2.268      8.075
REMARK  26 active torsions:
REMARK  status: ('A' for Active; 'I' for Inactive)
REMARK    1  A    between atoms: C2_2  and  C3_3 
REMARK    2  A    between atoms: C4_6  and  C5_7 
REMARK       I    between atoms: C5_7  and  N2_9 
REMARK    3  A    between atoms: N2_9  and  C6_10 
REMARK    4  A    between atoms: C6_10  and  C7_11 
REMARK    5  A    between atoms: C6_10  and  C8_13 
REMARK       I    between atoms: C7_11  and  N3_14 
REMARK    6  A    between atoms: N3_14  and  C9_15 
REMARK    7  A    between atoms: C9_15  and  C10_16 
REMARK    8  A    between atoms: C9_15  and  C11_18 
REMARK       I    between atoms: C10_16  and  N4_21 
REMARK    9  A    between atoms: C11_18  and  C12_19 
REMARK   10  A    between atoms: C11_18  and  C13_20 
REMARK   11  A    between atoms: N4_21  and  C14_22 
REMARK   12  A    between atoms: C14_22  and  C15_23 
REMARK   13  A    between atoms: C14_22  and  C16_25 
REMARK       I    between atoms: C15_23  and  N6_40 
REMARK   14  A    between atoms: C16_25  and  C17_26 
REMARK   15  A    between atoms: C17_26  and  C18_27 
REMARK   16  A    between atoms: C17_26  and  C19_28 
REMARK   17  A    between atoms: C20_29  and  C21_30 
REMARK   18  A    between atoms: C20_29  and  C24_33 
REMARK   19  A    between atoms: C20_29  and  N6_40 
REMARK   20  A    between atoms: C21_30  and  C22_31 
REMARK   21  A    between atoms: C22_31  and  C23_32 
REMARK   22  A    between atoms: C23_32  and  O8_43 
REMARK   23  A    between atoms: C24_33  and  C25_34 
REMARK   24  A    between atoms: C28_38  and  O6_39 
REMARK   25  A    between atoms: C29_42  and  O8_43 
REMARK   26  A    between atoms: C29_42  and  C35_49 
ROOT
ATOM      1  C14 non d ame      -6.830  13.638  68.167  0.00  0.00     0.089 C 
ATOM      2  H20 non d ame      -6.053  13.486  67.418  0.00  0.00     0.087 H 
ENDROOT
BRANCH   1   3
ATOM      3  N4  non d ame      -7.072  15.070  68.265  0.00  0.00    -0.346 N 
ATOM      4  C10 non d ame      -6.075  16.050  67.702  0.00  0.00     0.241 C 
ATOM      5  O4  non d ame      -5.083  15.664  67.176  0.00  0.00    -0.271 OA
ATOM      6  H19 non d ame      -7.920  15.378  68.718  0.00  0.00     0.163 HD
BRANCH   4   7
ATOM      7  C9  non d ame      -6.344  17.529  67.807  0.00  0.00     0.092 C 
ATOM      8  H11 non d ame      -6.094  18.007  66.859  0.00  0.00     0.088 H 
BRANCH   7   9
ATOM      9  N3  non d ame      -7.774  17.750  68.040  0.00  0.00    -0.346 N 
ATOM     10  C7  non d ame      -8.663  17.952  66.923  0.00  0.00     0.240 C 
ATOM     11  O3  non d ame      -8.245  17.940  65.830  0.00  0.00    -0.271 OA
ATOM     12  H10 non d ame      -8.149  17.765  68.978  0.00  0.00     0.163 HD
BRANCH  10  13
ATOM     13  C6  non d ame     -10.184  18.190  67.178  0.00  0.00     0.086 C 
ATOM     14  H6  non d ame     -10.816  17.734  66.416  0.00  0.00     0.086 H 
BRANCH  13  15
ATOM     15  N2  non d ame     -10.551  17.578  68.444  0.00  0.00    -0.343 N 
ATOM     16  C5  non d ame     -11.208  16.269  68.448  0.00  0.00     0.273 C 
ATOM     17  O2  non d ame     -11.438  15.718  67.428  0.00  0.00    -0.266 OA
ATOM     18  H5  non d ame     -10.353  18.057  69.311  0.00  0.00     0.163 HD
BRANCH  16  19
ATOM     19  C4  non d ame     -11.600  15.609  69.779  0.00  0.00     0.154 A 
ATOM     20  C1  non d ame     -11.653  16.228  71.069  0.00  0.00    -0.017 A 
ATOM     21  C2  non d ame     -12.066  15.201  71.948  0.00  0.00     0.077 A 
ATOM     22  H1  non d ame     -11.426  17.262  71.327  0.00  0.00     0.091 H 
ATOM     23  O1  non d ame     -12.230  14.125  71.236  0.00  0.00    -0.218 OA
ATOM     24  N1  non d ame     -11.964  14.337  69.968  0.00  0.00    -0.123 NA
BRANCH  21  25
ATOM     25  C3  non d ame     -12.281  15.333  73.449  0.00  0.00    -0.029 C 
ATOM     26  H2  non d ame     -13.082  16.048  73.641  0.00  0.00     0.036 H 
ATOM     27  H3  non d ame     -12.553  14.362  73.864  0.00  0.00     0.036 H 
ATOM     28  H4  non d ame     -11.361  15.683  73.919  0.00  0.00     0.036 H 
ENDBRANCH  21  25
ENDBRANCH  16  19
ENDBRANCH  13  15
BRANCH  13  29
ATOM     29  C8  non d ame     -10.463  19.671  67.220  0.00  0.00    -0.049 C 
ATOM     30  H7  non d ame     -10.780  20.010  66.234  0.00  0.00     0.030 H 
ATOM     31  H8  non d ame     -11.253  19.872  67.944  0.00  0.00     0.030 H 
ATOM     32  H9  non d ame      -9.558  20.203  67.512  0.00  0.00     0.030 H 
ENDBRANCH  13  29
ENDBRANCH  10  13
ENDBRANCH   7   9
BRANCH   7  33
ATOM     33  C11 non d ame      -5.529  18.121  68.994  0.00  0.00    -0.033 C 
ATOM     34  H12 non d ame      -4.488  18.185  68.679  0.00  0.00     0.042 H 
BRANCH  33  35
ATOM     35  C12 non d ame      -6.003  19.566  69.344  0.00  0.00    -0.071 C 
ATOM     36  H13 non d ame      -5.378  19.971  70.140  0.00  0.00     0.028 H 
ATOM     37  H14 non d ame      -5.920  20.199  68.461  0.00  0.00     0.028 H 
ATOM     38  H15 non d ame      -7.040  19.537  69.675  0.00  0.00     0.028 H 
ENDBRANCH  33  35
BRANCH  33  39
ATOM     39  C13 non d ame      -5.599  17.184  70.243  0.00  0.00    -0.071 C 
ATOM     40  H16 non d ame      -5.900  16.184  69.930  0.00  0.00     0.028 H 
ATOM     41  H17 non d ame      -4.618  17.136  70.717  0.00  0.00     0.028 H 
ATOM     42  H18 non d ame      -6.327  17.578  70.952  0.00  0.00     0.028 H 
ENDBRANCH  33  39
ENDBRANCH   7  33
ENDBRANCH   4   7
ENDBRANCH   1   3
BRANCH   1  43
ATOM     43  C15 non d ame      -8.164  12.936  67.780  0.00  0.00     0.240 C 
ATOM     44  O5  non d ame      -9.199  13.483  67.980  0.00  0.00    -0.271 OA
ATOM     45  N6  non d ame      -8.148  11.584  67.151  0.00  0.00    -0.355 N 
ATOM     46  H46 non d ame      -7.275  11.112  66.972  0.00  0.00     0.162 HD
BRANCH  45  47
ATOM     47  C20 non d ame      -9.425  10.931  66.788  0.00  0.00     0.013 C 
ATOM     48  H30 non d ame     -10.234  11.625  67.016  0.00  0.00     0.072 H 
BRANCH  47  49
ATOM     49  C21 non d ame      -9.586   9.665  67.598  0.00  0.00    -0.038 C 
ATOM     50  H31 non d ame     -10.400   9.114  67.125  0.00  0.00     0.036 H 
ATOM     51  H32 non d ame      -8.591   9.224  67.656  0.00  0.00     0.036 H 
BRANCH  49  52
ATOM     52  C22 non d ame     -10.029   9.936  69.052  0.00  0.00     0.018 C 
ATOM     53  H33 non d ame     -10.159   8.955  69.510  0.00  0.00     0.048 H 
ATOM     54  H34 non d ame      -9.297  10.635  69.458  0.00  0.00     0.048 H 
BRANCH  52  55
ATOM     55  C23 non d ame     -11.407  10.647  69.165  0.00  0.00     0.259 C 
ATOM     56  O7  non d ame     -11.982  11.006  68.189  0.00  0.00    -0.265 OA
BRANCH  55  57
ATOM     57  O8  non d ame     -11.970  10.875  70.451  0.00  0.00    -0.317 OA
BRANCH  57  58
ATOM     58  C29 non d ame     -11.543   9.942  71.447  0.00  0.00     0.052 C 
ATOM     59  H47 non d ame     -10.643   9.475  71.048  0.00  0.00     0.082 H 
ATOM     60  H48 non d ame     -11.497  10.506  72.379  0.00  0.00     0.082 H 
BRANCH  58  61
ATOM     61  C35 non d ame     -12.641   8.854  71.586  0.00  0.00    -0.034 A 
ATOM     62  C30 non d ame     -12.298   7.507  71.528  0.00  0.00    -0.075 A 
ATOM     63  C31 non d ame     -13.284   6.529  71.652  0.00  0.00    -0.082 A 
ATOM     64  H49 non d ame     -11.257   7.217  71.386  0.00  0.00     0.084 H 
ATOM     65  C32 non d ame     -14.618   6.903  71.832  0.00  0.00    -0.083 A 
ATOM     66  H50 non d ame     -13.011   5.474  71.609  0.00  0.00     0.083 H 
ATOM     67  C33 non d ame     -14.956   8.248  71.886  0.00  0.00    -0.082 A 
ATOM     68  H51 non d ame     -15.395   6.145  71.931  0.00  0.00     0.083 H 
ATOM     69  C34 non d ame     -13.974   9.229  71.765  0.00  0.00    -0.075 A 
ATOM     70  H52 non d ame     -15.999   8.536  72.025  0.00  0.00     0.083 H 
ATOM     71  H53 non d ame     -14.247  10.283  71.809  0.00  0.00     0.084 H 
ENDBRANCH  58  61
ENDBRANCH  57  58
ENDBRANCH  55  57
ENDBRANCH  52  55
ENDBRANCH  49  52
ENDBRANCH  47  49
BRANCH  47  72
ATOM     72  C24 non d ame      -9.423  10.587  65.300  0.00  0.00    -0.039 C 
ATOM     73  H35 non d ame      -8.373  10.483  65.027  0.00  0.00     0.036 H 
ATOM     74  H36 non d ame     -10.100   9.739  65.197  0.00  0.00     0.036 H 
BRANCH  72  75
ATOM     75  C25 non d ame     -10.025  11.780  64.415  0.00  0.00    -0.001 C 
ATOM     76  C26 non d ame     -11.330  12.435  65.172  0.00  0.00    -0.035 C 
ATOM     77  C27 non d ame     -12.364  12.478  64.299  0.00  0.00     0.085 C 
ATOM     78  H38 non d ame     -11.684  11.764  65.954  0.00  0.00     0.036 H 
ATOM     79  H39 non d ame     -11.143  13.485  65.398  0.00  0.00     0.036 H 
ATOM     80  N5  non d ame     -11.983  11.615  63.120  0.00  0.00    -0.049 N 
ATOM     81  H40 non d ame     -13.205  12.018  64.820  0.00  0.00     0.075 H 
ATOM     82  H41 non d ame     -12.428  13.516  63.973  0.00  0.00     0.075 H 
ATOM     83  C28 non d ame     -10.395  11.359  63.252  0.00  0.00     0.193 C 
ATOM     84  H42 non d ame     -12.462  10.734  63.244  0.00  0.00     0.280 HD
ATOM     85  H43 non d ame     -12.152  12.170  62.293  0.00  0.00     0.280 HD
ATOM     86  H44 non d ame      -9.693  11.897  62.614  0.00  0.00     0.129 H 
ATOM     87  H37 non d ame      -9.253  12.470  64.072  0.00  0.00     0.046 H 
BRANCH  83  88
ATOM     88  O6  non d ame     -10.101   9.974  63.062  0.00  0.00    -0.369 OA
ATOM     89  H45 non d ame      -9.252   9.770  63.459  0.00  0.00     0.212 HD
ENDBRANCH  83  88
ENDBRANCH  72  75
ENDBRANCH  47  72
ENDBRANCH  45  47
ENDBRANCH   1  43
BRANCH   1  90
ATOM     90  C16 non d ame      -6.354  13.122  69.515  0.00  0.00    -0.035 C 
ATOM     91  H21 non d ame      -6.439  13.970  70.196  0.00  0.00     0.037 H 
ATOM     92  H22 non d ame      -6.932  12.216  69.699  0.00  0.00     0.037 H 
BRANCH  90  93
ATOM     93  C17 non d ame      -4.851  12.695  69.527  0.00  0.00    -0.059 C 
ATOM     94  H23 non d ame      -4.765  11.805  70.150  0.00  0.00     0.038 H 
BRANCH  93  95
ATOM     95  C18 non d ame      -4.331  12.331  68.100  0.00  0.00    -0.073 C 
ATOM     96  H24 non d ame      -4.862  12.925  67.357  0.00  0.00     0.028 H 
ATOM     97  H25 non d ame      -3.263  12.542  68.038  0.00  0.00     0.028 H 
ATOM     98  H26 non d ame      -4.503  11.271  67.911  0.00  0.00     0.028 H 
ENDBRANCH  93  95
BRANCH  93  99
ATOM     99  C19 non d ame      -3.980  13.781  70.164  0.00  0.00    -0.073 C 
ATOM    100  H27 non d ame      -4.617  14.566  70.573  0.00  0.00     0.028 H 
ATOM    101  H28 non d ame      -3.382  13.345  70.964  0.00  0.00     0.028 H 
ATOM    102  H29 non d ame      -3.319  14.206  69.408  0.00  0.00     0.028 H 
ENDBRANCH  93  99
ENDBRANCH  90  93
ENDBRANCH   1  90
TORSDOF 26
ENDMDL
MODEL 12
REMARK VINA RESULT:      -6.0      2.930      8.102
REMARK  26 active torsions:
REMARK  status: ('A' for Active; 'I' for Inactive)
REMARK    1  A    between atoms: C2_2  and  C3_3 
REMARK    2  A    between atoms: C4_6  and  C5_7 
REMARK       I    between atoms: C5_7  and  N2_9 
REMARK    3  A    between atoms: N2_9  and  C6_10 
REMARK    4  A    between atoms: C6_10  and  C7_11 
REMARK    5  A    between atoms: C6_10  and  C8_13 
REMARK       I    between atoms: C7_11  and  N3_14 
REMARK    6  A    between atoms: N3_14  and  C9_15 
REMARK    7  A    between atoms: C9_15  and  C10_16 
REMARK    8  A    between atoms: C9_15  and  C11_18 
REMARK       I    between atoms: C10_16  and  N4_21 
REMARK    9  A    between atoms: C11_18  and  C12_19 
REMARK   10  A    between atoms: C11_18  and  C13_20 
REMARK   11  A    between atoms: N4_21  and  C14_22 
REMARK   12  A    between atoms: C14_22  and  C15_23 
REMARK   13  A    between atoms: C14_22  and  C16_25 
REMARK       I    between atoms: C15_23  and  N6_40 
REMARK   14  A    between atoms: C16_25  and  C17_26 
REMARK   15  A    between atoms: C17_26  and  C18_27 
REMARK   16  A    between atoms: C17_26  and  C19_28 
REMARK   17  A    between atoms: C20_29  and  C21_30 
REMARK   18  A    between atoms: C20_29  and  C24_33 
REMARK   19  A    between atoms: C20_29  and  N6_40 
REMARK   20  A    between atoms: C21_30  and  C22_31 
REMARK   21  A    between atoms: C22_31  and  C23_32 
REMARK   22  A    between atoms: C23_32  and  O8_43 
REMARK   23  A    between atoms: C24_33  and  C25_34 
REMARK   24  A    between atoms: C28_38  and  O6_39 
REMARK   25  A    between atoms: C29_42  and  O8_43 
REMARK   26  A    between atoms: C29_42  and  C35_49 
ROOT
ATOM      1  C14 non d ame      -8.753   9.859  65.079  0.00  0.00     0.089 C 
ATOM      2  H20 non d ame      -7.730  10.130  65.339  0.00  0.00     0.087 H 
ENDROOT
BRANCH   1   3
ATOM      3  N4  non d ame      -9.075   8.630  65.788  0.00  0.00    -0.346 N 
ATOM      4  C10 non d ame      -7.990   7.639  66.128  0.00  0.00     0.241 C 
ATOM      5  O4  non d ame      -6.864   7.852  65.817  0.00  0.00    -0.271 OA
ATOM      6  H19 non d ame     -10.039   8.466  66.042  0.00  0.00     0.163 HD
BRANCH   4   7
ATOM      7  C9  non d ame      -8.340   6.375  66.867  0.00  0.00     0.092 C 
ATOM      8  H11 non d ame      -7.494   5.690  66.827  0.00  0.00     0.088 H 
BRANCH   7   9
ATOM      9  N3  non d ame      -8.581   6.685  68.280  0.00  0.00    -0.346 N 
ATOM     10  C7  non d ame      -7.650   6.232  69.285  0.00  0.00     0.240 C 
ATOM     11  O3  non d ame      -6.705   5.617  68.975  0.00  0.00    -0.271 OA
ATOM     12  H10 non d ame      -9.393   7.214  68.563  0.00  0.00     0.163 HD
BRANCH  10  13
ATOM     13  C6  non d ame      -7.913   6.563  70.787  0.00  0.00     0.086 C 
ATOM     14  H6  non d ame      -7.310   7.396  71.147  0.00  0.00     0.086 H 
BRANCH  13  15
ATOM     15  N2  non d ame      -9.303   6.956  70.947  0.00  0.00    -0.343 N 
ATOM     16  C5  non d ame      -9.626   8.344  71.287  0.00  0.00     0.273 C 
ATOM     17  O2  non d ame      -8.760   9.135  71.433  0.00  0.00    -0.266 OA
ATOM     18  H5  non d ame     -10.037   6.273  70.823  0.00  0.00     0.163 HD
BRANCH  16  19
ATOM     19  C4  non d ame     -11.091   8.774  71.458  0.00  0.00     0.154 A 
ATOM     20  C1  non d ame     -12.203   7.940  71.801  0.00  0.00    -0.017 A 
ATOM     21  C2  non d ame     -13.315   8.811  71.831  0.00  0.00     0.077 A 
ATOM     22  H1  non d ame     -12.202   6.868  71.999  0.00  0.00     0.091 H 
ATOM     23  O1  non d ame     -12.881  10.002  71.539  0.00  0.00    -0.218 OA
ATOM     24  N1  non d ame     -11.587  10.006  71.317  0.00  0.00    -0.123 NA
BRANCH  21  25
ATOM     25  C3  non d ame     -14.753   8.425  72.148  0.00  0.00    -0.029 C 
ATOM     26  H2  non d ame     -15.060   7.601  71.503  0.00  0.00     0.036 H 
ATOM     27  H3  non d ame     -14.826   8.117  73.191  0.00  0.00     0.036 H 
ATOM     28  H4  non d ame     -15.406   9.282  71.976  0.00  0.00     0.036 H 
ENDBRANCH  21  25
ENDBRANCH  16  19
ENDBRANCH  13  15
BRANCH  13  29
ATOM     29  C8  non d ame      -7.620   5.348  71.630  0.00  0.00    -0.049 C 
ATOM     30  H7  non d ame      -8.327   5.301  72.458  0.00  0.00     0.030 H 
ATOM     31  H8  non d ame      -7.713   4.450  71.020  0.00  0.00     0.030 H 
ATOM     32  H9  non d ame      -6.606   5.416  72.024  0.00  0.00     0.030 H 
ENDBRANCH  13  29
ENDBRANCH  10  13
ENDBRANCH   7   9
BRANCH   7  33
ATOM     33  C11 non d ame      -9.627   5.753  66.249  0.00  0.00    -0.033 C 
ATOM     34  H12 non d ame      -9.829   6.276  65.315  0.00  0.00     0.042 H 
BRANCH  33  35
ATOM     35  C12 non d ame      -9.421   4.244  65.907  0.00  0.00    -0.071 C 
ATOM     36  H13 non d ame     -10.136   3.643  66.470  0.00  0.00     0.028 H 
ATOM     37  H14 non d ame      -9.578   4.089  64.840  0.00  0.00     0.028 H 
ATOM     38  H15 non d ame      -8.407   3.947  66.173  0.00  0.00     0.028 H 
ENDBRANCH  33  35
BRANCH  33  39
ATOM     39  C13 non d ame     -10.855   5.957  67.193  0.00  0.00    -0.071 C 
ATOM     40  H16 non d ame     -10.695   5.411  68.122  0.00  0.00     0.028 H 
ATOM     41  H17 non d ame     -10.974   7.019  67.411  0.00  0.00     0.028 H 
ATOM     42  H18 non d ame     -11.755   5.584  66.703  0.00  0.00     0.028 H 
ENDBRANCH  33  39
ENDBRANCH   7  33
ENDBRANCH   4   7
ENDBRANCH   1   3
BRANCH   1  43
ATOM     43  C15 non d ame      -9.775  10.955  65.497  0.00  0.00     0.240 C 
ATOM     44  O5  non d ame     -10.862  10.641  65.860  0.00  0.00    -0.271 OA
ATOM     45  N6  non d ame      -9.395  12.395  65.454  0.00  0.00    -0.355 N 
ATOM     46  H46 non d ame      -8.472  12.674  65.152  0.00  0.00     0.162 HD
BRANCH  45  47
ATOM     47  C20 non d ame     -10.377  13.425  65.857  0.00  0.00     0.013 C 
ATOM     48  H30 non d ame     -11.373  13.050  65.618  0.00  0.00     0.072 H 
BRANCH  47  49
ATOM     49  C21 non d ame     -10.107  14.700  65.090  0.00  0.00    -0.038 C 
ATOM     50  H31 non d ame      -9.138  14.556  64.611  0.00  0.00     0.036 H 
ATOM     51  H32 non d ame     -10.996  14.872  64.483  0.00  0.00     0.036 H 
BRANCH  49  52
ATOM     52  C22 non d ame      -9.962  15.932  66.009  0.00  0.00     0.018 C 
ATOM     53  H33 non d ame     -10.514  15.690  66.918  0.00  0.00     0.048 H 
ATOM     54  H34 non d ame      -8.892  16.138  66.060  0.00  0.00     0.048 H 
BRANCH  52  55
ATOM     55  C23 non d ame     -10.618  17.220  65.439  0.00  0.00     0.259 C 
ATOM     56  O7  non d ame     -11.232  17.184  64.422  0.00  0.00    -0.265 OA
BRANCH  55  57
ATOM     57  O8  non d ame     -10.467  18.448  66.140  0.00  0.00    -0.317 OA
BRANCH  57  58
ATOM     58  C29 non d ame     -10.119  18.293  67.519  0.00  0.00     0.052 C 
ATOM     59  H47 non d ame     -10.895  18.814  68.079  0.00  0.00     0.082 H 
ATOM     60  H48 non d ame      -9.965  17.224  67.666  0.00  0.00     0.082 H 
BRANCH  58  61
ATOM     61  C35 non d ame      -8.769  19.020  67.757  0.00  0.00    -0.034 A 
ATOM     62  C30 non d ame      -7.960  18.655  68.828  0.00  0.00    -0.075 A 
ATOM     63  C31 non d ame      -6.747  19.308  69.042  0.00  0.00    -0.082 A 
ATOM     64  H49 non d ame      -8.276  17.856  69.499  0.00  0.00     0.084 H 
ATOM     65  C32 non d ame      -6.345  20.333  68.181  0.00  0.00    -0.083 A 
ATOM     66  H50 non d ame      -6.115  19.018  69.881  0.00  0.00     0.083 H 
ATOM     67  C33 non d ame      -7.157  20.697  67.115  0.00  0.00    -0.082 A 
ATOM     68  H51 non d ame      -5.399  20.849  68.341  0.00  0.00     0.083 H 
ATOM     69  C34 non d ame      -8.369  20.045  66.896  0.00  0.00    -0.075 A 
ATOM     70  H52 non d ame      -6.842  21.498  66.447  0.00  0.00     0.083 H 
ATOM     71  H53 non d ame      -9.001  20.335  66.057  0.00  0.00     0.084 H 
ENDBRANCH  58  61
ENDBRANCH  57  58
ENDBRANCH  55  57
ENDBRANCH  52  55
ENDBRANCH  49  52
ENDBRANCH  47  49
BRANCH  47  72
ATOM     72  C24 non d ame     -10.258  13.695  67.355  0.00  0.00    -0.039 C 
ATOM     73  H35 non d ame      -9.576  12.934  67.734  0.00  0.00     0.036 H 
ATOM     74  H36 non d ame      -9.997  14.750  67.439  0.00  0.00     0.036 H 
BRANCH  72  75
ATOM     75  C25 non d ame     -11.657  13.493  68.107  0.00  0.00    -0.001 C 
ATOM     76  C26 non d ame     -11.981  14.801  69.050  0.00  0.00    -0.035 C 
ATOM     77  C27 non d ame     -12.280  14.375  70.300  0.00  0.00     0.085 C 
ATOM     78  H38 non d ame     -11.077  15.393  69.191  0.00  0.00     0.036 H 
ATOM     79  H39 non d ame     -12.901  15.282  68.718  0.00  0.00     0.036 H 
ATOM     80  N5  non d ame     -11.871  12.924  70.382  0.00  0.00    -0.049 N 
ATOM     81  H40 non d ame     -11.646  14.961  70.967  0.00  0.00     0.075 H 
ATOM     82  H41 non d ame     -13.364  14.444  70.380  0.00  0.00     0.075 H 
ATOM     83  C28 non d ame     -11.636  12.443  68.859  0.00  0.00     0.193 C 
ATOM     84  H42 non d ame     -10.985  12.903  70.866  0.00  0.00     0.280 HD
ATOM     85  H43 non d ame     -12.664  12.424  70.758  0.00  0.00     0.280 HD
ATOM     86  H44 non d ame     -12.377  11.823  68.354  0.00  0.00     0.129 H 
ATOM     87  H37 non d ame     -12.445  13.161  67.431  0.00  0.00     0.046 H 
BRANCH  83  88
ATOM     88  O6  non d ame     -10.404  11.728  68.752  0.00  0.00    -0.369 OA
ATOM     89  H45 non d ame     -10.559  10.886  68.320  0.00  0.00     0.212 HD
ENDBRANCH  83  88
ENDBRANCH  72  75
ENDBRANCH  47  72
ENDBRANCH  45  47
ENDBRANCH   1  43
BRANCH   1  90
ATOM     90  C16 non d ame      -8.855   9.610  63.583  0.00  0.00    -0.035 C 
ATOM     91  H21 non d ame      -8.952   8.529  63.476  0.00  0.00     0.037 H 
ATOM     92  H22 non d ame      -9.654  10.265  63.235  0.00  0.00     0.037 H 
BRANCH  90  93
ATOM     93  C17 non d ame      -7.572  10.018  62.791  0.00  0.00    -0.059 C 
ATOM     94  H23 non d ame      -6.902  10.525  63.485  0.00  0.00     0.038 H 
BRANCH  93  95
ATOM     95  C18 non d ame      -6.814   8.778  62.217  0.00  0.00    -0.073 C 
ATOM     96  H24 non d ame      -5.856   8.672  62.725  0.00  0.00     0.028 H 
ATOM     97  H25 non d ame      -7.412   7.881  62.377  0.00  0.00     0.028 H 
ATOM     98  H26 non d ame      -6.646   8.917  61.149  0.00  0.00     0.028 H 
ENDBRANCH  93  95
BRANCH  93  99
ATOM     99  C19 non d ame      -7.911  11.012  61.677  0.00  0.00    -0.073 C 
ATOM    100  H27 non d ame      -7.308  10.790  60.796  0.00  0.00     0.028 H 
ATOM    101  H28 non d ame      -8.968  10.929  61.425  0.00  0.00     0.028 H 
ATOM    102  H29 non d ame      -7.697  12.025  62.017  0.00  0.00     0.028 H 
ENDBRANCH  93  99
ENDBRANCH  90  93
ENDBRANCH   1  90
TORSDOF 26
ENDMDL
MODEL 13
REMARK VINA RESULT:      -6.0      2.581      6.667
REMARK  26 active torsions:
REMARK  status: ('A' for Active; 'I' for Inactive)
REMARK    1  A    between atoms: C2_2  and  C3_3 
REMARK    2  A    between atoms: C4_6  and  C5_7 
REMARK       I    between atoms: C5_7  and  N2_9 
REMARK    3  A    between atoms: N2_9  and  C6_10 
REMARK    4  A    between atoms: C6_10  and  C7_11 
REMARK    5  A    between atoms: C6_10  and  C8_13 
REMARK       I    between atoms: C7_11  and  N3_14 
REMARK    6  A    between atoms: N3_14  and  C9_15 
REMARK    7  A    between atoms: C9_15  and  C10_16 
REMARK    8  A    between atoms: C9_15  and  C11_18 
REMARK       I    between atoms: C10_16  and  N4_21 
REMARK    9  A    between atoms: C11_18  and  C12_19 
REMARK   10  A    between atoms: C11_18  and  C13_20 
REMARK   11  A    between atoms: N4_21  and  C14_22 
REMARK   12  A    between atoms: C14_22  and  C15_23 
REMARK   13  A    between atoms: C14_22  and  C16_25 
REMARK       I    between atoms: C15_23  and  N6_40 
REMARK   14  A    between atoms: C16_25  and  C17_26 
REMARK   15  A    between atoms: C17_26  and  C18_27 
REMARK   16  A    between atoms: C17_26  and  C19_28 
REMARK   17  A    between atoms: C20_29  and  C21_30 
REMARK   18  A    between atoms: C20_29  and  C24_33 
REMARK   19  A    between atoms: C20_29  and  N6_40 
REMARK   20  A    between atoms: C21_30  and  C22_31 
REMARK   21  A    between atoms: C22_31  and  C23_32 
REMARK   22  A    between atoms: C23_32  and  O8_43 
REMARK   23  A    between atoms: C24_33  and  C25_34 
REMARK   24  A    between atoms: C28_38  and  O6_39 
REMARK   25  A    between atoms: C29_42  and  O8_43 
REMARK   26  A    between atoms: C29_42  and  C35_49 
ROOT
ATOM      1  C14 non d ame     -11.121   9.512  69.759  0.00  0.00     0.089 C 
ATOM      2  H20 non d ame     -11.649   8.685  69.285  0.00  0.00     0.087 H 
ENDROOT
BRANCH   1   3
ATOM      3  N4  non d ame      -9.760   9.517  69.242  0.00  0.00    -0.346 N 
ATOM      4  C10 non d ame      -9.130   8.240  68.746  0.00  0.00     0.241 C 
ATOM      5  O4  non d ame      -9.736   7.221  68.775  0.00  0.00    -0.271 OA
ATOM      6  H19 non d ame      -9.261  10.395  69.228  0.00  0.00     0.163 HD
BRANCH   4   7
ATOM      7  C9  non d ame      -7.722   8.265  68.210  0.00  0.00     0.092 C 
ATOM      8  H11 non d ame      -7.463   7.273  67.838  0.00  0.00     0.088 H 
BRANCH   7   9
ATOM      9  N3  non d ame      -7.648   9.187  67.073  0.00  0.00    -0.346 N 
ATOM     10  C7  non d ame      -7.369   8.681  65.752  0.00  0.00     0.240 C 
ATOM     11  O3  non d ame      -7.199   7.535  65.586  0.00  0.00    -0.271 OA
ATOM     12  H10 non d ame      -7.791  10.179  67.201  0.00  0.00     0.163 HD
BRANCH  10  13
ATOM     13  C6  non d ame      -7.288   9.668  64.546  0.00  0.00     0.086 C 
ATOM     14  H6  non d ame      -7.431   9.174  63.586  0.00  0.00     0.086 H 
BRANCH  13  15
ATOM     15  N2  non d ame      -8.351  10.652  64.670  0.00  0.00    -0.343 N 
ATOM     16  C5  non d ame      -9.421  10.688  63.671  0.00  0.00     0.273 C 
ATOM     17  O2  non d ame      -9.416   9.923  62.770  0.00  0.00    -0.266 OA
ATOM     18  H5  non d ame      -8.346  11.304  65.442  0.00  0.00     0.163 HD
BRANCH  16  19
ATOM     19  C4  non d ame     -10.552  11.721  63.790  0.00  0.00     0.154 A 
ATOM     20  C1  non d ame     -10.479  13.017  64.393  0.00  0.00    -0.017 A 
ATOM     21  C2  non d ame     -11.774  13.561  64.243  0.00  0.00     0.077 A 
ATOM     22  H1  non d ame      -9.618  13.490  64.866  0.00  0.00     0.091 H 
ATOM     23  O1  non d ame     -12.497  12.674  63.625  0.00  0.00    -0.218 OA
ATOM     24  N1  non d ame     -11.806  11.592  63.350  0.00  0.00    -0.123 NA
BRANCH  21  25
ATOM     25  C3  non d ame     -12.236  14.933  64.717  0.00  0.00    -0.029 C 
ATOM     26  H2  non d ame     -11.645  15.706  64.225  0.00  0.00     0.036 H 
ATOM     27  H3  non d ame     -13.289  15.067  64.469  0.00  0.00     0.036 H 
ATOM     28  H4  non d ame     -12.105  15.007  65.797  0.00  0.00     0.036 H 
ENDBRANCH  21  25
ENDBRANCH  16  19
ENDBRANCH  13  15
BRANCH  13  29
ATOM     29  C8  non d ame      -5.946  10.355  64.544  0.00  0.00    -0.049 C 
ATOM     30  H7  non d ame      -5.363  10.016  65.401  0.00  0.00     0.030 H 
ATOM     31  H8  non d ame      -5.415  10.114  63.624  0.00  0.00     0.030 H 
ATOM     32  H9  non d ame      -6.090  11.434  64.609  0.00  0.00     0.030 H 
ENDBRANCH  13  29
ENDBRANCH  10  13
ENDBRANCH   7   9
BRANCH   7  33
ATOM     33  C11 non d ame      -6.750   8.744  69.327  0.00  0.00    -0.033 C 
ATOM     34  H12 non d ame      -5.778   8.289  69.134  0.00  0.00     0.042 H 
BRANCH  33  35
ATOM     35  C12 non d ame      -6.559  10.292  69.289  0.00  0.00    -0.071 C 
ATOM     36  H13 non d ame      -7.351  10.741  68.690  0.00  0.00     0.028 H 
ATOM     37  H14 non d ame      -6.601  10.688  70.303  0.00  0.00     0.028 H 
ATOM     38  H15 non d ame      -5.591  10.527  68.847  0.00  0.00     0.028 H 
ENDBRANCH  33  35
BRANCH  33  39
ATOM     39  C13 non d ame      -7.236   8.267  70.734  0.00  0.00    -0.071 C 
ATOM     40  H16 non d ame      -8.025   7.526  70.614  0.00  0.00     0.028 H 
ATOM     41  H17 non d ame      -6.400   7.824  71.276  0.00  0.00     0.028 H 
ATOM     42  H18 non d ame      -7.620   9.120  71.293  0.00  0.00     0.028 H 
ENDBRANCH  33  39
ENDBRANCH   7  33
ENDBRANCH   4   7
ENDBRANCH   1   3
BRANCH   1  43
ATOM     43  C15 non d ame     -11.776  10.887  69.441  0.00  0.00     0.240 C 
ATOM     44  O5  non d ame     -12.305  11.061  68.391  0.00  0.00    -0.271 OA
ATOM     45  N6  non d ame     -11.752  11.984  70.450  0.00  0.00    -0.355 N 
ATOM     46  H46 non d ame     -11.311  11.847  71.347  0.00  0.00     0.162 HD
BRANCH  45  47
ATOM     47  C20 non d ame     -12.381  13.285  70.133  0.00  0.00     0.013 C 
ATOM     48  H30 non d ame     -12.981  13.157  69.232  0.00  0.00     0.072 H 
BRANCH  47  49
ATOM     49  C21 non d ame     -11.302  14.316  69.893  0.00  0.00    -0.038 C 
ATOM     50  H31 non d ame     -11.675  15.241  70.335  0.00  0.00     0.036 H 
ATOM     51  H32 non d ame     -10.380  13.868  70.263  0.00  0.00     0.036 H 
BRANCH  49  52
ATOM     52  C22 non d ame     -11.075  14.609  68.394  0.00  0.00     0.018 C 
ATOM     53  H33 non d ame     -11.746  13.938  67.857  0.00  0.00     0.048 H 
ATOM     54  H34 non d ame     -11.182  15.689  68.285  0.00  0.00     0.048 H 
BRANCH  52  55
ATOM     55  C23 non d ame      -9.642  14.268  67.900  0.00  0.00     0.259 C 
ATOM     56  O7  non d ame      -9.129  13.240  68.201  0.00  0.00    -0.265 OA
BRANCH  55  57
ATOM     57  O8  non d ame      -8.942  15.206  67.091  0.00  0.00    -0.317 OA
BRANCH  57  58
ATOM     58  C29 non d ame      -8.193  16.172  67.835  0.00  0.00     0.052 C 
ATOM     59  H47 non d ame      -8.400  15.961  68.884  0.00  0.00     0.082 H 
ATOM     60  H48 non d ame      -7.173  16.109  67.457  0.00  0.00     0.082 H 
BRANCH  58  61
ATOM     61  C35 non d ame      -8.755  17.578  67.496  0.00  0.00    -0.034 A 
ATOM     62  C30 non d ame      -7.940  18.700  67.609  0.00  0.00    -0.075 A 
ATOM     63  C31 non d ame      -8.445  19.963  67.305  0.00  0.00    -0.082 A 
ATOM     64  H49 non d ame      -6.906  18.589  67.935  0.00  0.00     0.084 H 
ATOM     65  C32 non d ame      -9.772  20.103  66.889  0.00  0.00    -0.083 A 
ATOM     66  H50 non d ame      -7.803  20.840  67.392  0.00  0.00     0.083 H 
ATOM     67  C33 non d ame     -10.583  18.982  66.782  0.00  0.00    -0.082 A 
ATOM     68  H51 non d ame     -10.174  21.087  66.649  0.00  0.00     0.083 H 
ATOM     69  C34 non d ame     -10.082  17.717  67.082  0.00  0.00    -0.075 A 
ATOM     70  H52 non d ame     -11.618  19.094  66.459  0.00  0.00     0.083 H 
ATOM     71  H53 non d ame     -10.724  16.840  66.994  0.00  0.00     0.084 H 
ENDBRANCH  58  61
ENDBRANCH  57  58
ENDBRANCH  55  57
ENDBRANCH  52  55
ENDBRANCH  49  52
ENDBRANCH  47  49
BRANCH  47  72
ATOM     72  C24 non d ame     -13.263  13.730  71.298  0.00  0.00    -0.039 C 
ATOM     73  H35 non d ame     -14.264  13.838  70.879  0.00  0.00     0.036 H 
ATOM     74  H36 non d ame     -13.080  13.007  72.093  0.00  0.00     0.036 H 
BRANCH  72  75
ATOM     75  C25 non d ame     -12.826  15.167  71.856  0.00  0.00    -0.001 C 
ATOM     76  C26 non d ame     -11.967  14.989  73.247  0.00  0.00    -0.035 C 
ATOM     77  C27 non d ame     -12.506  15.789  74.198  0.00  0.00     0.085 C 
ATOM     78  H38 non d ame     -12.109  13.986  73.648  0.00  0.00     0.036 H 
ATOM     79  H39 non d ame     -10.961  15.388  73.119  0.00  0.00     0.036 H 
ATOM     80  N5  non d ame     -13.848  16.248  73.680  0.00  0.00    -0.049 N 
ATOM     81  H40 non d ame     -12.660  15.148  75.066  0.00  0.00     0.075 H 
ATOM     82  H41 non d ame     -11.840  16.649  74.267  0.00  0.00     0.075 H 
ATOM     83  C28 non d ame     -13.856  15.905  72.103  0.00  0.00     0.193 C 
ATOM     84  H42 non d ame     -14.542  15.674  74.138  0.00  0.00     0.280 HD
ATOM     85  H43 non d ame     -13.870  17.252  73.791  0.00  0.00     0.280 HD
ATOM     86  H44 non d ame     -13.716  16.694  71.364  0.00  0.00     0.129 H 
ATOM     87  H37 non d ame     -12.389  15.796  71.080  0.00  0.00     0.046 H 
BRANCH  83  88
ATOM     88  O6  non d ame     -15.080  15.260  71.745  0.00  0.00    -0.369 OA
ATOM     89  H45 non d ame     -15.735  15.417  72.428  0.00  0.00     0.212 HD
ENDBRANCH  83  88
ENDBRANCH  72  75
ENDBRANCH  47  72
ENDBRANCH  45  47
ENDBRANCH   1  43
BRANCH   1  90
ATOM     90  C16 non d ame     -11.080   9.302  71.264  0.00  0.00    -0.035 C 
ATOM     91  H21 non d ame     -10.066   8.963  71.480  0.00  0.00     0.037 H 
ATOM     92  H22 non d ame     -11.446  10.233  71.696  0.00  0.00     0.037 H 
BRANCH  90  93
ATOM     93  C17 non d ame     -12.038   8.175  71.765  0.00  0.00    -0.059 C 
ATOM     94  H23 non d ame     -12.305   7.561  70.906  0.00  0.00     0.038 H 
BRANCH  93  95
ATOM     95  C18 non d ame     -11.356   7.247  72.821  0.00  0.00    -0.073 C 
ATOM     96  H24 non d ame     -11.824   6.263  72.795  0.00  0.00     0.028 H 
ATOM     97  H25 non d ame     -10.295   7.151  72.588  0.00  0.00     0.028 H 
ATOM     98  H26 non d ame     -11.472   7.680  73.814  0.00  0.00     0.028 H 
ENDBRANCH  93  95
BRANCH  93  99
ATOM     99  C19 non d ame     -13.336   8.769  72.321  0.00  0.00    -0.073 C 
ATOM    100  H27 non d ame     -13.180   9.080  73.354  0.00  0.00     0.028 H 
ATOM    101  H28 non d ame     -13.626   9.632  71.721  0.00  0.00     0.028 H 
ATOM    102  H29 non d ame     -14.125   8.018  72.282  0.00  0.00     0.028 H 
ENDBRANCH  93  99
ENDBRANCH  90  93
ENDBRANCH   1  90
TORSDOF 26
ENDMDL
MODEL 14
REMARK VINA RESULT:      -6.0      2.689      7.324
REMARK  26 active torsions:
REMARK  status: ('A' for Active; 'I' for Inactive)
REMARK    1  A    between atoms: C2_2  and  C3_3 
REMARK    2  A    between atoms: C4_6  and  C5_7 
REMARK       I    between atoms: C5_7  and  N2_9 
REMARK    3  A    between atoms: N2_9  and  C6_10 
REMARK    4  A    between atoms: C6_10  and  C7_11 
REMARK    5  A    between atoms: C6_10  and  C8_13 
REMARK       I    between atoms: C7_11  and  N3_14 
REMARK    6  A    between atoms: N3_14  and  C9_15 
REMARK    7  A    between atoms: C9_15  and  C10_16 
REMARK    8  A    between atoms: C9_15  and  C11_18 
REMARK       I    between atoms: C10_16  and  N4_21 
REMARK    9  A    between atoms: C11_18  and  C12_19 
REMARK   10  A    between atoms: C11_18  and  C13_20 
REMARK   11  A    between atoms: N4_21  and  C14_22 
REMARK   12  A    between atoms: C14_22  and  C15_23 
REMARK   13  A    between atoms: C14_22  and  C16_25 
REMARK       I    between atoms: C15_23  and  N6_40 
REMARK   14  A    between atoms: C16_25  and  C17_26 
REMARK   15  A    between atoms: C17_26  and  C18_27 
REMARK   16  A    between atoms: C17_26  and  C19_28 
REMARK   17  A    between atoms: C20_29  and  C21_30 
REMARK   18  A    between atoms: C20_29  and  C24_33 
REMARK   19  A    between atoms: C20_29  and  N6_40 
REMARK   20  A    between atoms: C21_30  and  C22_31 
REMARK   21  A    between atoms: C22_31  and  C23_32 
REMARK   22  A    between atoms: C23_32  and  O8_43 
REMARK   23  A    between atoms: C24_33  and  C25_34 
REMARK   24  A    between atoms: C28_38  and  O6_39 
REMARK   25  A    between atoms: C29_42  and  O8_43 
REMARK   26  A    between atoms: C29_42  and  C35_49 
ROOT
ATOM      1  C14 non d ame      -8.779  10.275  66.009  0.00  0.00     0.089 C 
ATOM      2  H20 non d ame      -9.462   9.672  65.409  0.00  0.00     0.087 H 
ENDROOT
BRANCH   1   3
ATOM      3  N4  non d ame      -9.272  11.644  65.989  0.00  0.00    -0.346 N 
ATOM      4  C10 non d ame     -10.698  11.946  66.377  0.00  0.00     0.241 C 
ATOM      5  O4  non d ame     -11.431  11.069  66.698  0.00  0.00    -0.271 OA
ATOM      6  H19 non d ame      -8.633  12.375  65.711  0.00  0.00     0.163 HD
BRANCH   4   7
ATOM      7  C9  non d ame     -11.189  13.369  66.356  0.00  0.00     0.092 C 
ATOM      8  H11 non d ame     -12.248  13.387  66.616  0.00  0.00     0.088 H 
BRANCH   7   9
ATOM      9  N3  non d ame     -10.480  14.146  67.377  0.00  0.00    -0.346 N 
ATOM     10  C7  non d ame     -11.120  14.436  68.637  0.00  0.00     0.240 C 
ATOM     11  O3  non d ame     -12.206  14.052  68.845  0.00  0.00    -0.271 OA
ATOM     12  H10 non d ame      -9.543  14.485  67.211  0.00  0.00     0.163 HD
BRANCH  10  13
ATOM     13  C6  non d ame     -10.360  15.266  69.718  0.00  0.00     0.086 C 
ATOM     14  H6  non d ame      -9.728  14.649  70.356  0.00  0.00     0.086 H 
BRANCH  13  15
ATOM     15  N2  non d ame      -9.481  16.213  69.053  0.00  0.00    -0.343 N 
ATOM     16  C5  non d ame     -10.058  17.277  68.229  0.00  0.00     0.273 C 
ATOM     17  O2  non d ame     -11.231  17.361  68.105  0.00  0.00    -0.266 OA
ATOM     18  H5  non d ame      -8.480  16.133  69.162  0.00  0.00     0.163 HD
BRANCH  16  19
ATOM     19  C4  non d ame      -9.141  18.287  67.522  0.00  0.00     0.154 A 
ATOM     20  C1  non d ame      -8.232  19.206  68.135  0.00  0.00    -0.017 A 
ATOM     21  C2  non d ame      -7.635  19.900  67.058  0.00  0.00     0.077 A 
ATOM     22  H1  non d ame      -8.035  19.348  69.197  0.00  0.00     0.091 H 
ATOM     23  O1  non d ame      -8.147  19.426  65.960  0.00  0.00    -0.218 OA
ATOM     24  N1  non d ame      -9.029  18.484  66.205  0.00  0.00    -0.123 NA
BRANCH  21  25
ATOM     25  C3  non d ame      -6.586  20.998  67.164  0.00  0.00    -0.029 C 
ATOM     26  H2  non d ame      -5.593  20.550  67.212  0.00  0.00     0.036 H 
ATOM     27  H3  non d ame      -6.649  21.647  66.291  0.00  0.00     0.036 H 
ATOM     28  H4  non d ame      -6.763  21.585  68.066  0.00  0.00     0.036 H 
ENDBRANCH  21  25
ENDBRANCH  16  19
ENDBRANCH  13  15
BRANCH  13  29
ATOM     29  C8  non d ame     -11.354  16.001  70.581  0.00  0.00    -0.049 C 
ATOM     30  H7  non d ame     -11.479  15.470  71.524  0.00  0.00     0.030 H 
ATOM     31  H8  non d ame     -10.989  17.010  70.776  0.00  0.00     0.030 H 
ATOM     32  H9  non d ame     -12.313  16.055  70.065  0.00  0.00     0.030 H 
ENDBRANCH  13  29
ENDBRANCH  10  13
ENDBRANCH   7   9
BRANCH   7  33
ATOM     33  C11 non d ame     -10.920  13.991  64.955  0.00  0.00    -0.033 C 
ATOM     34  H12 non d ame      -9.948  13.632  64.617  0.00  0.00     0.042 H 
BRANCH  33  35
ATOM     35  C12 non d ame     -11.981  13.521  63.911  0.00  0.00    -0.071 C 
ATOM     36  H13 non d ame     -11.723  12.524  63.555  0.00  0.00     0.028 H 
ATOM     37  H14 non d ame     -12.965  13.495  64.380  0.00  0.00     0.028 H 
ATOM     38  H15 non d ame     -11.996  14.215  63.071  0.00  0.00     0.028 H 
ENDBRANCH  33  35
BRANCH  33  39
ATOM     39  C13 non d ame     -10.858  15.550  65.037  0.00  0.00    -0.071 C 
ATOM     40  H16 non d ame      -9.851  15.860  65.314  0.00  0.00     0.028 H 
ATOM     41  H17 non d ame     -11.115  15.976  64.066  0.00  0.00     0.028 H 
ATOM     42  H18 non d ame     -11.567  15.902  65.787  0.00  0.00     0.028 H 
ENDBRANCH  33  39
ENDBRANCH   7  33
ENDBRANCH   4   7
ENDBRANCH   1   3
BRANCH   1  43
ATOM     43  C15 non d ame      -8.713   9.793  67.486  0.00  0.00     0.240 C 
ATOM     44  O5  non d ame      -8.016  10.361  68.263  0.00  0.00    -0.271 OA
ATOM     45  N6  non d ame      -9.527   8.627  67.935  0.00  0.00    -0.355 N 
ATOM     46  H46 non d ame     -10.126   8.139  67.286  0.00  0.00     0.162 HD
BRANCH  45  47
ATOM     47  C20 non d ame      -9.454   8.182  69.344  0.00  0.00     0.013 C 
ATOM     48  H30 non d ame      -8.922   8.947  69.910  0.00  0.00     0.072 H 
BRANCH  47  49
ATOM     49  C21 non d ame      -8.705   6.871  69.416  0.00  0.00    -0.038 C 
ATOM     50  H31 non d ame      -8.084   6.837  68.520  0.00  0.00     0.036 H 
ATOM     51  H32 non d ame      -8.241   6.851  70.402  0.00  0.00     0.036 H 
BRANCH  49  52
ATOM     52  C22 non d ame      -9.638   5.643  69.347  0.00  0.00     0.018 C 
ATOM     53  H33 non d ame      -9.224   4.917  70.048  0.00  0.00     0.048 H 
ATOM     54  H34 non d ame     -10.647   6.030  69.496  0.00  0.00     0.048 H 
BRANCH  52  55
ATOM     55  C23 non d ame      -9.649   4.941  67.961  0.00  0.00     0.259 C 
ATOM     56  O7  non d ame      -9.730   3.758  67.884  0.00  0.00    -0.265 OA
BRANCH  55  57
ATOM     57  O8  non d ame      -9.547   5.728  66.780  0.00  0.00    -0.317 OA
BRANCH  57  58
ATOM     58  C29 non d ame      -9.518   4.964  65.571  0.00  0.00     0.052 C 
ATOM     59  H47 non d ame      -9.463   3.921  65.883  0.00  0.00     0.082 H 
ATOM     60  H48 non d ame     -10.366   5.313  64.982  0.00  0.00     0.082 H 
BRANCH  58  61
ATOM     61  C35 non d ame      -8.213   5.320  64.811  0.00  0.00    -0.034 A 
ATOM     62  C30 non d ame      -7.026   5.505  65.513  0.00  0.00    -0.075 A 
ATOM     63  C31 non d ame      -5.854   5.824  64.830  0.00  0.00    -0.082 A 
ATOM     64  H49 non d ame      -7.015   5.399  66.598  0.00  0.00     0.084 H 
ATOM     65  C32 non d ame      -5.871   5.961  63.439  0.00  0.00    -0.083 A 
ATOM     66  H50 non d ame      -4.925   5.966  65.382  0.00  0.00     0.083 H 
ATOM     67  C33 non d ame      -7.058   5.778  62.743  0.00  0.00    -0.082 A 
ATOM     68  H51 non d ame      -4.959   6.210  62.897  0.00  0.00     0.083 H 
ATOM     69  C34 non d ame      -8.232   5.457  63.421  0.00  0.00    -0.075 A 
ATOM     70  H52 non d ame      -7.069   5.888  61.658  0.00  0.00     0.083 H 
ATOM     71  H53 non d ame      -9.161   5.314  62.868  0.00  0.00     0.084 H 
ENDBRANCH  58  61
ENDBRANCH  57  58
ENDBRANCH  55  57
ENDBRANCH  52  55
ENDBRANCH  49  52
ENDBRANCH  47  49
BRANCH  47  72
ATOM     72  C24 non d ame     -10.864   7.995  69.900  0.00  0.00    -0.039 C 
ATOM     73  H35 non d ame     -11.535   8.203  69.066  0.00  0.00     0.036 H 
ATOM     74  H36 non d ame     -10.864   7.009  70.366  0.00  0.00     0.036 H 
BRANCH  72  75
ATOM     75  C25 non d ame     -11.195   9.061  71.049  0.00  0.00    -0.001 C 
ATOM     76  C26 non d ame     -12.135   8.365  72.205  0.00  0.00    -0.035 C 
ATOM     77  C27 non d ame     -13.215   9.153  72.421  0.00  0.00     0.085 C 
ATOM     78  H38 non d ame     -12.566   7.438  71.828  0.00  0.00     0.036 H 
ATOM     79  H39 non d ame     -11.617   8.375  73.164  0.00  0.00     0.036 H 
ATOM     80  N5  non d ame     -13.266  10.152  71.291  0.00  0.00    -0.049 N 
ATOM     81  H40 non d ame     -14.078   8.490  72.349  0.00  0.00     0.075 H 
ATOM     82  H41 non d ame     -13.009   9.680  73.352  0.00  0.00     0.075 H 
ATOM     83  C28 non d ame     -11.822  10.083  70.572  0.00  0.00     0.193 C 
ATOM     84  H42 non d ame     -13.964   9.816  70.643  0.00  0.00     0.280 HD
ATOM     85  H43 non d ame     -13.369  11.062  71.718  0.00  0.00     0.280 HD
ATOM     86  H44 non d ame     -11.083  10.866  70.739  0.00  0.00     0.129 H 
ATOM     87  H37 non d ame     -10.305   9.593  71.387  0.00  0.00     0.046 H 
BRANCH  83  88
ATOM     88  O6  non d ame     -11.981  10.005  69.154  0.00  0.00    -0.369 OA
ATOM     89  H45 non d ame     -11.126  10.104  68.730  0.00  0.00     0.212 HD
ENDBRANCH  83  88
ENDBRANCH  72  75
ENDBRANCH  47  72
ENDBRANCH  45  47
ENDBRANCH   1  43
BRANCH   1  90
ATOM     90  C16 non d ame      -7.388  10.240  65.397  0.00  0.00    -0.035 C 
ATOM     91  H21 non d ame      -7.215  11.246  65.014  0.00  0.00     0.037 H 
ATOM     92  H22 non d ame      -6.740   9.835  66.175  0.00  0.00     0.037 H 
BRANCH  90  93
ATOM     93  C17 non d ame      -7.265   9.275  64.175  0.00  0.00    -0.059 C 
ATOM     94  H23 non d ame      -7.007   8.287  64.558  0.00  0.00     0.038 H 
BRANCH  93  95
ATOM     95  C18 non d ame      -8.609   9.145  63.388  0.00  0.00    -0.073 C 
ATOM     96  H24 non d ame      -9.440   9.118  64.093  0.00  0.00     0.028 H 
ATOM     97  H25 non d ame      -8.724  10.001  62.723  0.00  0.00     0.028 H 
ATOM     98  H26 non d ame      -8.599   8.227  62.801  0.00  0.00     0.028 H 
ENDBRANCH  93  95
BRANCH  93  99
ATOM     99  C19 non d ame      -6.130   9.712  63.245  0.00  0.00    -0.073 C 
ATOM    100  H27 non d ame      -5.203   9.222  63.547  0.00  0.00     0.028 H 
ATOM    101  H28 non d ame      -6.372   9.431  62.220  0.00  0.00     0.028 H 
ATOM    102  H29 non d ame      -6.006  10.793  63.306  0.00  0.00     0.028 H 
ENDBRANCH  93  99
ENDBRANCH  90  93
ENDBRANCH   1  90
TORSDOF 26
ENDMDL
MODEL 15
REMARK VINA RESULT:      -6.0      2.323      7.656
REMARK  26 active torsions:
REMARK  status: ('A' for Active; 'I' for Inactive)
REMARK    1  A    between atoms: C2_2  and  C3_3 
REMARK    2  A    between atoms: C4_6  and  C5_7 
REMARK       I    between atoms: C5_7  and  N2_9 
REMARK    3  A    between atoms: N2_9  and  C6_10 
REMARK    4  A    between atoms: C6_10  and  C7_11 
REMARK    5  A    between atoms: C6_10  and  C8_13 
REMARK       I    between atoms: C7_11  and  N3_14 
REMARK    6  A    between atoms: N3_14  and  C9_15 
REMARK    7  A    between atoms: C9_15  and  C10_16 
REMARK    8  A    between atoms: C9_15  and  C11_18 
REMARK       I    between atoms: C10_16  and  N4_21 
REMARK    9  A    between atoms: C11_18  and  C12_19 
REMARK   10  A    between atoms: C11_18  and  C13_20 
REMARK   11  A    between atoms: N4_21  and  C14_22 
REMARK   12  A    between atoms: C14_22  and  C15_23 
REMARK   13  A    between atoms: C14_22  and  C16_25 
REMARK       I    between atoms: C15_23  and  N6_40 
REMARK   14  A    between atoms: C16_25  and  C17_26 
REMARK   15  A    between atoms: C17_26  and  C18_27 
REMARK   16  A    between atoms: C17_26  and  C19_28 
REMARK   17  A    between atoms: C20_29  and  C21_30 
REMARK   18  A    between atoms: C20_29  and  C24_33 
REMARK   19  A    between atoms: C20_29  and  N6_40 
REMARK   20  A    between atoms: C21_30  and  C22_31 
REMARK   21  A    between atoms: C22_31  and  C23_32 
REMARK   22  A    between atoms: C23_32  and  O8_43 
REMARK   23  A    between atoms: C24_33  and  C25_34 
REMARK   24  A    between atoms: C28_38  and  O6_39 
REMARK   25  A    between atoms: C29_42  and  O8_43 
REMARK   26  A    between atoms: C29_42  and  C35_49 
ROOT
ATOM      1  C14 non d ame      -6.811  13.531  68.117  0.00  0.00     0.089 C 
ATOM      2  H20 non d ame      -6.194  13.457  67.222  0.00  0.00     0.087 H 
ENDROOT
BRANCH   1   3
ATOM      3  N4  non d ame      -7.087  14.942  68.344  0.00  0.00    -0.346 N 
ATOM      4  C10 non d ame      -6.249  16.000  67.672  0.00  0.00     0.241 C 
ATOM      5  O4  non d ame      -5.354  15.691  66.955  0.00  0.00    -0.271 OA
ATOM      6  H19 non d ame      -7.851  15.183  68.959  0.00  0.00     0.163 HD
BRANCH   4   7
ATOM      7  C9  non d ame      -6.552  17.455  67.913  0.00  0.00     0.092 C 
ATOM      8  H11 non d ame      -6.245  18.034  67.043  0.00  0.00     0.088 H 
BRANCH   7   9
ATOM      9  N3  non d ame      -8.000  17.634  68.064  0.00  0.00    -0.346 N 
ATOM     10  C7  non d ame      -8.828  17.818  66.897  0.00  0.00     0.240 C 
ATOM     11  O3  non d ame      -8.346  17.826  65.830  0.00  0.00    -0.271 OA
ATOM     12  H10 non d ame      -8.429  17.631  68.978  0.00  0.00     0.163 HD
BRANCH  10  13
ATOM     13  C6  non d ame     -10.367  18.011  67.064  0.00  0.00     0.086 C 
ATOM     14  H6  non d ame     -10.944  17.470  66.314  0.00  0.00     0.086 H 
BRANCH  13  15
ATOM     15  N2  non d ame     -10.771  17.487  68.357  0.00  0.00    -0.343 N 
ATOM     16  C5  non d ame     -11.287  16.119  68.452  0.00  0.00     0.273 C 
ATOM     17  O2  non d ame     -11.376  15.451  67.481  0.00  0.00    -0.266 OA
ATOM     18  H5  non d ame     -10.694  18.066  69.182  0.00  0.00     0.163 HD
BRANCH  16  19
ATOM     19  C4  non d ame     -11.716  15.551  69.814  0.00  0.00     0.154 A 
ATOM     20  C1  non d ame     -11.689  16.221  71.078  0.00  0.00    -0.017 A 
ATOM     21  C2  non d ame     -12.181  15.272  72.002  0.00  0.00     0.077 A 
ATOM     22  H1  non d ame     -11.363  17.239  71.291  0.00  0.00     0.091 H 
ATOM     23  O1  non d ame     -12.456  14.189  71.337  0.00  0.00    -0.218 OA
ATOM     24  N1  non d ame     -12.193  14.327  70.058  0.00  0.00    -0.123 NA
BRANCH  21  25
ATOM     25  C3  non d ame     -12.356  15.481  73.501  0.00  0.00    -0.029 C 
ATOM     26  H2  non d ame     -13.051  14.738  73.893  0.00  0.00     0.036 H 
ATOM     27  H3  non d ame     -11.392  15.375  73.998  0.00  0.00     0.036 H 
ATOM     28  H4  non d ame     -12.751  16.481  73.685  0.00  0.00     0.036 H 
ENDBRANCH  21  25
ENDBRANCH  16  19
ENDBRANCH  13  15
BRANCH  13  29
ATOM     29  C8  non d ame     -10.705  19.478  66.973  0.00  0.00    -0.049 C 
ATOM     30  H7  non d ame     -11.694  19.596  66.531  0.00  0.00     0.030 H 
ATOM     31  H8  non d ame     -10.698  19.915  67.971  0.00  0.00     0.030 H 
ATOM     32  H9  non d ame      -9.967  19.982  66.350  0.00  0.00     0.030 H 
ENDBRANCH  13  29
ENDBRANCH  10  13
ENDBRANCH   7   9
BRANCH   7  33
ATOM     33  C11 non d ame      -5.837  17.926  69.213  0.00  0.00    -0.033 C 
ATOM     34  H12 non d ame      -6.089  17.217  70.002  0.00  0.00     0.042 H 
BRANCH  33  35
ATOM     35  C12 non d ame      -4.285  17.909  69.046  0.00  0.00    -0.071 C 
ATOM     36  H13 non d ame      -4.004  17.120  68.347  0.00  0.00     0.028 H 
ATOM     37  H14 non d ame      -3.951  18.871  68.659  0.00  0.00     0.028 H 
ATOM     38  H15 non d ame      -3.818  17.723  70.012  0.00  0.00     0.028 H 
ENDBRANCH  33  35
BRANCH  33  39
ATOM     39  C13 non d ame      -6.344  19.337  69.651  0.00  0.00    -0.071 C 
ATOM     40  H16 non d ame      -5.924  19.588  70.625  0.00  0.00     0.028 H 
ATOM     41  H17 non d ame      -6.029  20.080  68.918  0.00  0.00     0.028 H 
ATOM     42  H18 non d ame      -7.432  19.328  69.716  0.00  0.00     0.028 H 
ENDBRANCH  33  39
ENDBRANCH   7  33
ENDBRANCH   4   7
ENDBRANCH   1   3
BRANCH   1  43
ATOM     43  C15 non d ame      -8.164  12.780  67.962  0.00  0.00     0.240 C 
ATOM     44  O5  non d ame      -9.163  13.268  68.382  0.00  0.00    -0.271 OA
ATOM     45  N6  non d ame      -8.216  11.455  67.280  0.00  0.00    -0.355 N 
ATOM     46  H46 non d ame      -7.375  11.032  66.915  0.00  0.00     0.162 HD
BRANCH  45  47
ATOM     47  C20 non d ame      -9.511  10.754  67.139  0.00  0.00     0.013 C 
ATOM     48  H30 non d ame     -10.297  11.430  67.476  0.00  0.00     0.072 H 
BRANCH  47  49
ATOM     49  C21 non d ame      -9.500   9.507  67.994  0.00  0.00    -0.038 C 
ATOM     50  H31 non d ame     -10.429   8.984  67.764  0.00  0.00     0.036 H 
ATOM     51  H32 non d ame      -8.541   9.027  67.801  0.00  0.00     0.036 H 
BRANCH  49  52
ATOM     52  C22 non d ame      -9.537   9.817  69.506  0.00  0.00     0.018 C 
ATOM     53  H33 non d ame      -8.657   9.333  69.929  0.00  0.00     0.048 H 
ATOM     54  H34 non d ame      -9.654  10.899  69.583  0.00  0.00     0.048 H 
BRANCH  52  55
ATOM     55  C23 non d ame     -10.760   9.202  70.242  0.00  0.00     0.259 C 
ATOM     56  O7  non d ame     -11.776   9.809  70.336  0.00  0.00    -0.265 OA
BRANCH  55  57
ATOM     57  O8  non d ame     -10.647   7.905  70.816  0.00  0.00    -0.317 OA
BRANCH  57  58
ATOM     58  C29 non d ame     -11.609   6.966  70.327  0.00  0.00     0.052 C 
ATOM     59  H47 non d ame     -11.875   6.344  71.181  0.00  0.00     0.082 H 
ATOM     60  H48 non d ame     -12.373   7.560  69.826  0.00  0.00     0.082 H 
BRANCH  58  61
ATOM     61  C35 non d ame     -10.910   6.072  69.267  0.00  0.00    -0.034 A 
ATOM     62  C30 non d ame     -10.079   5.033  69.672  0.00  0.00    -0.075 A 
ATOM     63  C31 non d ame      -9.451   4.230  68.721  0.00  0.00    -0.082 A 
ATOM     64  H49 non d ame      -9.919   4.847  70.734  0.00  0.00     0.084 H 
ATOM     65  C32 non d ame      -9.655   4.472  67.359  0.00  0.00    -0.083 A 
ATOM     66  H50 non d ame      -8.802   3.415  69.041  0.00  0.00     0.083 H 
ATOM     67  C33 non d ame     -10.483   5.513  66.960  0.00  0.00    -0.082 A 
ATOM     68  H51 non d ame      -9.168   3.849  66.609  0.00  0.00     0.083 H 
ATOM     69  C34 non d ame     -11.114   6.316  67.908  0.00  0.00    -0.075 A 
ATOM     70  H52 non d ame     -10.638   5.700  65.898  0.00  0.00     0.083 H 
ATOM     71  H53 non d ame     -11.763   7.131  67.587  0.00  0.00     0.084 H 
ENDBRANCH  58  61
ENDBRANCH  57  58
ENDBRANCH  55  57
ENDBRANCH  52  55
ENDBRANCH  49  52
ENDBRANCH  47  49
BRANCH  47  72
ATOM     72  C24 non d ame      -9.733  10.369  65.678  0.00  0.00    -0.039 C 
ATOM     73  H35 non d ame      -8.768  10.003  65.325  0.00  0.00     0.036 H 
ATOM     74  H36 non d ame     -10.598   9.706  65.681  0.00  0.00     0.036 H 
BRANCH  72  75
ATOM     75  C25 non d ame     -10.114  11.640  64.781  0.00  0.00    -0.001 C 
ATOM     76  C26 non d ame     -11.471  12.356  65.372  0.00  0.00    -0.035 C 
ATOM     77  C27 non d ame     -12.358  12.513  64.361  0.00  0.00     0.085 C 
ATOM     78  H38 non d ame     -11.982  11.680  66.057  0.00  0.00     0.036 H 
ATOM     79  H39 non d ame     -11.251  13.379  65.679  0.00  0.00     0.036 H 
ATOM     80  N5  non d ame     -11.863  11.676  63.206  0.00  0.00    -0.049 N 
ATOM     81  H40 non d ame     -13.296  12.094  64.728  0.00  0.00     0.075 H 
ATOM     82  H41 non d ame     -12.303  13.566  64.086  0.00  0.00     0.075 H 
ATOM     83  C28 non d ame     -10.333  11.298  63.555  0.00  0.00     0.193 C 
ATOM     84  H42 non d ame     -12.413  10.829  63.210  0.00  0.00     0.280 HD
ATOM     85  H43 non d ame     -11.869  12.277  62.394  0.00  0.00     0.280 HD
ATOM     86  H44 non d ame      -9.509  11.809  63.056  0.00  0.00     0.129 H 
ATOM     87  H37 non d ame      -9.256  12.284  64.592  0.00  0.00     0.046 H 
BRANCH  83  88
ATOM     88  O6  non d ame     -10.107   9.905  63.335  0.00  0.00    -0.369 OA
ATOM     89  H45 non d ame     -10.767   9.395  63.811  0.00  0.00     0.212 HD
ENDBRANCH  83  88
ENDBRANCH  72  75
ENDBRANCH  47  72
ENDBRANCH  45  47
ENDBRANCH   1  43
BRANCH   1  90
ATOM     90  C16 non d ame      -6.053  12.976  69.313  0.00  0.00    -0.035 C 
ATOM     91  H21 non d ame      -6.813  12.537  69.959  0.00  0.00     0.037 H 
ATOM     92  H22 non d ame      -5.268  12.348  68.890  0.00  0.00     0.037 H 
BRANCH  90  93
ATOM     93  C17 non d ame      -5.332  14.071  70.161  0.00  0.00    -0.059 C 
ATOM     94  H23 non d ame      -5.727  15.040  69.855  0.00  0.00     0.038 H 
BRANCH  93  95
ATOM     95  C18 non d ame      -5.606  13.907  71.691  0.00  0.00    -0.073 C 
ATOM     96  H24 non d ame      -4.835  13.277  72.132  0.00  0.00     0.028 H 
ATOM     97  H25 non d ame      -5.594  14.887  72.169  0.00  0.00     0.028 H 
ATOM     98  H26 non d ame      -6.582  13.444  71.837  0.00  0.00     0.028 H 
ENDBRANCH  93  95
BRANCH  93  99
ATOM     99  C19 non d ame      -3.828  14.082  69.876  0.00  0.00    -0.073 C 
ATOM    100  H27 non d ame      -3.657  13.867  68.821  0.00  0.00     0.028 H 
ATOM    101  H28 non d ame      -3.420  15.064  70.117  0.00  0.00     0.028 H 
ATOM    102  H29 non d ame      -3.337  13.325  70.486  0.00  0.00     0.028 H 
ENDBRANCH  93  99
ENDBRANCH  90  93
ENDBRANCH   1  90
TORSDOF 26
ENDMDL
MODEL 16
REMARK VINA RESULT:      -5.9      2.135      6.786
REMARK  26 active torsions:
REMARK  status: ('A' for Active; 'I' for Inactive)
REMARK    1  A    between atoms: C2_2  and  C3_3 
REMARK    2  A    between atoms: C4_6  and  C5_7 
REMARK       I    between atoms: C5_7  and  N2_9 
REMARK    3  A    between atoms: N2_9  and  C6_10 
REMARK    4  A    between atoms: C6_10  and  C7_11 
REMARK    5  A    between atoms: C6_10  and  C8_13 
REMARK       I    between atoms: C7_11  and  N3_14 
REMARK    6  A    between atoms: N3_14  and  C9_15 
REMARK    7  A    between atoms: C9_15  and  C10_16 
REMARK    8  A    between atoms: C9_15  and  C11_18 
REMARK       I    between atoms: C10_16  and  N4_21 
REMARK    9  A    between atoms: C11_18  and  C12_19 
REMARK   10  A    between atoms: C11_18  and  C13_20 
REMARK   11  A    between atoms: N4_21  and  C14_22 
REMARK   12  A    between atoms: C14_22  and  C15_23 
REMARK   13  A    between atoms: C14_22  and  C16_25 
REMARK       I    between atoms: C15_23  and  N6_40 
REMARK   14  A    between atoms: C16_25  and  C17_26 
REMARK   15  A    between atoms: C17_26  and  C18_27 
REMARK   16  A    between atoms: C17_26  and  C19_28 
REMARK   17  A    between atoms: C20_29  and  C21_30 
REMARK   18  A    between atoms: C20_29  and  C24_33 
REMARK   19  A    between atoms: C20_29  and  N6_40 
REMARK   20  A    between atoms: C21_30  and  C22_31 
REMARK   21  A    between atoms: C22_31  and  C23_32 
REMARK   22  A    between atoms: C23_32  and  O8_43 
REMARK   23  A    between atoms: C24_33  and  C25_34 
REMARK   24  A    between atoms: C28_38  and  O6_39 
REMARK   25  A    between atoms: C29_42  and  O8_43 
REMARK   26  A    between atoms: C29_42  and  C35_49 
ROOT
ATOM      1  C14 non d ame     -11.643  15.228  70.174  0.00  0.00     0.089 C 
ATOM      2  H20 non d ame     -12.655  15.483  69.859  0.00  0.00     0.087 H 
ENDROOT
BRANCH   1   3
ATOM      3  N4  non d ame     -11.418  13.830  69.835  0.00  0.00    -0.346 N 
ATOM      4  C10 non d ame     -11.845  13.294  68.492  0.00  0.00     0.241 C 
ATOM      5  O4  non d ame     -12.371  14.006  67.701  0.00  0.00    -0.271 OA
ATOM      6  H19 non d ame     -10.971  13.241  70.523  0.00  0.00     0.163 HD
BRANCH   4   7
ATOM      7  C9  non d ame     -11.599  11.847  68.155  0.00  0.00     0.092 C 
ATOM      8  H11 non d ame     -12.531  11.393  67.819  0.00  0.00     0.088 H 
BRANCH   7   9
ATOM      9  N3  non d ame     -10.648  11.758  67.043  0.00  0.00    -0.346 N 
ATOM     10  C7  non d ame     -11.128  11.749  65.683  0.00  0.00     0.240 C 
ATOM     11  O3  non d ame     -12.277  11.811  65.466  0.00  0.00    -0.271 OA
ATOM     12  H10 non d ame      -9.654  11.702  67.215  0.00  0.00     0.163 HD
BRANCH  10  13
ATOM     13  C6  non d ame     -10.112  11.651  64.504  0.00  0.00     0.086 C 
ATOM     14  H6  non d ame      -9.274  12.340  64.612  0.00  0.00     0.086 H 
BRANCH  13  15
ATOM     15  N2  non d ame      -9.548  10.311  64.477  0.00  0.00    -0.343 N 
ATOM     16  C5  non d ame      -8.319  10.031  65.222  0.00  0.00     0.273 C 
ATOM     17  O2  non d ame      -7.789  10.890  65.837  0.00  0.00    -0.266 OA
ATOM     18  H5  non d ame     -10.006   9.584  63.947  0.00  0.00     0.163 HD
BRANCH  16  19
ATOM     19  C4  non d ame      -7.713   8.619  65.204  0.00  0.00     0.154 A 
ATOM     20  C1  non d ame      -6.855   8.059  64.204  0.00  0.00    -0.017 A 
ATOM     21  C2  non d ame      -6.582   6.747  64.653  0.00  0.00     0.077 A 
ATOM     22  H1  non d ame      -6.488   8.531  63.293  0.00  0.00     0.091 H 
ATOM     23  O1  non d ame      -7.212   6.585  65.780  0.00  0.00    -0.218 OA
ATOM     24  N1  non d ame      -7.879   7.663  66.121  0.00  0.00    -0.123 NA
BRANCH  21  25
ATOM     25  C3  non d ame      -5.710   5.717  63.949  0.00  0.00    -0.029 C 
ATOM     26  H2  non d ame      -5.810   5.832  62.869  0.00  0.00     0.036 H 
ATOM     27  H3  non d ame      -4.669   5.865  64.235  0.00  0.00     0.036 H 
ATOM     28  H4  non d ame      -6.026   4.714  64.238  0.00  0.00     0.036 H 
ENDBRANCH  21  25
ENDBRANCH  16  19
ENDBRANCH  13  15
BRANCH  13  29
ATOM     29  C8  non d ame     -10.817  11.941  63.203  0.00  0.00    -0.049 C 
ATOM     30  H7  non d ame     -10.108  11.860  62.379  0.00  0.00     0.030 H 
ATOM     31  H8  non d ame     -11.624  11.223  63.060  0.00  0.00     0.030 H 
ATOM     32  H9  non d ame     -11.227  12.950  63.230  0.00  0.00     0.030 H 
ENDBRANCH  13  29
ENDBRANCH  10  13
ENDBRANCH   7   9
BRANCH   7  33
ATOM     33  C11 non d ame     -11.009  11.119  69.398  0.00  0.00    -0.033 C 
ATOM     34  H12 non d ame     -10.490  11.864  70.001  0.00  0.00     0.042 H 
BRANCH  33  35
ATOM     35  C12 non d ame     -12.136  10.502  70.284  0.00  0.00    -0.071 C 
ATOM     36  H13 non d ame     -12.898  11.256  70.479  0.00  0.00     0.028 H 
ATOM     37  H14 non d ame     -12.586   9.657  69.762  0.00  0.00     0.028 H 
ATOM     38  H15 non d ame     -11.710  10.161  71.228  0.00  0.00     0.028 H 
ENDBRANCH  33  35
BRANCH  33  39
ATOM     39  C13 non d ame      -9.968  10.035  68.970  0.00  0.00    -0.071 C 
ATOM     40  H16 non d ame     -10.051   9.855  67.898  0.00  0.00     0.028 H 
ATOM     41  H17 non d ame      -8.962  10.385  69.203  0.00  0.00     0.028 H 
ATOM     42  H18 non d ame     -10.164   9.109  69.510  0.00  0.00     0.028 H 
ENDBRANCH  33  39
ENDBRANCH   7  33
ENDBRANCH   4   7
ENDBRANCH   1   3
BRANCH   1  43
ATOM     43  C15 non d ame     -10.568  16.092  69.454  0.00  0.00     0.240 C 
ATOM     44  O5  non d ame     -10.398  17.220  69.785  0.00  0.00    -0.271 OA
ATOM     45  N6  non d ame      -9.744  15.509  68.357  0.00  0.00    -0.355 N 
ATOM     46  H46 non d ame      -9.876  14.550  68.070  0.00  0.00     0.162 HD
BRANCH  45  47
ATOM     47  C20 non d ame      -8.725  16.343  67.684  0.00  0.00     0.013 C 
ATOM     48  H30 non d ame      -8.659  17.289  68.220  0.00  0.00     0.072 H 
BRANCH  47  49
ATOM     49  C21 non d ame      -9.147  16.588  66.253  0.00  0.00    -0.038 C 
ATOM     50  H31 non d ame      -8.374  17.227  65.823  0.00  0.00     0.036 H 
ATOM     51  H32 non d ame      -9.337  15.602  65.829  0.00  0.00     0.036 H 
BRANCH  49  52
ATOM     52  C22 non d ame     -10.472  17.373  66.144  0.00  0.00     0.018 C 
ATOM     53  H33 non d ame     -10.693  17.434  65.078  0.00  0.00     0.048 H 
ATOM     54  H34 non d ame     -11.168  16.871  66.817  0.00  0.00     0.048 H 
BRANCH  52  55
ATOM     55  C23 non d ame     -10.374  18.840  66.646  0.00  0.00     0.259 C 
ATOM     56  O7  non d ame     -11.225  19.300  67.335  0.00  0.00    -0.265 OA
BRANCH  55  57
ATOM     57  O8  non d ame      -9.259  19.635  66.261  0.00  0.00    -0.317 OA
BRANCH  57  58
ATOM     58  C29 non d ame      -8.688  20.395  67.331  0.00  0.00     0.052 C 
ATOM     59  H47 non d ame      -8.415  21.356  66.896  0.00  0.00     0.082 H 
ATOM     60  H48 non d ame      -9.413  20.351  68.143  0.00  0.00     0.082 H 
BRANCH  58  61
ATOM     61  C35 non d ame      -7.392  19.676  67.790  0.00  0.00    -0.034 A 
ATOM     62  C30 non d ame      -6.425  19.319  66.856  0.00  0.00    -0.075 A 
ATOM     63  C31 non d ame      -5.260  18.673  67.268  0.00  0.00    -0.082 A 
ATOM     64  H49 non d ame      -6.580  19.544  65.801  0.00  0.00     0.084 H 
ATOM     65  C32 non d ame      -5.065  18.383  68.621  0.00  0.00    -0.083 A 
ATOM     66  H50 non d ame      -4.504  18.396  66.534  0.00  0.00     0.083 H 
ATOM     67  C33 non d ame      -6.034  18.739  69.549  0.00  0.00    -0.082 A 
ATOM     68  H51 non d ame      -4.157  17.879  68.952  0.00  0.00     0.083 H 
ATOM     69  C34 non d ame      -7.199  19.386  69.142  0.00  0.00    -0.075 A 
ATOM     70  H52 non d ame      -5.880  18.509  70.604  0.00  0.00     0.083 H 
ATOM     71  H53 non d ame      -7.954  19.663  69.877  0.00  0.00     0.084 H 
ENDBRANCH  58  61
ENDBRANCH  57  58
ENDBRANCH  55  57
ENDBRANCH  52  55
ENDBRANCH  49  52
ENDBRANCH  47  49
BRANCH  47  72
ATOM     72  C24 non d ame      -7.377  15.626  67.703  0.00  0.00    -0.039 C 
ATOM     73  H35 non d ame      -7.310  15.108  66.746  0.00  0.00     0.036 H 
ATOM     74  H36 non d ame      -6.645  16.392  67.959  0.00  0.00     0.036 H 
BRANCH  72  75
ATOM     75  C25 non d ame      -7.315  14.510  68.850  0.00  0.00    -0.001 C 
ATOM     76  C26 non d ame      -6.241  14.960  70.011  0.00  0.00    -0.035 C 
ATOM     77  C27 non d ame      -5.380  13.937  70.229  0.00  0.00     0.085 C 
ATOM     78  H38 non d ame      -5.600  15.758  69.639  0.00  0.00     0.036 H 
ATOM     79  H39 non d ame      -6.751  15.072  70.969  0.00  0.00     0.036 H 
ATOM     80  N5  non d ame      -5.563  12.957  69.096  0.00  0.00    -0.049 N 
ATOM     81  H40 non d ame      -4.384  14.376  70.163  0.00  0.00     0.075 H 
ATOM     82  H41 non d ame      -5.710  13.472  71.158  0.00  0.00     0.075 H 
ATOM     83  C28 non d ame      -6.946  13.368  68.372  0.00  0.00     0.193 C 
ATOM     84  H42 non d ame      -4.802  13.118  68.452  0.00  0.00     0.280 HD
ATOM     85  H43 non d ame      -5.681  12.048  69.521  0.00  0.00     0.280 HD
ATOM     86  H44 non d ame      -7.851  12.784  68.534  0.00  0.00     0.129 H 
ATOM     87  H37 non d ame      -8.307  14.204  69.183  0.00  0.00     0.046 H 
BRANCH  83  88
ATOM     88  O6  non d ame      -6.766  13.410  66.955  0.00  0.00    -0.369 OA
ATOM     89  H45 non d ame      -6.041  14.000  66.742  0.00  0.00     0.212 HD
ENDBRANCH  83  88
ENDBRANCH  72  75
ENDBRANCH  47  72
ENDBRANCH  45  47
ENDBRANCH   1  43
BRANCH   1  90
ATOM     90  C16 non d ame     -11.514  15.400  71.679  0.00  0.00    -0.035 C 
ATOM     91  H21 non d ame     -10.944  14.535  72.021  0.00  0.00     0.037 H 
ATOM     92  H22 non d ame     -11.116  16.405  71.821  0.00  0.00     0.037 H 
BRANCH  90  93
ATOM     93  C17 non d ame     -12.880  15.355  72.434  0.00  0.00    -0.059 C 
ATOM     94  H23 non d ame     -13.574  16.005  71.902  0.00  0.00     0.038 H 
BRANCH  93  95
ATOM     95  C18 non d ame     -13.494  13.918  72.457  0.00  0.00    -0.073 C 
ATOM     96  H24 non d ame     -12.953  13.304  73.176  0.00  0.00     0.028 H 
ATOM     97  H25 non d ame     -14.544  13.976  72.746  0.00  0.00     0.028 H 
ATOM     98  H26 non d ame     -13.414  13.474  71.465  0.00  0.00     0.028 H 
ENDBRANCH  93  95
BRANCH  93  99
ATOM     99  C19 non d ame     -12.738  15.909  73.855  0.00  0.00    -0.073 C 
ATOM    100  H27 non d ame     -13.599  16.535  74.089  0.00  0.00     0.028 H 
ATOM    101  H28 non d ame     -12.686  15.082  74.563  0.00  0.00     0.028 H 
ATOM    102  H29 non d ame     -11.827  16.503  73.923  0.00  0.00     0.028 H 
ENDBRANCH  93  99
ENDBRANCH  90  93
ENDBRANCH   1  90
TORSDOF 26
ENDMDL
MODEL 17
REMARK VINA RESULT:      -5.9      3.472      9.030
REMARK  26 active torsions:
REMARK  status: ('A' for Active; 'I' for Inactive)
REMARK    1  A    between atoms: C2_2  and  C3_3 
REMARK    2  A    between atoms: C4_6  and  C5_7 
REMARK       I    between atoms: C5_7  and  N2_9 
REMARK    3  A    between atoms: N2_9  and  C6_10 
REMARK    4  A    between atoms: C6_10  and  C7_11 
REMARK    5  A    between atoms: C6_10  and  C8_13 
REMARK       I    between atoms: C7_11  and  N3_14 
REMARK    6  A    between atoms: N3_14  and  C9_15 
REMARK    7  A    between atoms: C9_15  and  C10_16 
REMARK    8  A    between atoms: C9_15  and  C11_18 
REMARK       I    between atoms: C10_16  and  N4_21 
REMARK    9  A    between atoms: C11_18  and  C12_19 
REMARK   10  A    between atoms: C11_18  and  C13_20 
REMARK   11  A    between atoms: N4_21  and  C14_22 
REMARK   12  A    between atoms: C14_22  and  C15_23 
REMARK   13  A    between atoms: C14_22  and  C16_25 
REMARK       I    between atoms: C15_23  and  N6_40 
REMARK   14  A    between atoms: C16_25  and  C17_26 
REMARK   15  A    between atoms: C17_26  and  C18_27 
REMARK   16  A    between atoms: C17_26  and  C19_28 
REMARK   17  A    between atoms: C20_29  and  C21_30 
REMARK   18  A    between atoms: C20_29  and  C24_33 
REMARK   19  A    between atoms: C20_29  and  N6_40 
REMARK   20  A    between atoms: C21_30  and  C22_31 
REMARK   21  A    between atoms: C22_31  and  C23_32 
REMARK   22  A    between atoms: C23_32  and  O8_43 
REMARK   23  A    between atoms: C24_33  and  C25_34 
REMARK   24  A    between atoms: C28_38  and  O6_39 
REMARK   25  A    between atoms: C29_42  and  O8_43 
REMARK   26  A    between atoms: C29_42  and  C35_49 
ROOT
ATOM      1  C14 non d ame      -8.308   8.563  63.033  0.00  0.00     0.089 C 
ATOM      2  H20 non d ame      -9.191   8.847  62.458  0.00  0.00     0.087 H 
ENDROOT
BRANCH   1   3
ATOM      3  N4  non d ame      -8.375   9.256  64.311  0.00  0.00    -0.346 N 
ATOM      4  C10 non d ame      -9.470  10.258  64.577  0.00  0.00     0.241 C 
ATOM      5  O4  non d ame     -10.284  10.493  63.746  0.00  0.00    -0.271 OA
ATOM      6  H19 non d ame      -7.672   9.044  65.004  0.00  0.00     0.163 HD
BRANCH   4   7
ATOM      7  C9  non d ame      -9.528  10.962  65.907  0.00  0.00     0.092 C 
ATOM      8  H11 non d ame      -8.578  11.465  66.089  0.00  0.00     0.088 H 
BRANCH   7   9
ATOM      9  N3  non d ame     -10.566  11.997  65.869  0.00  0.00    -0.346 N 
ATOM     10  C7  non d ame     -10.282  13.320  66.368  0.00  0.00     0.240 C 
ATOM     11  O3  non d ame      -9.226  13.569  66.805  0.00  0.00    -0.271 OA
ATOM     12  H10 non d ame     -11.483  11.797  65.496  0.00  0.00     0.163 HD
BRANCH  10  13
ATOM     13  C6  non d ame     -11.392  14.416  66.327  0.00  0.00     0.086 C 
ATOM     14  H6  non d ame     -11.951  14.485  67.260  0.00  0.00     0.086 H 
BRANCH  13  15
ATOM     15  N2  non d ame     -10.767  15.712  66.121  0.00  0.00    -0.343 N 
ATOM     16  C5  non d ame     -10.652  16.645  67.244  0.00  0.00     0.273 C 
ATOM     17  O2  non d ame     -11.068  16.344  68.309  0.00  0.00    -0.266 OA
ATOM     18  H5  non d ame     -10.416  15.962  65.207  0.00  0.00     0.163 HD
BRANCH  16  19
ATOM     19  C4  non d ame      -9.992  18.017  67.041  0.00  0.00     0.154 A 
ATOM     20  C1  non d ame      -8.721  18.448  67.538  0.00  0.00    -0.017 A 
ATOM     21  C2  non d ame      -8.581  19.776  67.078  0.00  0.00     0.077 A 
ATOM     22  H1  non d ame      -8.009  17.883  68.140  0.00  0.00     0.091 H 
ATOM     23  O1  non d ame      -9.651  20.064  66.396  0.00  0.00    -0.218 OA
ATOM     24  N1  non d ame     -10.489  19.054  66.361  0.00  0.00    -0.123 NA
BRANCH  21  25
ATOM     25  C3  non d ame      -7.396  20.698  67.332  0.00  0.00    -0.029 C 
ATOM     26  H2  non d ame      -6.642  20.170  67.916  0.00  0.00     0.036 H 
ATOM     27  H3  non d ame      -6.967  21.008  66.379  0.00  0.00     0.036 H 
ATOM     28  H4  non d ame      -7.731  21.578  67.882  0.00  0.00     0.036 H 
ENDBRANCH  21  25
ENDBRANCH  16  19
ENDBRANCH  13  15
BRANCH  13  29
ATOM     29  C8  non d ame     -12.352  14.122  65.203  0.00  0.00    -0.049 C 
ATOM     30  H7  non d ame     -12.915  13.217  65.434  0.00  0.00     0.030 H 
ATOM     31  H8  non d ame     -13.041  14.958  65.085  0.00  0.00     0.030 H 
ATOM     32  H9  non d ame     -11.795  13.975  64.278  0.00  0.00     0.030 H 
ENDBRANCH  13  29
ENDBRANCH  10  13
ENDBRANCH   7   9
BRANCH   7  33
ATOM     33  C11 non d ame      -9.868   9.932  67.024  0.00  0.00    -0.033 C 
ATOM     34  H12 non d ame      -9.968   8.955  66.551  0.00  0.00     0.042 H 
BRANCH  33  35
ATOM     35  C12 non d ame      -8.716   9.829  68.072  0.00  0.00    -0.071 C 
ATOM     36  H13 non d ame      -8.519  10.815  68.493  0.00  0.00     0.028 H 
ATOM     37  H14 non d ame      -9.010   9.146  68.869  0.00  0.00     0.028 H 
ATOM     38  H15 non d ame      -7.816   9.455  67.586  0.00  0.00     0.028 H 
ENDBRANCH  33  35
BRANCH  33  39
ATOM     39  C13 non d ame     -11.228  10.279  67.710  0.00  0.00    -0.071 C 
ATOM     40  H16 non d ame     -12.037   9.758  67.198  0.00  0.00     0.028 H 
ATOM     41  H17 non d ame     -11.199   9.967  68.754  0.00  0.00     0.028 H 
ATOM     42  H18 non d ame     -11.397  11.354  67.657  0.00  0.00     0.028 H 
ENDBRANCH  33  39
ENDBRANCH   7  33
ENDBRANCH   4   7
ENDBRANCH   1   3
BRANCH   1  43
ATOM     43  C15 non d ame      -8.249   7.032  63.301  0.00  0.00     0.240 C 
ATOM     44  O5  non d ame      -7.862   6.297  62.451  0.00  0.00    -0.271 OA
ATOM     45  N6  non d ame      -8.667   6.483  64.623  0.00  0.00    -0.355 N 
ATOM     46  H46 non d ame      -8.993   7.098  65.354  0.00  0.00     0.162 HD
BRANCH  45  47
ATOM     47  C20 non d ame      -8.604   5.025  64.863  0.00  0.00     0.013 C 
ATOM     48  H30 non d ame      -8.355   4.540  63.920  0.00  0.00     0.072 H 
BRANCH  47  49
ATOM     49  C21 non d ame      -9.949   4.541  65.354  0.00  0.00    -0.038 C 
ATOM     50  H31 non d ame     -10.672   5.279  65.008  0.00  0.00     0.036 H 
ATOM     51  H32 non d ame     -10.027   3.504  65.024  0.00  0.00     0.036 H 
BRANCH  49  52
ATOM     52  C22 non d ame     -10.052   4.517  66.895  0.00  0.00     0.018 C 
ATOM     53  H33 non d ame     -10.870   3.834  67.126  0.00  0.00     0.048 H 
ATOM     54  H34 non d ame      -9.045   4.304  67.255  0.00  0.00     0.048 H 
BRANCH  52  55
ATOM     55  C23 non d ame     -10.448   5.885  67.517  0.00  0.00     0.259 C 
ATOM     56  O7  non d ame     -11.144   6.641  66.919  0.00  0.00    -0.265 OA
BRANCH  55  57
ATOM     57  O8  non d ame      -9.960   6.231  68.807  0.00  0.00    -0.317 OA
BRANCH  57  58
ATOM     58  C29 non d ame     -10.773   5.757  69.884  0.00  0.00     0.052 C 
ATOM     59  H47 non d ame     -11.570   5.178  69.419  0.00  0.00     0.082 H 
ATOM     60  H48 non d ame     -10.087   5.277  70.582  0.00  0.00     0.082 H 
BRANCH  58  61
ATOM     61  C35 non d ame     -11.404   6.989  70.585  0.00  0.00    -0.034 A 
ATOM     62  C30 non d ame     -12.684   6.904  71.124  0.00  0.00    -0.075 A 
ATOM     63  C31 non d ame     -13.252   8.010  71.754  0.00  0.00    -0.082 A 
ATOM     64  H49 non d ame     -13.242   5.970  71.053  0.00  0.00     0.084 H 
ATOM     65  C32 non d ame     -12.536   9.207  71.841  0.00  0.00    -0.083 A 
ATOM     66  H50 non d ame     -14.254   7.940  72.177  0.00  0.00     0.083 H 
ATOM     67  C33 non d ame     -11.260   9.289  71.299  0.00  0.00    -0.082 A 
ATOM     68  H51 non d ame     -12.972  10.077  72.333  0.00  0.00     0.083 H 
ATOM     69  C34 non d ame     -10.688   8.185  70.671  0.00  0.00    -0.075 A 
ATOM     70  H52 non d ame     -10.705  10.224  71.367  0.00  0.00     0.083 H 
ATOM     71  H53 non d ame      -9.685   8.256  70.249  0.00  0.00     0.084 H 
ENDBRANCH  58  61
ENDBRANCH  57  58
ENDBRANCH  55  57
ENDBRANCH  52  55
ENDBRANCH  49  52
ENDBRANCH  47  49
BRANCH  47  72
ATOM     72  C24 non d ame      -7.538   4.720  65.914  0.00  0.00    -0.039 C 
ATOM     73  H35 non d ame      -8.057   4.752  66.872  0.00  0.00     0.036 H 
ATOM     74  H36 non d ame      -7.060   3.798  65.583  0.00  0.00     0.036 H 
BRANCH  72  75
ATOM     75  C25 non d ame      -6.405   5.852  65.954  0.00  0.00    -0.001 C 
ATOM     76  C26 non d ame      -5.032   5.296  65.239  0.00  0.00    -0.035 C 
ATOM     77  C27 non d ame      -3.989   5.499  66.079  0.00  0.00     0.085 C 
ATOM     78  H38 non d ame      -5.074   4.211  65.142  0.00  0.00     0.036 H 
ATOM     79  H39 non d ame      -4.786   5.911  64.373  0.00  0.00     0.036 H 
ATOM     80  N5  non d ame      -4.570   5.842  67.429  0.00  0.00    -0.049 N 
ATOM     81  H40 non d ame      -3.477   4.538  66.146  0.00  0.00     0.075 H 
ATOM     82  H41 non d ame      -3.465   6.370  65.686  0.00  0.00     0.075 H 
ATOM     83  C28 non d ame      -6.125   6.191  67.168  0.00  0.00     0.193 C 
ATOM     84  H42 non d ame      -4.519   5.000  67.985  0.00  0.00     0.280 HD
ATOM     85  H43 non d ame      -4.100   6.681  67.738  0.00  0.00     0.280 HD
ATOM     86  H44 non d ame      -6.468   7.226  67.169  0.00  0.00     0.129 H 
ATOM     87  H37 non d ame      -6.778   6.822  65.624  0.00  0.00     0.046 H 
BRANCH  83  88
ATOM     88  O6  non d ame      -6.948   5.515  68.120  0.00  0.00    -0.369 OA
ATOM     89  H45 non d ame      -7.871   5.696  67.930  0.00  0.00     0.212 HD
ENDBRANCH  83  88
ENDBRANCH  72  75
ENDBRANCH  47  72
ENDBRANCH  45  47
ENDBRANCH   1  43
BRANCH   1  90
ATOM     90  C16 non d ame      -7.052   9.002  62.296  0.00  0.00    -0.035 C 
ATOM     91  H21 non d ame      -6.834   8.197  61.593  0.00  0.00     0.037 H 
ATOM     92  H22 non d ame      -7.269  10.004  61.927  0.00  0.00     0.037 H 
BRANCH  90  93
ATOM     93  C17 non d ame      -5.799   9.133  63.219  0.00  0.00    -0.059 C 
ATOM     94  H23 non d ame      -6.114   8.911  64.238  0.00  0.00     0.038 H 
BRANCH  93  95
ATOM     95  C18 non d ame      -4.675   8.118  62.835  0.00  0.00    -0.073 C 
ATOM     96  H24 non d ame      -3.710   8.505  63.160  0.00  0.00     0.028 H 
ATOM     97  H25 non d ame      -4.867   7.162  63.324  0.00  0.00     0.028 H 
ATOM     98  H26 non d ame      -4.667   7.977  61.754  0.00  0.00     0.028 H 
ENDBRANCH  93  95
BRANCH  93  99
ATOM     99  C19 non d ame      -5.263  10.567  63.211  0.00  0.00    -0.073 C 
ATOM    100  H27 non d ame      -4.841  10.792  62.231  0.00  0.00     0.028 H 
ATOM    101  H28 non d ame      -6.077  11.261  63.424  0.00  0.00     0.028 H 
ATOM    102  H29 non d ame      -4.490  10.670  63.972  0.00  0.00     0.028 H 
ENDBRANCH  93  99
ENDBRANCH  90  93
ENDBRANCH   1  90
TORSDOF 26
ENDMDL
MODEL 18
REMARK VINA RESULT:      -5.9      3.926      8.429
REMARK  26 active torsions:
REMARK  status: ('A' for Active; 'I' for Inactive)
REMARK    1  A    between atoms: C2_2  and  C3_3 
REMARK    2  A    between atoms: C4_6  and  C5_7 
REMARK       I    between atoms: C5_7  and  N2_9 
REMARK    3  A    between atoms: N2_9  and  C6_10 
REMARK    4  A    between atoms: C6_10  and  C7_11 
REMARK    5  A    between atoms: C6_10  and  C8_13 
REMARK       I    between atoms: C7_11  and  N3_14 
REMARK    6  A    between atoms: N3_14  and  C9_15 
REMARK    7  A    between atoms: C9_15  and  C10_16 
REMARK    8  A    between atoms: C9_15  and  C11_18 
REMARK       I    between atoms: C10_16  and  N4_21 
REMARK    9  A    between atoms: C11_18  and  C12_19 
REMARK   10  A    between atoms: C11_18  and  C13_20 
REMARK   11  A    between atoms: N4_21  and  C14_22 
REMARK   12  A    between atoms: C14_22  and  C15_23 
REMARK   13  A    between atoms: C14_22  and  C16_25 
REMARK       I    between atoms: C15_23  and  N6_40 
REMARK   14  A    between atoms: C16_25  and  C17_26 
REMARK   15  A    between atoms: C17_26  and  C18_27 
REMARK   16  A    between atoms: C17_26  and  C19_28 
REMARK   17  A    between atoms: C20_29  and  C21_30 
REMARK   18  A    between atoms: C20_29  and  C24_33 
REMARK   19  A    between atoms: C20_29  and  N6_40 
REMARK   20  A    between atoms: C21_30  and  C22_31 
REMARK   21  A    between atoms: C22_31  and  C23_32 
REMARK   22  A    between atoms: C23_32  and  O8_43 
REMARK   23  A    between atoms: C24_33  and  C25_34 
REMARK   24  A    between atoms: C28_38  and  O6_39 
REMARK   25  A    between atoms: C29_42  and  O8_43 
REMARK   26  A    between atoms: C29_42  and  C35_49 
ROOT
ATOM      1  C14 non d ame     -10.513   8.602  69.622  0.00  0.00     0.089 C 
ATOM      2  H20 non d ame     -11.539   8.310  69.398  0.00  0.00     0.087 H 
ENDROOT
BRANCH   1   3
ATOM      3  N4  non d ame      -9.752   7.385  69.858  0.00  0.00    -0.346 N 
ATOM      4  C10 non d ame     -10.337   6.040  69.506  0.00  0.00     0.241 C 
ATOM      5  O4  non d ame     -11.424   5.964  69.036  0.00  0.00    -0.271 OA
ATOM      6  H19 non d ame      -8.829   7.471  70.260  0.00  0.00     0.163 HD
BRANCH   4   7
ATOM      7  C9  non d ame      -9.533   4.791  69.751  0.00  0.00     0.092 C 
ATOM      8  H11 non d ame      -9.815   4.033  69.019  0.00  0.00     0.088 H 
BRANCH   7   9
ATOM      9  N3  non d ame      -8.109   5.078  69.551  0.00  0.00    -0.346 N 
ATOM     10  C7  non d ame      -7.300   4.188  68.755  0.00  0.00     0.240 C 
ATOM     11  O3  non d ame      -7.777   3.235  68.270  0.00  0.00    -0.271 OA
ATOM     12  H10 non d ame      -7.683   5.895  69.964  0.00  0.00     0.163 HD
BRANCH  10  13
ATOM     13  C6  non d ame      -5.785   4.497  68.548  0.00  0.00     0.086 C 
ATOM     14  H6  non d ame      -5.197   3.604  68.334  0.00  0.00     0.086 H 
BRANCH  13  15
ATOM     15  N2  non d ame      -5.636   5.377  67.401  0.00  0.00    -0.343 N 
ATOM     16  C5  non d ame      -5.352   4.804  66.084  0.00  0.00     0.273 C 
ATOM     17  O2  non d ame      -5.242   3.634  65.958  0.00  0.00    -0.266 OA
ATOM     18  H5  non d ame      -5.728   6.377  67.519  0.00  0.00     0.163 HD
BRANCH  16  19
ATOM     19  C4  non d ame      -5.193   5.723  64.862  0.00  0.00     0.154 A 
ATOM     20  C1  non d ame      -4.779   7.092  64.859  0.00  0.00    -0.017 A 
ATOM     21  C2  non d ame      -4.796   7.474  63.498  0.00  0.00     0.077 A 
ATOM     22  H1  non d ame      -4.507   7.714  65.712  0.00  0.00     0.091 H 
ATOM     23  O1  non d ame      -5.176   6.437  62.810  0.00  0.00    -0.218 OA
ATOM     24  N1  non d ame      -5.414   5.403  63.584  0.00  0.00    -0.123 NA
BRANCH  21  25
ATOM     25  C3  non d ame      -4.436   8.845  62.941  0.00  0.00    -0.029 C 
ATOM     26  H2  non d ame      -5.142   9.586  63.315  0.00  0.00     0.036 H 
ATOM     27  H3  non d ame      -3.427   9.111  63.258  0.00  0.00     0.036 H 
ATOM     28  H4  non d ame      -4.479   8.818  61.852  0.00  0.00     0.036 H 
ENDBRANCH  21  25
ENDBRANCH  16  19
ENDBRANCH  13  15
BRANCH  13  29
ATOM     29  C8  non d ame      -5.231   5.160  69.784  0.00  0.00    -0.049 C 
ATOM     30  H7  non d ame      -4.678   6.055  69.499  0.00  0.00     0.030 H 
ATOM     31  H8  non d ame      -6.051   5.435  70.447  0.00  0.00     0.030 H 
ATOM     32  H9  non d ame      -4.563   4.470  70.298  0.00  0.00     0.030 H 
ENDBRANCH  13  29
ENDBRANCH  10  13
ENDBRANCH   7   9
BRANCH   7  33
ATOM     33  C11 non d ame      -9.761   4.306  71.213  0.00  0.00    -0.033 C 
ATOM     34  H12 non d ame     -10.760   4.624  71.513  0.00  0.00     0.042 H 
BRANCH  33  35
ATOM     35  C12 non d ame      -9.715   2.749  71.309  0.00  0.00    -0.071 C 
ATOM     36  H13 non d ame      -8.795   2.384  70.853  0.00  0.00     0.028 H 
ATOM     37  H14 non d ame      -9.744   2.449  72.357  0.00  0.00     0.028 H 
ATOM     38  H15 non d ame     -10.573   2.328  70.786  0.00  0.00     0.028 H 
ENDBRANCH  33  35
BRANCH  33  39
ATOM     39  C13 non d ame      -8.732   4.964  72.187  0.00  0.00    -0.071 C 
ATOM     40  H16 non d ame      -9.018   4.751  73.217  0.00  0.00     0.028 H 
ATOM     41  H17 non d ame      -7.738   4.559  71.994  0.00  0.00     0.028 H 
ATOM     42  H18 non d ame      -8.721   6.043  72.029  0.00  0.00     0.028 H 
ENDBRANCH  33  39
ENDBRANCH   7  33
ENDBRANCH   4   7
ENDBRANCH   1   3
BRANCH   1  43
ATOM     43  C15 non d ame      -9.854   9.379  68.446  0.00  0.00     0.240 C 
ATOM     44  O5  non d ame      -8.673   9.359  68.313  0.00  0.00    -0.271 OA
ATOM     45  N6  non d ame     -10.696  10.140  67.480  0.00  0.00    -0.355 N 
ATOM     46  H46 non d ame     -11.701  10.160  67.580  0.00  0.00     0.162 HD
BRANCH  45  47
ATOM     47  C20 non d ame     -10.054  10.872  66.367  0.00  0.00     0.013 C 
ATOM     48  H30 non d ame      -9.016  11.058  66.642  0.00  0.00     0.072 H 
BRANCH  47  49
ATOM     49  C21 non d ame     -10.775  12.184  66.150  0.00  0.00    -0.038 C 
ATOM     50  H31 non d ame     -10.016  12.881  65.793  0.00  0.00     0.036 H 
ATOM     51  H32 non d ame     -11.635  11.947  65.525  0.00  0.00     0.036 H 
BRANCH  49  52
ATOM     52  C22 non d ame     -11.337  12.782  67.458  0.00  0.00     0.018 C 
ATOM     53  H33 non d ame     -12.410  12.591  67.433  0.00  0.00     0.048 H 
ATOM     54  H34 non d ame     -10.728  12.363  68.260  0.00  0.00     0.048 H 
BRANCH  52  55
ATOM     55  C23 non d ame     -11.178  14.324  67.560  0.00  0.00     0.259 C 
ATOM     56  O7  non d ame     -11.242  15.003  66.587  0.00  0.00    -0.265 OA
BRANCH  55  57
ATOM     57  O8  non d ame     -10.940  14.917  68.831  0.00  0.00    -0.317 OA
BRANCH  57  58
ATOM     58  C29 non d ame     -11.960  15.831  69.247  0.00  0.00     0.052 C 
ATOM     59  H47 non d ame     -11.490  16.814  69.253  0.00  0.00     0.082 H 
ATOM     60  H48 non d ame     -12.812  15.638  68.596  0.00  0.00     0.082 H 
BRANCH  58  61
ATOM     61  C35 non d ame     -12.361  15.470  70.702  0.00  0.00    -0.034 A 
ATOM     62  C30 non d ame     -11.939  16.269  71.760  0.00  0.00    -0.075 A 
ATOM     63  C31 non d ame     -12.300  15.945  73.067  0.00  0.00    -0.082 A 
ATOM     64  H49 non d ame     -11.326  17.149  71.565  0.00  0.00     0.084 H 
ATOM     65  C32 non d ame     -13.084  14.815  73.315  0.00  0.00    -0.083 A 
ATOM     66  H50 non d ame     -11.969  16.575  73.893  0.00  0.00     0.083 H 
ATOM     67  C33 non d ame     -13.500  14.019  72.257  0.00  0.00    -0.082 A 
ATOM     68  H51 non d ame     -13.371  14.555  74.334  0.00  0.00     0.083 H 
ATOM     69  C34 non d ame     -13.144  14.340  70.948  0.00  0.00    -0.075 A 
ATOM     70  H52 non d ame     -14.110  13.137  72.454  0.00  0.00     0.083 H 
ATOM     71  H53 non d ame     -13.475  13.710  70.122  0.00  0.00     0.084 H 
ENDBRANCH  58  61
ENDBRANCH  57  58
ENDBRANCH  55  57
ENDBRANCH  52  55
ENDBRANCH  49  52
ENDBRANCH  47  49
BRANCH  47  72
ATOM     72  C24 non d ame     -10.124  10.035  65.091  0.00  0.00    -0.039 C 
ATOM     73  H35 non d ame     -10.725   9.163  65.348  0.00  0.00     0.036 H 
ATOM     74  H36 non d ame     -10.462  10.720  64.313  0.00  0.00     0.036 H 
BRANCH  72  75
ATOM     75  C25 non d ame      -8.678   9.501  64.654  0.00  0.00    -0.001 C 
ATOM     76  C26 non d ame      -8.507   9.620  63.022  0.00  0.00    -0.035 C 
ATOM     77  C27 non d ame      -8.096   8.423  62.538  0.00  0.00     0.085 C 
ATOM     78  H38 non d ame      -9.481   9.763  62.554  0.00  0.00     0.036 H 
ATOM     79  H39 non d ame      -7.682  10.289  62.781  0.00  0.00     0.036 H 
ATOM     80  N5  non d ame      -8.286   7.412  63.643  0.00  0.00    -0.049 N 
ATOM     81  H40 non d ame      -8.779   8.189  61.721  0.00  0.00     0.075 H 
ATOM     82  H41 non d ame      -7.031   8.539  62.342  0.00  0.00     0.075 H 
ATOM     83  C28 non d ame      -8.514   8.266  64.993  0.00  0.00     0.193 C 
ATOM     84  H42 non d ame      -9.138   6.912  63.430  0.00  0.00     0.280 HD
ATOM     85  H43 non d ame      -7.413   6.909  63.724  0.00  0.00     0.280 HD
ATOM     86  H44 non d ame      -7.713   8.367  65.726  0.00  0.00     0.129 H 
ATOM     87  H37 non d ame      -7.880   9.919  65.268  0.00  0.00     0.046 H 
BRANCH  83  88
ATOM     88  O6  non d ame      -9.633   7.753  65.718  0.00  0.00    -0.369 OA
ATOM     89  H45 non d ame      -9.406   7.680  66.648  0.00  0.00     0.212 HD
ENDBRANCH  83  88
ENDBRANCH  72  75
ENDBRANCH  47  72
ENDBRANCH  45  47
ENDBRANCH   1  43
BRANCH   1  90
ATOM     90  C16 non d ame     -10.484   9.457  70.879  0.00  0.00    -0.035 C 
ATOM     91  H21 non d ame      -9.963   8.856  71.625  0.00  0.00     0.037 H 
ATOM     92  H22 non d ame     -10.069  10.416  70.567  0.00  0.00     0.037 H 
BRANCH  90  93
ATOM     93  C17 non d ame     -11.900   9.758  71.465  0.00  0.00    -0.059 C 
ATOM     94  H23 non d ame     -11.762  10.308  72.396  0.00  0.00     0.038 H 
BRANCH  93  95
ATOM     95  C18 non d ame     -12.757  10.647  70.508  0.00  0.00    -0.073 C 
ATOM     96  H24 non d ame     -12.558  10.364  69.475  0.00  0.00     0.028 H 
ATOM     97  H25 non d ame     -13.815  10.503  70.728  0.00  0.00     0.028 H 
ATOM     98  H26 non d ame     -12.495  11.695  70.655  0.00  0.00     0.028 H 
ENDBRANCH  93  95
BRANCH  93  99
ATOM     99  C19 non d ame     -12.636   8.461  71.809  0.00  0.00    -0.073 C 
ATOM    100  H27 non d ame     -12.020   7.607  71.526  0.00  0.00     0.028 H 
ATOM    101  H28 non d ame     -12.834   8.428  72.881  0.00  0.00     0.028 H 
ATOM    102  H29 non d ame     -13.580   8.424  71.265  0.00  0.00     0.028 H 
ENDBRANCH  93  99
ENDBRANCH  90  93
ENDBRANCH   1  90
TORSDOF 26
ENDMDL
MODEL 19
REMARK VINA RESULT:      -5.8      2.176      8.108
REMARK  26 active torsions:
REMARK  status: ('A' for Active; 'I' for Inactive)
REMARK    1  A    between atoms: C2_2  and  C3_3 
REMARK    2  A    between atoms: C4_6  and  C5_7 
REMARK       I    between atoms: C5_7  and  N2_9 
REMARK    3  A    between atoms: N2_9  and  C6_10 
REMARK    4  A    between atoms: C6_10  and  C7_11 
REMARK    5  A    between atoms: C6_10  and  C8_13 
REMARK       I    between atoms: C7_11  and  N3_14 
REMARK    6  A    between atoms: N3_14  and  C9_15 
REMARK    7  A    between atoms: C9_15  and  C10_16 
REMARK    8  A    between atoms: C9_15  and  C11_18 
REMARK       I    between atoms: C10_16  and  N4_21 
REMARK    9  A    between atoms: C11_18  and  C12_19 
REMARK   10  A    between atoms: C11_18  and  C13_20 
REMARK   11  A    between atoms: N4_21  and  C14_22 
REMARK   12  A    between atoms: C14_22  and  C15_23 
REMARK   13  A    between atoms: C14_22  and  C16_25 
REMARK       I    between atoms: C15_23  and  N6_40 
REMARK   14  A    between atoms: C16_25  and  C17_26 
REMARK   15  A    between atoms: C17_26  and  C18_27 
REMARK   16  A    between atoms: C17_26  and  C19_28 
REMARK   17  A    between atoms: C20_29  and  C21_30 
REMARK   18  A    between atoms: C20_29  and  C24_33 
REMARK   19  A    between atoms: C20_29  and  N6_40 
REMARK   20  A    between atoms: C21_30  and  C22_31 
REMARK   21  A    between atoms: C22_31  and  C23_32 
REMARK   22  A    between atoms: C23_32  and  O8_43 
REMARK   23  A    between atoms: C24_33  and  C25_34 
REMARK   24  A    between atoms: C28_38  and  O6_39 
REMARK   25  A    between atoms: C29_42  and  O8_43 
REMARK   26  A    between atoms: C29_42  and  C35_49 
ROOT
ATOM      1  C14 non d ame      -6.500  13.692  68.276  0.00  0.00     0.089 C 
ATOM      2  H20 non d ame      -5.684  13.666  67.553  0.00  0.00     0.087 H 
ENDROOT
BRANCH   1   3
ATOM      3  N4  non d ame      -6.813  15.090  68.532  0.00  0.00    -0.346 N 
ATOM      4  C10 non d ame      -6.081  16.183  67.794  0.00  0.00     0.241 C 
ATOM      5  O4  non d ame      -5.241  15.912  67.000  0.00  0.00    -0.271 OA
ATOM      6  H19 non d ame      -7.529  15.300  69.214  0.00  0.00     0.163 HD
BRANCH   4   7
ATOM      7  C9  non d ame      -6.422  17.624  68.068  0.00  0.00     0.092 C 
ATOM      8  H11 non d ame      -6.041  18.243  67.256  0.00  0.00     0.088 H 
BRANCH   7   9
ATOM      9  N3  non d ame      -7.879  17.786  68.090  0.00  0.00    -0.346 N 
ATOM     10  C7  non d ame      -8.607  17.926  66.853  0.00  0.00     0.240 C 
ATOM     11  O3  non d ame      -8.036  17.912  65.831  0.00  0.00    -0.271 OA
ATOM     12  H10 non d ame      -8.385  17.802  68.964  0.00  0.00     0.163 HD
BRANCH  10  13
ATOM     13  C6  non d ame     -10.157  18.102  66.883  0.00  0.00     0.086 C 
ATOM     14  H6  non d ame     -10.664  17.503  66.127  0.00  0.00     0.086 H 
BRANCH  13  15
ATOM     15  N2  non d ame     -10.657  17.654  68.172  0.00  0.00    -0.343 N 
ATOM     16  C5  non d ame     -11.150  16.283  68.318  0.00  0.00     0.273 C 
ATOM     17  O2  non d ame     -11.143  15.549  67.391  0.00  0.00    -0.266 OA
ATOM     18  H5  non d ame     -10.662  18.289  68.958  0.00  0.00     0.163 HD
BRANCH  16  19
ATOM     19  C4  non d ame     -11.680  15.795  69.675  0.00  0.00     0.154 A 
ATOM     20  C1  non d ame     -12.359  14.565  69.948  0.00  0.00    -0.017 A 
ATOM     21  C2  non d ame     -12.631  14.599  71.334  0.00  0.00     0.077 A 
ATOM     22  H1  non d ame     -12.614  13.770  69.247  0.00  0.00     0.091 H 
ATOM     23  O1  non d ame     -12.159  15.721  71.794  0.00  0.00    -0.218 OA
ATOM     24  N1  non d ame     -11.600  16.436  70.845  0.00  0.00    -0.123 NA
BRANCH  21  25
ATOM     25  C3  non d ame     -13.344  13.521  72.139  0.00  0.00    -0.029 C 
ATOM     26  H2  non d ame     -13.621  12.698  71.480  0.00  0.00     0.036 H 
ATOM     27  H3  non d ame     -12.680  13.153  72.921  0.00  0.00     0.036 H 
ATOM     28  H4  non d ame     -14.243  13.941  72.593  0.00  0.00     0.036 H 
ENDBRANCH  21  25
ENDBRANCH  16  19
ENDBRANCH  13  15
BRANCH  13  29
ATOM     29  C8  non d ame     -10.505  19.553  66.669  0.00  0.00    -0.049 C 
ATOM     30  H7  non d ame     -10.127  19.879  65.700  0.00  0.00     0.030 H 
ATOM     31  H8  non d ame     -11.588  19.674  66.697  0.00  0.00     0.030 H 
ATOM     32  H9  non d ame     -10.052  20.155  67.456  0.00  0.00     0.030 H 
ENDBRANCH  13  29
ENDBRANCH  10  13
ENDBRANCH   7   9
BRANCH   7  33
ATOM     33  C11 non d ame      -5.835  18.043  69.448  0.00  0.00    -0.033 C 
ATOM     34  H12 non d ame      -6.278  17.394  70.204  0.00  0.00     0.042 H 
BRANCH  33  35
ATOM     35  C12 non d ame      -4.290  17.832  69.496  0.00  0.00    -0.071 C 
ATOM     36  H13 non d ame      -3.793  18.800  69.568  0.00  0.00     0.028 H 
ATOM     37  H14 non d ame      -4.032  17.227  70.365  0.00  0.00     0.028 H 
ATOM     38  H15 non d ame      -3.964  17.323  68.589  0.00  0.00     0.028 H 
ENDBRANCH  33  35
BRANCH  33  39
ATOM     39  C13 non d ame      -6.217  19.518  69.794  0.00  0.00    -0.071 C 
ATOM     40  H16 non d ame      -6.137  20.133  68.898  0.00  0.00     0.028 H 
ATOM     41  H17 non d ame      -7.241  19.550  70.167  0.00  0.00     0.028 H 
ATOM     42  H18 non d ame      -5.539  19.898  70.558  0.00  0.00     0.028 H 
ENDBRANCH  33  39
ENDBRANCH   7  33
ENDBRANCH   4   7
ENDBRANCH   1   3
BRANCH   1  43
ATOM     43  C15 non d ame      -7.780  12.988  67.743  0.00  0.00     0.240 C 
ATOM     44  O5  non d ame      -8.837  13.241  68.223  0.00  0.00    -0.271 OA
ATOM     45  N6  non d ame      -7.689  12.003  66.627  0.00  0.00    -0.355 N 
ATOM     46  H46 non d ame      -6.797  11.784  66.208  0.00  0.00     0.162 HD
BRANCH  45  47
ATOM     47  C20 non d ame      -8.915  11.343  66.130  0.00  0.00     0.013 C 
ATOM     48  H30 non d ame      -9.741  12.046  66.236  0.00  0.00     0.072 H 
BRANCH  47  49
ATOM     49  C21 non d ame      -9.183  10.103  66.953  0.00  0.00    -0.038 C 
ATOM     50  H31 non d ame      -8.689   9.287  66.427  0.00  0.00     0.036 H 
ATOM     51  H32 non d ame      -8.885  10.355  67.971  0.00  0.00     0.036 H 
BRANCH  49  52
ATOM     52  C22 non d ame     -10.682   9.738  67.015  0.00  0.00     0.018 C 
ATOM     53  H33 non d ame     -10.950   9.415  66.008  0.00  0.00     0.048 H 
ATOM     54  H34 non d ame     -10.784   9.047  67.853  0.00  0.00     0.048 H 
BRANCH  52  55
ATOM     55  C23 non d ame     -11.608  10.943  67.339  0.00  0.00     0.259 C 
ATOM     56  O7  non d ame     -11.799  11.792  66.530  0.00  0.00    -0.265 OA
BRANCH  55  57
ATOM     57  O8  non d ame     -12.217  11.028  68.622  0.00  0.00    -0.317 OA
BRANCH  57  58
ATOM     58  C29 non d ame     -11.290  11.204  69.696  0.00  0.00     0.052 C 
ATOM     59  H47 non d ame     -10.301  11.077  69.256  0.00  0.00     0.082 H 
ATOM     60  H48 non d ame     -11.559  12.150  70.167  0.00  0.00     0.082 H 
BRANCH  58  61
ATOM     61  C35 non d ame     -11.522  10.063  70.722  0.00  0.00    -0.034 A 
ATOM     62  C30 non d ame     -10.474   9.220  71.075  0.00  0.00    -0.075 A 
ATOM     63  C31 non d ame     -10.682   8.194  71.996  0.00  0.00    -0.082 A 
ATOM     64  H49 non d ame      -9.488   9.363  70.632  0.00  0.00     0.084 H 
ATOM     65  C32 non d ame     -11.947   8.011  72.562  0.00  0.00    -0.083 A 
ATOM     66  H50 non d ame      -9.858   7.537  72.273  0.00  0.00     0.083 H 
ATOM     67  C33 non d ame     -12.991   8.853  72.204  0.00  0.00    -0.082 A 
ATOM     68  H51 non d ame     -12.119   7.212  73.283  0.00  0.00     0.083 H 
ATOM     69  C34 non d ame     -12.787   9.880  71.285  0.00  0.00    -0.075 A 
ATOM     70  H52 non d ame     -13.977   8.706  72.645  0.00  0.00     0.083 H 
ATOM     71  H53 non d ame     -13.612  10.538  71.010  0.00  0.00     0.084 H 
ENDBRANCH  58  61
ENDBRANCH  57  58
ENDBRANCH  55  57
ENDBRANCH  52  55
ENDBRANCH  49  52
ENDBRANCH  47  49
BRANCH  47  72
ATOM     72  C24 non d ame      -8.735  10.953  64.665  0.00  0.00    -0.039 C 
ATOM     73  H35 non d ame      -9.741  10.768  64.288  0.00  0.00     0.036 H 
ATOM     74  H36 non d ame      -8.126  11.744  64.227  0.00  0.00     0.036 H 
BRANCH  72  75
ATOM     75  C25 non d ame      -7.914   9.586  64.512  0.00  0.00    -0.001 C 
ATOM     76  C26 non d ame      -6.400   9.901  63.952  0.00  0.00    -0.035 C 
ATOM     77  C27 non d ame      -6.158   9.109  62.880  0.00  0.00     0.085 C 
ATOM     78  H38 non d ame      -6.356  10.908  63.540  0.00  0.00     0.036 H 
ATOM     79  H39 non d ame      -5.657   9.577  64.681  0.00  0.00     0.036 H 
ATOM     80  N5  non d ame      -7.482   8.520  62.458  0.00  0.00    -0.049 N 
ATOM     81  H40 non d ame      -5.801   9.779  62.097  0.00  0.00     0.075 H 
ATOM     82  H41 non d ame      -5.515   8.310  63.248  0.00  0.00     0.075 H 
ATOM     83  C28 non d ame      -8.496   8.781  63.687  0.00  0.00     0.193 C 
ATOM     84  H42 non d ame      -7.795   9.058  61.663  0.00  0.00     0.280 HD
ATOM     85  H43 non d ame      -7.337   7.524  62.368  0.00  0.00     0.280 HD
ATOM     86  H44 non d ame      -8.769   7.969  64.362  0.00  0.00     0.129 H 
ATOM     87  H37 non d ame      -7.994   8.955  65.398  0.00  0.00     0.046 H 
BRANCH  83  88
ATOM     88  O6  non d ame      -9.733   9.307  63.202  0.00  0.00    -0.369 OA
ATOM     89  H45 non d ame      -9.900   8.969  62.320  0.00  0.00     0.212 HD
ENDBRANCH  83  88
ENDBRANCH  72  75
ENDBRANCH  47  72
ENDBRANCH  45  47
ENDBRANCH   1  43
BRANCH   1  90
ATOM     90  C16 non d ame      -6.059  13.037  69.575  0.00  0.00    -0.035 C 
ATOM     91  H21 non d ame      -5.206  13.622  69.919  0.00  0.00     0.037 H 
ATOM     92  H22 non d ame      -6.959  12.974  70.187  0.00  0.00     0.037 H 
BRANCH  90  93
ATOM     93  C17 non d ame      -5.545  11.573  69.395  0.00  0.00    -0.059 C 
ATOM     94  H23 non d ame      -5.507  11.365  68.325  0.00  0.00     0.038 H 
BRANCH  93  95
ATOM     95  C18 non d ame      -4.104  11.379  69.969  0.00  0.00    -0.073 C 
ATOM     96  H24 non d ame      -4.123  10.614  70.744  0.00  0.00     0.028 H 
ATOM     97  H25 non d ame      -3.433  11.069  69.167  0.00  0.00     0.028 H 
ATOM     98  H26 non d ame      -3.753  12.320  70.394  0.00  0.00     0.028 H 
ENDBRANCH  93  95
BRANCH  93  99
ATOM     99  C19 non d ame      -6.519  10.570  70.019  0.00  0.00    -0.073 C 
ATOM    100  H27 non d ame      -6.017  10.024  70.818  0.00  0.00     0.028 H 
ATOM    101  H28 non d ame      -7.377  11.105  70.427  0.00  0.00     0.028 H 
ATOM    102  H29 non d ame      -6.857   9.869  69.256  0.00  0.00     0.028 H 
ENDBRANCH  93  99
ENDBRANCH  90  93
ENDBRANCH   1  90
TORSDOF 26
ENDMDL
MODEL 20
REMARK VINA RESULT:      -5.8      2.012      7.342
REMARK  26 active torsions:
REMARK  status: ('A' for Active; 'I' for Inactive)
REMARK    1  A    between atoms: C2_2  and  C3_3 
REMARK    2  A    between atoms: C4_6  and  C5_7 
REMARK       I    between atoms: C5_7  and  N2_9 
REMARK    3  A    between atoms: N2_9  and  C6_10 
REMARK    4  A    between atoms: C6_10  and  C7_11 
REMARK    5  A    between atoms: C6_10  and  C8_13 
REMARK       I    between atoms: C7_11  and  N3_14 
REMARK    6  A    between atoms: N3_14  and  C9_15 
REMARK    7  A    between atoms: C9_15  and  C10_16 
REMARK    8  A    between atoms: C9_15  and  C11_18 
REMARK       I    between atoms: C10_16  and  N4_21 
REMARK    9  A    between atoms: C11_18  and  C12_19 
REMARK   10  A    between atoms: C11_18  and  C13_20 
REMARK   11  A    between atoms: N4_21  and  C14_22 
REMARK   12  A    between atoms: C14_22  and  C15_23 
REMARK   13  A    between atoms: C14_22  and  C16_25 
REMARK       I    between atoms: C15_23  and  N6_40 
REMARK   14  A    between atoms: C16_25  and  C17_26 
REMARK   15  A    between atoms: C17_26  and  C18_27 
REMARK   16  A    between atoms: C17_26  and  C19_28 
REMARK   17  A    between atoms: C20_29  and  C21_30 
REMARK   18  A    between atoms: C20_29  and  C24_33 
REMARK   19  A    between atoms: C20_29  and  N6_40 
REMARK   20  A    between atoms: C21_30  and  C22_31 
REMARK   21  A    between atoms: C22_31  and  C23_32 
REMARK   22  A    between atoms: C23_32  and  O8_43 
REMARK   23  A    between atoms: C24_33  and  C25_34 
REMARK   24  A    between atoms: C28_38  and  O6_39 
REMARK   25  A    between atoms: C29_42  and  O8_43 
REMARK   26  A    between atoms: C29_42  and  C35_49 
ROOT
ATOM      1  C14 non d ame      -5.290  13.854  68.772  0.00  0.00     0.089 C 
ATOM      2  H20 non d ame      -4.386  13.963  68.173  0.00  0.00     0.087 H 
ENDROOT
BRANCH   1   3
ATOM      3  N4  non d ame      -5.880  15.176  68.919  0.00  0.00    -0.346 N 
ATOM      4  C10 non d ame      -5.615  16.247  67.891  0.00  0.00     0.241 C 
ATOM      5  O4  non d ame      -4.921  16.022  66.955  0.00  0.00    -0.271 OA
ATOM      6  H19 non d ame      -6.466  15.349  69.724  0.00  0.00     0.163 HD
BRANCH   4   7
ATOM      7  C9  non d ame      -6.239  17.608  68.056  0.00  0.00     0.092 C 
ATOM      8  H11 non d ame      -5.943  18.242  67.220  0.00  0.00     0.088 H 
BRANCH   7   9
ATOM      9  N3  non d ame      -7.699  17.486  68.011  0.00  0.00    -0.346 N 
ATOM     10  C7  non d ame      -8.408  17.763  66.786  0.00  0.00     0.240 C 
ATOM     11  O3  non d ame      -7.819  18.086  65.827  0.00  0.00    -0.271 OA
ATOM     12  H10 non d ame      -8.221  17.210  68.831  0.00  0.00     0.163 HD
BRANCH  10  13
ATOM     13  C6  non d ame      -9.962  17.634  66.745  0.00  0.00     0.086 C 
ATOM     14  H6  non d ame     -10.304  16.866  66.052  0.00  0.00     0.086 H 
BRANCH  13  15
ATOM     15  N2  non d ame     -10.438  17.245  68.063  0.00  0.00    -0.343 N 
ATOM     16  C5  non d ame     -11.195  16.001  68.218  0.00  0.00     0.273 C 
ATOM     17  O2  non d ame     -11.419  15.322  67.277  0.00  0.00    -0.266 OA
ATOM     18  H5  non d ame     -10.244  17.832  68.861  0.00  0.00     0.163 HD
BRANCH  16  19
ATOM     19  C4  non d ame     -11.702  15.577  69.605  0.00  0.00     0.154 A 
ATOM     20  C1  non d ame     -12.359  14.352  69.949  0.00  0.00    -0.017 A 
ATOM     21  C2  non d ame     -12.616  14.454  71.334  0.00  0.00     0.077 A 
ATOM     22  H1  non d ame     -12.609  13.518  69.293  0.00  0.00     0.091 H 
ATOM     23  O1  non d ame     -12.156  15.604  71.730  0.00  0.00    -0.218 OA
ATOM     24  N1  non d ame     -11.619  16.278  70.739  0.00  0.00    -0.123 NA
BRANCH  21  25
ATOM     25  C3  non d ame     -13.303  13.408  72.203  0.00  0.00    -0.029 C 
ATOM     26  H2  non d ame     -13.495  13.826  73.191  0.00  0.00     0.036 H 
ATOM     27  H3  non d ame     -14.247  13.117  71.742  0.00  0.00     0.036 H 
ATOM     28  H4  non d ame     -12.659  12.533  72.296  0.00  0.00     0.036 H 
ENDBRANCH  21  25
ENDBRANCH  16  19
ENDBRANCH  13  15
BRANCH  13  29
ATOM     29  C8  non d ame     -10.569  18.955  66.347  0.00  0.00    -0.049 C 
ATOM     30  H7  non d ame      -9.877  19.491  65.697  0.00  0.00     0.030 H 
ATOM     31  H8  non d ame     -11.505  18.780  65.816  0.00  0.00     0.030 H 
ATOM     32  H9  non d ame     -10.763  19.549  67.239  0.00  0.00     0.030 H 
ENDBRANCH  13  29
ENDBRANCH  10  13
ENDBRANCH   7   9
BRANCH   7  33
ATOM     33  C11 non d ame      -5.813  18.211  69.427  0.00  0.00    -0.033 C 
ATOM     34  H12 non d ame      -6.216  17.566  70.209  0.00  0.00     0.042 H 
BRANCH  33  35
ATOM     35  C12 non d ame      -4.261  18.226  69.584  0.00  0.00    -0.071 C 
ATOM     36  H13 non d ame      -3.846  19.054  69.009  0.00  0.00     0.028 H 
ATOM     37  H14 non d ame      -4.004  18.350  70.636  0.00  0.00     0.028 H 
ATOM     38  H15 non d ame      -3.850  17.286  69.218  0.00  0.00     0.028 H 
ENDBRANCH  33  35
BRANCH  33  39
ATOM     39  C13 non d ame      -6.416  19.640  69.621  0.00  0.00    -0.071 C 
ATOM     40  H16 non d ame      -6.799  19.737  70.637  0.00  0.00     0.028 H 
ATOM     41  H17 non d ame      -5.641  20.387  69.452  0.00  0.00     0.028 H 
ATOM     42  H18 non d ame      -7.228  19.791  68.910  0.00  0.00     0.028 H 
ENDBRANCH  33  39
ENDBRANCH   7  33
ENDBRANCH   4   7
ENDBRANCH   1   3
BRANCH   1  43
ATOM     43  C15 non d ame      -6.333  12.919  68.096  0.00  0.00     0.240 C 
ATOM     44  O5  non d ame      -6.203  12.616  66.955  0.00  0.00    -0.271 OA
ATOM     45  N6  non d ame      -7.490  12.393  68.876  0.00  0.00    -0.355 N 
ATOM     46  H46 non d ame      -7.609  12.639  69.848  0.00  0.00     0.162 HD
BRANCH  45  47
ATOM     47  C20 non d ame      -8.472  11.503  68.219  0.00  0.00     0.013 C 
ATOM     48  H30 non d ame      -7.983  11.036  67.364  0.00  0.00     0.072 H 
BRANCH  47  49
ATOM     49  C21 non d ame      -9.655  12.322  67.754  0.00  0.00    -0.038 C 
ATOM     50  H31 non d ame     -10.539  11.751  68.039  0.00  0.00     0.036 H 
ATOM     51  H32 non d ame      -9.498  13.322  68.158  0.00  0.00     0.036 H 
BRANCH  49  52
ATOM     52  C22 non d ame      -9.711  12.476  66.218  0.00  0.00     0.018 C 
ATOM     53  H33 non d ame      -9.649  13.547  66.026  0.00  0.00     0.048 H 
ATOM     54  H34 non d ame      -8.944  11.806  65.827  0.00  0.00     0.048 H 
BRANCH  52  55
ATOM     55  C23 non d ame     -11.052  12.005  65.590  0.00  0.00     0.259 C 
ATOM     56  O7  non d ame     -12.076  12.150  66.175  0.00  0.00    -0.265 OA
BRANCH  55  57
ATOM     57  O8  non d ame     -11.042  11.385  64.309  0.00  0.00    -0.317 OA
BRANCH  57  58
ATOM     58  C29 non d ame     -10.105  11.959  63.393  0.00  0.00     0.052 C 
ATOM     59  H47 non d ame     -10.695  12.290  62.538  0.00  0.00     0.082 H 
ATOM     60  H48 non d ame      -9.531  12.682  63.971  0.00  0.00     0.082 H 
BRANCH  58  61
ATOM     61  C35 non d ame      -9.146  10.834  62.921  0.00  0.00    -0.034 A 
ATOM     62  C30 non d ame      -8.344  11.026  61.801  0.00  0.00    -0.075 A 
ATOM     63  C31 non d ame      -7.482  10.015  61.377  0.00  0.00    -0.082 A 
ATOM     64  H49 non d ame      -8.391  11.968  61.255  0.00  0.00     0.084 H 
ATOM     65  C32 non d ame      -7.426   8.807  62.078  0.00  0.00    -0.083 A 
ATOM     66  H50 non d ame      -6.853  10.170  60.500  0.00  0.00     0.083 H 
ATOM     67  C33 non d ame      -8.230   8.619  63.194  0.00  0.00    -0.082 A 
ATOM     68  H51 non d ame      -6.754   8.012  61.754  0.00  0.00     0.083 H 
ATOM     69  C34 non d ame      -9.091   9.627  63.622  0.00  0.00    -0.075 A 
ATOM     70  H52 non d ame      -8.185   7.675  63.737  0.00  0.00     0.083 H 
ATOM     71  H53 non d ame      -9.719   9.472  64.500  0.00  0.00     0.084 H 
ENDBRANCH  58  61
ENDBRANCH  57  58
ENDBRANCH  55  57
ENDBRANCH  52  55
ENDBRANCH  49  52
ENDBRANCH  47  49
BRANCH  47  72
ATOM     72  C24 non d ame      -8.945  10.438  69.206  0.00  0.00    -0.039 C 
ATOM     73  H35 non d ame      -8.383   9.539  68.954  0.00  0.00     0.036 H 
ATOM     74  H36 non d ame      -8.838  10.889  70.193  0.00  0.00     0.036 H 
BRANCH  72  75
ATOM     75  C25 non d ame     -10.498  10.096  69.010  0.00  0.00    -0.001 C 
ATOM     76  C26 non d ame     -11.350  10.583  70.329  0.00  0.00    -0.035 C 
ATOM     77  C27 non d ame     -12.108   9.549  70.765  0.00  0.00     0.085 C 
ATOM     78  H38 non d ame     -10.673  10.772  71.162  0.00  0.00     0.036 H 
ATOM     79  H39 non d ame     -12.086  11.335  70.043  0.00  0.00     0.036 H 
ATOM     80  N5  non d ame     -11.607   8.308  70.066  0.00  0.00    -0.049 N 
ATOM     81  H40 non d ame     -11.900   9.464  71.833  0.00  0.00     0.075 H 
ATOM     82  H41 non d ame     -13.120   9.765  70.423  0.00  0.00     0.075 H 
ATOM     83  C28 non d ame     -10.681   8.828  68.850  0.00  0.00     0.193 C 
ATOM     84  H42 non d ame     -11.022   7.822  70.731  0.00  0.00     0.280 HD
ATOM     85  H43 non d ame     -12.419   7.851  69.678  0.00  0.00     0.280 HD
ATOM     86  H44 non d ame     -11.051   8.808  67.825  0.00  0.00     0.129 H 
ATOM     87  H37 non d ame     -10.870  10.412  68.035  0.00  0.00     0.046 H 
BRANCH  83  88
ATOM     88  O6  non d ame      -9.449   8.105  68.825  0.00  0.00    -0.369 OA
ATOM     89  H45 non d ame      -9.135   7.977  69.723  0.00  0.00     0.212 HD
ENDBRANCH  83  88
ENDBRANCH  72  75
ENDBRANCH  47  72
ENDBRANCH  45  47
ENDBRANCH   1  43
BRANCH   1  90
ATOM     90  C16 non d ame      -4.935  13.314  70.148  0.00  0.00    -0.035 C 
ATOM     91  H21 non d ame      -5.498  13.926  70.853  0.00  0.00     0.037 H 
ATOM     92  H22 non d ame      -5.117  12.241  70.093  0.00  0.00     0.037 H 
BRANCH  90  93
ATOM     93  C17 non d ame      -3.428  13.488  70.519  0.00  0.00    -0.059 C 
ATOM     94  H23 non d ame      -3.124  12.610  71.089  0.00  0.00     0.038 H 
BRANCH  93  95
ATOM     95  C18 non d ame      -2.515  13.574  69.254  0.00  0.00    -0.073 C 
ATOM     96  H24 non d ame      -2.482  14.605  68.900  0.00  0.00     0.028 H 
ATOM     97  H25 non d ame      -1.508  13.245  69.509  0.00  0.00     0.028 H 
ATOM     98  H26 non d ame      -2.919  12.933  68.470  0.00  0.00     0.028 H 
ENDBRANCH  93  95
BRANCH  93  99
ATOM     99  C19 non d ame      -3.224  14.707  71.422  0.00  0.00    -0.073 C 
ATOM    100  H27 non d ame      -4.194  15.127  71.690  0.00  0.00     0.028 H 
ATOM    101  H28 non d ame      -2.696  14.405  72.327  0.00  0.00     0.028 H 
ATOM    102  H29 non d ame      -2.637  15.457  70.893  0.00  0.00     0.028 H 
ENDBRANCH  93  99
ENDBRANCH  90  93
ENDBRANCH   1  90
TORSDOF 26
ENDMDL
