MODEL 1
REMARK VINA RESULT:      -7.2      0.000      0.000
REMARK  26 active torsions:
REMARK  status: ('A' for Active; 'I' for Inactive)
REMARK    1  A    between atoms: C2_2  and  C3_3 
REMARK    2  A    between atoms: C4_6  and  C5_7 
REMARK       I    between atoms: C5_7  and  N2_9 
REMARK    3  A    between atoms: N2_9  and  C6_10 
REMARK    4  A    between atoms: C6_10  and  C7_11 
REMARK    5  A    between atoms: C6_10  and  C8_13 
REMARK       I    between atoms: C7_11  and  N3_14 
REMARK    6  A    between atoms: N3_14  and  C9_15 
REMARK    7  A    between atoms: C9_15  and  C10_16 
REMARK    8  A    between atoms: C9_15  and  C11_18 
REMARK       I    between atoms: C10_16  and  N4_21 
REMARK    9  A    between atoms: C11_18  and  C12_19 
REMARK   10  A    between atoms: C11_18  and  C13_20 
REMARK   11  A    between atoms: N4_21  and  C14_22 
REMARK   12  A    between atoms: C14_22  and  C15_23 
REMARK   13  A    between atoms: C14_22  and  C16_25 
REMARK       I    between atoms: C15_23  and  N6_40 
REMARK   14  A    between atoms: C16_25  and  C17_26 
REMARK   15  A    between atoms: C17_26  and  C18_27 
REMARK   16  A    between atoms: C17_26  and  C19_28 
REMARK   17  A    between atoms: C20_29  and  C21_30 
REMARK   18  A    between atoms: C20_29  and  C24_33 
REMARK   19  A    between atoms: C20_29  and  N6_40 
REMARK   20  A    between atoms: C21_30  and  C22_31 
REMARK   21  A    between atoms: C22_31  and  C23_32 
REMARK   22  A    between atoms: C23_32  and  O8_43 
REMARK   23  A    between atoms: C24_33  and  C25_34 
REMARK   24  A    between atoms: C28_38  and  O6_39 
REMARK   25  A    between atoms: C29_42  and  O8_43 
REMARK   26  A    between atoms: C29_42  and  C35_49 
ROOT
ATOM      1  C14 non d ame     -12.359  14.275  70.562  0.00  0.00     0.089 C 
ATOM      2  H20 non d ame     -13.444  14.281  70.667  0.00  0.00     0.087 H 
ENDROOT
BRANCH   1   3
ATOM      3  N4  non d ame     -11.951  12.905  70.291  0.00  0.00    -0.346 N 
ATOM      4  C10 non d ame     -12.584  11.759  71.041  0.00  0.00     0.241 C 
ATOM      5  O4  non d ame     -13.417  11.966  71.860  0.00  0.00    -0.271 OA
ATOM      6  H19 non d ame     -11.239  12.750  69.591  0.00  0.00     0.163 HD
BRANCH   4   7
ATOM      7  C9  non d ame     -12.154  10.347  70.743  0.00  0.00     0.092 C 
ATOM      8  H11 non d ame     -12.631  10.014  69.821  0.00  0.00     0.088 H 
BRANCH   7   9
ATOM      9  N3  non d ame     -10.706  10.313  70.519  0.00  0.00    -0.346 N 
ATOM     10  C7  non d ame     -10.183  10.399  69.177  0.00  0.00     0.240 C 
ATOM     11  O3  non d ame     -10.913  10.493  68.267  0.00  0.00    -0.271 OA
ATOM     12  H10 non d ame     -10.064  10.230  71.294  0.00  0.00     0.163 HD
BRANCH  10  13
ATOM     13  C6  non d ame      -8.640  10.359  68.945  0.00  0.00     0.086 C 
ATOM     14  H6  non d ame      -8.374  10.036  67.938  0.00  0.00     0.086 H 
BRANCH  13  15
ATOM     15  N2  non d ame      -8.105  11.700  69.107  0.00  0.00    -0.343 N 
ATOM     16  C5  non d ame      -7.035  12.162  68.219  0.00  0.00     0.273 C 
ATOM     17  O2  non d ame      -6.611  11.445  67.380  0.00  0.00    -0.266 OA
ATOM     18  H5  non d ame      -8.472  12.305  69.828  0.00  0.00     0.163 HD
BRANCH  16  19
ATOM     19  C4  non d ame      -6.460  13.578  68.378  0.00  0.00     0.154 A 
ATOM     20  C1  non d ame      -6.480  14.392  69.555  0.00  0.00    -0.017 A 
ATOM     21  C2  non d ame      -5.829  15.589  69.179  0.00  0.00     0.077 A 
ATOM     22  H1  non d ame      -6.901  14.152  70.531  0.00  0.00     0.091 H 
ATOM     23  O1  non d ame      -5.480  15.465  67.932  0.00  0.00    -0.218 OA
ATOM     24  N1  non d ame      -5.838  14.301  67.443  0.00  0.00    -0.123 NA
BRANCH  21  25
ATOM     25  C3  non d ame      -5.582  16.799  70.071  0.00  0.00    -0.029 C 
ATOM     26  H2  non d ame      -6.426  16.930  70.749  0.00  0.00     0.036 H 
ATOM     27  H3  non d ame      -4.672  16.643  70.651  0.00  0.00     0.036 H 
ATOM     28  H4  non d ame      -5.471  17.690  69.453  0.00  0.00     0.036 H 
ENDBRANCH  21  25
ENDBRANCH  16  19
ENDBRANCH  13  15
BRANCH  13  29
ATOM     29  C8  non d ame      -8.003   9.424  69.941  0.00  0.00    -0.049 C 
ATOM     30  H7  non d ame      -8.314   9.700  70.949  0.00  0.00     0.030 H 
ATOM     31  H8  non d ame      -8.315   8.401  69.731  0.00  0.00     0.030 H 
ATOM     32  H9  non d ame      -6.918   9.497  69.864  0.00  0.00     0.030 H 
ENDBRANCH  13  29
ENDBRANCH  10  13
ENDBRANCH   7   9
BRANCH   7  33
ATOM     33  C11 non d ame     -12.511   9.431  71.951  0.00  0.00    -0.033 C 
ATOM     34  H12 non d ame     -12.631  10.072  72.825  0.00  0.00     0.042 H 
BRANCH  33  35
ATOM     35  C12 non d ame     -13.865   8.690  71.722  0.00  0.00    -0.071 C 
ATOM     36  H13 non d ame     -14.682   9.412  71.742  0.00  0.00     0.028 H 
ATOM     37  H14 non d ame     -13.846   8.190  70.754  0.00  0.00     0.028 H 
ATOM     38  H15 non d ame     -14.013   7.953  72.511  0.00  0.00     0.028 H 
ENDBRANCH  33  35
BRANCH  33  39
ATOM     39  C13 non d ame     -11.356   8.421  72.247  0.00  0.00    -0.071 C 
ATOM     40  H16 non d ame     -10.887   8.675  73.197  0.00  0.00     0.028 H 
ATOM     41  H17 non d ame     -11.762   7.411  72.301  0.00  0.00     0.028 H 
ATOM     42  H18 non d ame     -10.615   8.474  71.450  0.00  0.00     0.028 H 
ENDBRANCH  33  39
ENDBRANCH   7  33
ENDBRANCH   4   7
ENDBRANCH   1   3
BRANCH   1  43
ATOM     43  C15 non d ame     -11.877  15.176  69.389  0.00  0.00     0.240 C 
ATOM     44  O5  non d ame     -12.181  16.325  69.363  0.00  0.00    -0.271 OA
ATOM     45  N6  non d ame     -11.028  14.609  68.303  0.00  0.00    -0.355 N 
ATOM     46  H46 non d ame     -10.759  13.636  68.317  0.00  0.00     0.162 HD
BRANCH  45  47
ATOM     47  C20 non d ame     -10.577  15.479  67.195  0.00  0.00     0.013 C 
ATOM     48  H30 non d ame     -11.228  16.353  67.169  0.00  0.00     0.072 H 
BRANCH  47  49
ATOM     49  C21 non d ame     -10.678  14.721  65.891  0.00  0.00    -0.038 C 
ATOM     50  H31 non d ame     -11.688  14.903  65.522  0.00  0.00     0.036 H 
ATOM     51  H32 non d ame      -9.817  15.035  65.301  0.00  0.00     0.036 H 
BRANCH  49  52
ATOM     52  C22 non d ame     -10.549  13.193  66.075  0.00  0.00     0.018 C 
ATOM     53  H33 non d ame      -9.558  12.933  65.702  0.00  0.00     0.048 H 
ATOM     54  H34 non d ame     -10.808  12.998  67.116  0.00  0.00     0.048 H 
BRANCH  52  55
ATOM     55  C23 non d ame     -11.556  12.373  65.222  0.00  0.00     0.259 C 
ATOM     56  O7  non d ame     -12.725  12.560  65.323  0.00  0.00    -0.265 OA
BRANCH  55  57
ATOM     57  O8  non d ame     -11.066  11.384  64.325  0.00  0.00    -0.317 OA
BRANCH  57  58
ATOM     58  C29 non d ame     -10.179  11.893  63.325  0.00  0.00     0.052 C 
ATOM     59  H47 non d ame     -10.801  12.088  62.451  0.00  0.00     0.082 H 
ATOM     60  H48 non d ame      -9.636  12.709  63.800  0.00  0.00     0.082 H 
BRANCH  58  61
ATOM     61  C35 non d ame      -9.167  10.772  62.967  0.00  0.00    -0.034 A 
ATOM     62  C30 non d ame      -9.101   9.619  63.742  0.00  0.00    -0.075 A 
ATOM     63  C31 non d ame      -8.192   8.613  63.421  0.00  0.00    -0.082 A 
ATOM     64  H49 non d ame      -9.763   9.504  64.601  0.00  0.00     0.084 H 
ATOM     65  C32 non d ame      -7.343   8.764  62.320  0.00  0.00    -0.083 A 
ATOM     66  H50 non d ame      -8.144   7.709  64.029  0.00  0.00     0.083 H 
ATOM     67  C33 non d ame      -7.410   9.918  61.552  0.00  0.00    -0.082 A 
ATOM     68  H51 non d ame      -6.630   7.981  62.062  0.00  0.00     0.083 H 
ATOM     69  C34 non d ame      -8.319  10.925  61.868  0.00  0.00    -0.075 A 
ATOM     70  H52 non d ame      -6.745  10.034  60.695  0.00  0.00     0.083 H 
ATOM     71  H53 non d ame      -8.366  11.828  61.258  0.00  0.00     0.084 H 
ENDBRANCH  58  61
ENDBRANCH  57  58
ENDBRANCH  55  57
ENDBRANCH  52  55
ENDBRANCH  49  52
ENDBRANCH  47  49
BRANCH  47  72
ATOM     72  C24 non d ame      -9.128  15.903  67.428  0.00  0.00    -0.039 C 
ATOM     73  H35 non d ame      -8.813  15.374  68.328  0.00  0.00     0.036 H 
ATOM     74  H36 non d ame      -8.618  15.722  66.483  0.00  0.00     0.036 H 
BRANCH  72  75
ATOM     75  C25 non d ame      -9.012  17.470  67.737  0.00  0.00    -0.001 C 
ATOM     76  C26 non d ame     -10.363  18.247  67.211  0.00  0.00    -0.035 C 
ATOM     77  C27 non d ame      -9.991  19.293  66.436  0.00  0.00     0.085 C 
ATOM     78  H38 non d ame     -10.919  17.607  66.527  0.00  0.00     0.036 H 
ATOM     79  H39 non d ame     -10.872  18.720  68.051  0.00  0.00     0.036 H 
ATOM     80  N5  non d ame      -8.527  19.109  66.117  0.00  0.00    -0.049 N 
ATOM     81  H40 non d ame     -10.570  19.196  65.517  0.00  0.00     0.075 H 
ATOM     82  H41 non d ame     -10.109  20.176  67.063  0.00  0.00     0.075 H 
ATOM     83  C28 non d ame      -7.987  17.988  67.146  0.00  0.00     0.193 C 
ATOM     84  H42 non d ame      -8.483  18.734  65.181  0.00  0.00     0.280 HD
ATOM     85  H43 non d ame      -8.075  19.986  66.332  0.00  0.00     0.280 HD
ATOM     86  H44 non d ame      -7.383  18.272  68.008  0.00  0.00     0.129 H 
ATOM     87  H37 non d ame      -8.693  17.667  68.760  0.00  0.00     0.046 H 
BRANCH  83  88
ATOM     88  O6  non d ame      -7.216  17.009  66.447  0.00  0.00    -0.369 OA
ATOM     89  H45 non d ame      -7.530  16.940  65.543  0.00  0.00     0.212 HD
ENDBRANCH  83  88
ENDBRANCH  72  75
ENDBRANCH  47  72
ENDBRANCH  45  47
ENDBRANCH   1  43
BRANCH   1  90
ATOM     90  C16 non d ame     -11.714  14.737  71.859  0.00  0.00    -0.035 C 
ATOM     91  H21 non d ame     -11.542  13.827  72.436  0.00  0.00     0.037 H 
ATOM     92  H22 non d ame     -10.871  15.358  71.558  0.00  0.00     0.037 H 
BRANCH  90  93
ATOM     93  C17 non d ame     -12.640  15.643  72.731  0.00  0.00    -0.059 C 
ATOM     94  H23 non d ame     -12.348  16.679  72.558  0.00  0.00     0.038 H 
BRANCH  93  95
ATOM     95  C18 non d ame     -14.145  15.501  72.336  0.00  0.00    -0.073 C 
ATOM     96  H24 non d ame     -14.629  14.785  73.000  0.00  0.00     0.028 H 
ATOM     97  H25 non d ame     -14.637  16.470  72.426  0.00  0.00     0.028 H 
ATOM     98  H26 non d ame     -14.219  15.151  71.306  0.00  0.00     0.028 H 
ENDBRANCH  93  95
BRANCH  93  99
ATOM     99  C19 non d ame     -12.440  15.357  74.222  0.00  0.00    -0.073 C 
ATOM    100  H27 non d ame     -13.409  15.207  74.697  0.00  0.00     0.028 H 
ATOM    101  H28 non d ame     -11.834  14.457  74.340  0.00  0.00     0.028 H 
ATOM    102  H29 non d ame     -11.932  16.200  74.689  0.00  0.00     0.028 H 
ENDBRANCH  93  99
ENDBRANCH  90  93
ENDBRANCH   1  90
TORSDOF 26
ENDMDL
MODEL 2
REMARK VINA RESULT:      -6.8      2.524      8.135
REMARK  26 active torsions:
REMARK  status: ('A' for Active; 'I' for Inactive)
REMARK    1  A    between atoms: C2_2  and  C3_3 
REMARK    2  A    between atoms: C4_6  and  C5_7 
REMARK       I    between atoms: C5_7  and  N2_9 
REMARK    3  A    between atoms: N2_9  and  C6_10 
REMARK    4  A    between atoms: C6_10  and  C7_11 
REMARK    5  A    between atoms: C6_10  and  C8_13 
REMARK       I    between atoms: C7_11  and  N3_14 
REMARK    6  A    between atoms: N3_14  and  C9_15 
REMARK    7  A    between atoms: C9_15  and  C10_16 
REMARK    8  A    between atoms: C9_15  and  C11_18 
REMARK       I    between atoms: C10_16  and  N4_21 
REMARK    9  A    between atoms: C11_18  and  C12_19 
REMARK   10  A    between atoms: C11_18  and  C13_20 
REMARK   11  A    between atoms: N4_21  and  C14_22 
REMARK   12  A    between atoms: C14_22  and  C15_23 
REMARK   13  A    between atoms: C14_22  and  C16_25 
REMARK       I    between atoms: C15_23  and  N6_40 
REMARK   14  A    between atoms: C16_25  and  C17_26 
REMARK   15  A    between atoms: C17_26  and  C18_27 
REMARK   16  A    between atoms: C17_26  and  C19_28 
REMARK   17  A    between atoms: C20_29  and  C21_30 
REMARK   18  A    between atoms: C20_29  and  C24_33 
REMARK   19  A    between atoms: C20_29  and  N6_40 
REMARK   20  A    between atoms: C21_30  and  C22_31 
REMARK   21  A    between atoms: C22_31  and  C23_32 
REMARK   22  A    between atoms: C23_32  and  O8_43 
REMARK   23  A    between atoms: C24_33  and  C25_34 
REMARK   24  A    between atoms: C28_38  and  O6_39 
REMARK   25  A    between atoms: C29_42  and  O8_43 
REMARK   26  A    between atoms: C29_42  and  C35_49 
ROOT
ATOM      1  C14 non d ame      -6.651  15.376  67.939  0.00  0.00     0.089 C 
ATOM      2  H20 non d ame      -5.939  15.871  67.278  0.00  0.00     0.087 H 
ENDROOT
BRANCH   1   3
ATOM      3  N4  non d ame      -7.986  15.650  67.430  0.00  0.00    -0.346 N 
ATOM      4  C10 non d ame      -8.316  17.000  66.845  0.00  0.00     0.241 C 
ATOM      5  O4  non d ame      -7.491  17.851  66.798  0.00  0.00    -0.271 OA
ATOM      6  H19 non d ame      -8.675  14.912  67.482  0.00  0.00     0.163 HD
BRANCH   4   7
ATOM      7  C9  non d ame      -9.702  17.264  66.317  0.00  0.00     0.092 C 
ATOM      8  H11 non d ame      -9.629  17.818  65.381  0.00  0.00     0.088 H 
BRANCH   7   9
ATOM      9  N3  non d ame     -10.362  15.990  66.017  0.00  0.00    -0.346 N 
ATOM     10  C7  non d ame     -11.181  15.864  64.836  0.00  0.00     0.240 C 
ATOM     11  O3  non d ame     -11.320  16.778  64.118  0.00  0.00    -0.271 OA
ATOM     12  H10 non d ame     -10.252  15.194  66.628  0.00  0.00     0.163 HD
BRANCH  10  13
ATOM     13  C6  non d ame     -11.884  14.506  64.524  0.00  0.00     0.086 C 
ATOM     14  H6  non d ame     -12.484  14.542  63.615  0.00  0.00     0.086 H 
BRANCH  13  15
ATOM     15  N2  non d ame     -10.868  13.488  64.312  0.00  0.00    -0.343 N 
ATOM     16  C5  non d ame     -11.218  12.258  63.598  0.00  0.00     0.273 C 
ATOM     17  O2  non d ame     -12.319  12.097  63.199  0.00  0.00    -0.266 OA
ATOM     18  H5  non d ame      -9.930  13.633  64.659  0.00  0.00     0.163 HD
BRANCH  16  19
ATOM     19  C4  non d ame     -10.155  11.174  63.366  0.00  0.00     0.154 A 
ATOM     20  C1  non d ame      -9.832  10.080  64.230  0.00  0.00    -0.017 A 
ATOM     21  C2  non d ame      -8.798   9.384  63.566  0.00  0.00     0.077 A 
ATOM     22  H1  non d ame     -10.280   9.830  65.193  0.00  0.00     0.091 H 
ATOM     23  O1  non d ame      -8.563  10.011  62.451  0.00  0.00    -0.218 OA
ATOM     24  N1  non d ame      -9.342  11.059  62.312  0.00  0.00    -0.123 NA
BRANCH  21  25
ATOM     25  C3  non d ame      -8.091   8.130  64.063  0.00  0.00    -0.029 C 
ATOM     26  H2  non d ame      -8.822   7.448  64.498  0.00  0.00     0.036 H 
ATOM     27  H3  non d ame      -7.590   7.640  63.228  0.00  0.00     0.036 H 
ATOM     28  H4  non d ame      -7.354   8.403  64.819  0.00  0.00     0.036 H 
ENDBRANCH  21  25
ENDBRANCH  16  19
ENDBRANCH  13  15
BRANCH  13  29
ATOM     29  C8  non d ame     -12.771  14.119  65.679  0.00  0.00    -0.049 C 
ATOM     30  H7  non d ame     -13.739  13.791  65.300  0.00  0.00     0.030 H 
ATOM     31  H8  non d ame     -12.306  13.308  66.239  0.00  0.00     0.030 H 
ATOM     32  H9  non d ame     -12.911  14.979  66.333  0.00  0.00     0.030 H 
ENDBRANCH  13  29
ENDBRANCH  10  13
ENDBRANCH   7   9
BRANCH   7  33
ATOM     33  C11 non d ame     -10.527  18.033  67.390  0.00  0.00    -0.033 C 
ATOM     34  H12 non d ame     -11.573  17.753  67.263  0.00  0.00     0.042 H 
BRANCH  33  35
ATOM     35  C12 non d ame     -10.104  17.622  68.835  0.00  0.00    -0.071 C 
ATOM     36  H13 non d ame      -9.319  18.292  69.188  0.00  0.00     0.028 H 
ATOM     37  H14 non d ame     -10.965  17.692  69.499  0.00  0.00     0.028 H 
ATOM     38  H15 non d ame      -9.732  16.598  68.827  0.00  0.00     0.028 H 
ENDBRANCH  33  35
BRANCH  33  39
ATOM     39  C13 non d ame     -10.412  19.577  67.184  0.00  0.00    -0.071 C 
ATOM     40  H16 non d ame     -10.632  19.822  66.145  0.00  0.00     0.028 H 
ATOM     41  H17 non d ame     -11.125  20.085  67.835  0.00  0.00     0.028 H 
ATOM     42  H18 non d ame      -9.401  19.902  67.429  0.00  0.00     0.028 H 
ENDBRANCH  33  39
ENDBRANCH   7  33
ENDBRANCH   4   7
ENDBRANCH   1   3
BRANCH   1  43
ATOM     43  C15 non d ame      -6.442  13.835  67.978  0.00  0.00     0.240 C 
ATOM     44  O5  non d ame      -5.658  13.326  67.244  0.00  0.00    -0.271 OA
ATOM     45  N6  non d ame      -7.213  12.994  68.937  0.00  0.00    -0.355 N 
ATOM     46  H46 non d ame      -7.879  13.415  69.569  0.00  0.00     0.162 HD
BRANCH  45  47
ATOM     47  C20 non d ame      -7.002  11.530  68.963  0.00  0.00     0.013 C 
ATOM     48  H30 non d ame      -6.435  11.257  68.073  0.00  0.00     0.072 H 
BRANCH  47  49
ATOM     49  C21 non d ame      -8.343  10.832  68.955  0.00  0.00    -0.038 C 
ATOM     50  H31 non d ame      -8.121   9.767  69.024  0.00  0.00     0.036 H 
ATOM     51  H32 non d ame      -8.932  11.317  69.733  0.00  0.00     0.036 H 
BRANCH  49  52
ATOM     52  C22 non d ame      -9.116  11.032  67.633  0.00  0.00     0.018 C 
ATOM     53  H33 non d ame      -8.363  11.288  66.887  0.00  0.00     0.048 H 
ATOM     54  H34 non d ame      -9.725  10.136  67.508  0.00  0.00     0.048 H 
BRANCH  52  55
ATOM     55  C23 non d ame     -10.111  12.225  67.664  0.00  0.00     0.259 C 
ATOM     56  O7  non d ame      -9.779  13.298  67.278  0.00  0.00    -0.265 OA
BRANCH  55  57
ATOM     57  O8  non d ame     -11.424  12.024  68.173  0.00  0.00    -0.317 OA
BRANCH  57  58
ATOM     58  C29 non d ame     -11.468  11.735  69.574  0.00  0.00     0.052 C 
ATOM     59  H47 non d ame     -12.106  10.857  69.674  0.00  0.00     0.082 H 
ATOM     60  H48 non d ame     -10.429  11.695  69.899  0.00  0.00     0.082 H 
BRANCH  58  61
ATOM     61  C35 non d ame     -12.160  12.928  70.286  0.00  0.00    -0.034 A 
ATOM     62  C30 non d ame     -12.925  12.709  71.428  0.00  0.00    -0.075 A 
ATOM     63  C31 non d ame     -13.546  13.780  72.068  0.00  0.00    -0.082 A 
ATOM     64  H49 non d ame     -13.036  11.698  71.821  0.00  0.00     0.084 H 
ATOM     65  C32 non d ame     -13.403  15.074  71.561  0.00  0.00    -0.083 A 
ATOM     66  H50 non d ame     -14.142  13.605  72.964  0.00  0.00     0.083 H 
ATOM     67  C33 non d ame     -12.642  15.288  70.420  0.00  0.00    -0.082 A 
ATOM     68  H51 non d ame     -13.885  15.917  72.056  0.00  0.00     0.083 H 
ATOM     69  C34 non d ame     -12.017  14.220  69.778  0.00  0.00    -0.075 A 
ATOM     70  H52 non d ame     -12.534  16.298  70.026  0.00  0.00     0.083 H 
ATOM     71  H53 non d ame     -11.420  14.396  68.883  0.00  0.00     0.084 H 
ENDBRANCH  58  61
ENDBRANCH  57  58
ENDBRANCH  55  57
ENDBRANCH  52  55
ENDBRANCH  49  52
ENDBRANCH  47  49
BRANCH  47  72
ATOM     72  C24 non d ame      -6.232  11.141  70.223  0.00  0.00    -0.039 C 
ATOM     73  H35 non d ame      -6.750  11.637  71.044  0.00  0.00     0.036 H 
ATOM     74  H36 non d ame      -6.166  10.053  70.198  0.00  0.00     0.036 H 
BRANCH  72  75
ATOM     75  C25 non d ame      -4.733  11.706  70.199  0.00  0.00    -0.001 C 
ATOM     76  C26 non d ame      -3.675  10.501  70.561  0.00  0.00    -0.035 C 
ATOM     77  C27 non d ame      -2.854  10.924  71.553  0.00  0.00     0.085 C 
ATOM     78  H38 non d ame      -4.204   9.661  71.010  0.00  0.00     0.036 H 
ATOM     79  H39 non d ame      -2.997  10.334  69.724  0.00  0.00     0.036 H 
ATOM     80  N5  non d ame      -3.464  12.182  72.123  0.00  0.00    -0.049 N 
ATOM     81  H40 non d ame      -2.883  10.140  72.310  0.00  0.00     0.075 H 
ATOM     82  H41 non d ame      -1.913  11.176  71.064  0.00  0.00     0.075 H 
ATOM     83  C28 non d ame      -4.579  12.658  71.058  0.00  0.00     0.193 C 
ATOM     84  H42 non d ame      -3.930  11.912  72.978  0.00  0.00     0.280 HD
ATOM     85  H43 non d ame      -2.726  12.872  72.147  0.00  0.00     0.280 HD
ATOM     86  H44 non d ame      -4.384  13.497  70.390  0.00  0.00     0.129 H 
ATOM     87  H37 non d ame      -4.528  12.294  69.304  0.00  0.00     0.046 H 
BRANCH  83  88
ATOM     88  O6  non d ame      -5.797  12.980  71.730  0.00  0.00    -0.369 OA
ATOM     89  H45 non d ame      -6.456  13.250  71.086  0.00  0.00     0.212 HD
ENDBRANCH  83  88
ENDBRANCH  72  75
ENDBRANCH  47  72
ENDBRANCH  45  47
ENDBRANCH   1  43
BRANCH   1  90
ATOM     90  C16 non d ame      -6.529  15.943  69.345  0.00  0.00    -0.035 C 
ATOM     91  H21 non d ame      -7.386  16.607  69.463  0.00  0.00     0.037 H 
ATOM     92  H22 non d ame      -6.418  15.077  69.997  0.00  0.00     0.037 H 
BRANCH  90  93
ATOM     93  C17 non d ame      -5.257  16.823  69.557  0.00  0.00    -0.059 C 
ATOM     94  H23 non d ame      -4.651  16.348  70.329  0.00  0.00     0.038 H 
BRANCH  93  95
ATOM     95  C18 non d ame      -4.387  16.924  68.263  0.00  0.00    -0.073 C 
ATOM     96  H24 non d ame      -3.779  17.828  68.304  0.00  0.00     0.028 H 
ATOM     97  H25 non d ame      -3.737  16.052  68.193  0.00  0.00     0.028 H 
ATOM     98  H26 non d ame      -5.038  16.963  67.390  0.00  0.00     0.028 H 
ENDBRANCH  93  95
BRANCH  93  99
ATOM     99  C19 non d ame      -5.634  18.216  70.069  0.00  0.00    -0.073 C 
ATOM    100  H27 non d ame      -6.667  18.207  70.419  0.00  0.00     0.028 H 
ATOM    101  H28 non d ame      -4.974  18.492  70.892  0.00  0.00     0.028 H 
ATOM    102  H29 non d ame      -5.530  18.941  69.262  0.00  0.00     0.028 H 
ENDBRANCH  93  99
ENDBRANCH  90  93
ENDBRANCH   1  90
TORSDOF 26
ENDMDL
MODEL 3
REMARK VINA RESULT:      -6.6      2.588      6.990
REMARK  26 active torsions:
REMARK  status: ('A' for Active; 'I' for Inactive)
REMARK    1  A    between atoms: C2_2  and  C3_3 
REMARK    2  A    between atoms: C4_6  and  C5_7 
REMARK       I    between atoms: C5_7  and  N2_9 
REMARK    3  A    between atoms: N2_9  and  C6_10 
REMARK    4  A    between atoms: C6_10  and  C7_11 
REMARK    5  A    between atoms: C6_10  and  C8_13 
REMARK       I    between atoms: C7_11  and  N3_14 
REMARK    6  A    between atoms: N3_14  and  C9_15 
REMARK    7  A    between atoms: C9_15  and  C10_16 
REMARK    8  A    between atoms: C9_15  and  C11_18 
REMARK       I    between atoms: C10_16  and  N4_21 
REMARK    9  A    between atoms: C11_18  and  C12_19 
REMARK   10  A    between atoms: C11_18  and  C13_20 
REMARK   11  A    between atoms: N4_21  and  C14_22 
REMARK   12  A    between atoms: C14_22  and  C15_23 
REMARK   13  A    between atoms: C14_22  and  C16_25 
REMARK       I    between atoms: C15_23  and  N6_40 
REMARK   14  A    between atoms: C16_25  and  C17_26 
REMARK   15  A    between atoms: C17_26  and  C18_27 
REMARK   16  A    between atoms: C17_26  and  C19_28 
REMARK   17  A    between atoms: C20_29  and  C21_30 
REMARK   18  A    between atoms: C20_29  and  C24_33 
REMARK   19  A    between atoms: C20_29  and  N6_40 
REMARK   20  A    between atoms: C21_30  and  C22_31 
REMARK   21  A    between atoms: C22_31  and  C23_32 
REMARK   22  A    between atoms: C23_32  and  O8_43 
REMARK   23  A    between atoms: C24_33  and  C25_34 
REMARK   24  A    between atoms: C28_38  and  O6_39 
REMARK   25  A    between atoms: C29_42  and  O8_43 
REMARK   26  A    between atoms: C29_42  and  C35_49 
ROOT
ATOM      1  C14 non d ame     -10.949   9.295  69.653  0.00  0.00     0.089 C 
ATOM      2  H20 non d ame     -11.494   8.482  69.173  0.00  0.00     0.087 H 
ENDROOT
BRANCH   1   3
ATOM      3  N4  non d ame      -9.589   9.276  69.136  0.00  0.00    -0.346 N 
ATOM      4  C10 non d ame      -9.080   8.079  68.374  0.00  0.00     0.241 C 
ATOM      5  O4  non d ame      -9.783   7.140  68.192  0.00  0.00    -0.271 OA
ATOM      6  H19 non d ame      -9.006  10.084  69.304  0.00  0.00     0.163 HD
BRANCH   4   7
ATOM      7  C9  non d ame      -7.671   8.078  67.841  0.00  0.00     0.092 C 
ATOM      8  H11 non d ame      -7.456   7.106  67.399  0.00  0.00     0.088 H 
BRANCH   7   9
ATOM      9  N3  non d ame      -7.552   9.077  66.774  0.00  0.00    -0.346 N 
ATOM     10  C7  non d ame      -7.095   8.680  65.465  0.00  0.00     0.240 C 
ATOM     11  O3  non d ame      -6.817   7.563  65.254  0.00  0.00    -0.271 OA
ATOM     12  H10 non d ame      -7.786  10.044  66.943  0.00  0.00     0.163 HD
BRANCH  10  13
ATOM     13  C6  non d ame      -6.967   9.748  64.334  0.00  0.00     0.086 C 
ATOM     14  H6  non d ame      -7.051   9.317  63.337  0.00  0.00     0.086 H 
BRANCH  13  15
ATOM     15  N2  non d ame      -8.051  10.707  64.466  0.00  0.00    -0.343 N 
ATOM     16  C5  non d ame      -9.242  10.569  63.625  0.00  0.00     0.273 C 
ATOM     17  O2  non d ame      -9.316   9.686  62.843  0.00  0.00    -0.266 OA
ATOM     18  H5  non d ame      -7.978  11.460  65.135  0.00  0.00     0.163 HD
BRANCH  16  19
ATOM     19  C4  non d ame     -10.396  11.575  63.755  0.00  0.00     0.154 A 
ATOM     20  C1  non d ame     -10.332  12.901  64.289  0.00  0.00    -0.017 A 
ATOM     21  C2  non d ame     -11.650  13.400  64.183  0.00  0.00     0.077 A 
ATOM     22  H1  non d ame      -9.463  13.421  64.693  0.00  0.00     0.091 H 
ATOM     23  O1  non d ame     -12.377  12.463  63.648  0.00  0.00    -0.218 OA
ATOM     24  N1  non d ame     -11.668  11.388  63.389  0.00  0.00    -0.123 NA
BRANCH  21  25
ATOM     25  C3  non d ame     -12.129  14.779  64.614  0.00  0.00    -0.029 C 
ATOM     26  H2  non d ame     -12.956  14.674  65.317  0.00  0.00     0.036 H 
ATOM     27  H3  non d ame     -11.310  15.314  65.095  0.00  0.00     0.036 H 
ATOM     28  H4  non d ame     -12.464  15.338  63.740  0.00  0.00     0.036 H 
ENDBRANCH  21  25
ENDBRANCH  16  19
ENDBRANCH  13  15
BRANCH  13  29
ATOM     29  C8  non d ame      -5.638  10.451  64.451  0.00  0.00    -0.049 C 
ATOM     30  H7  non d ame      -5.415  10.634  65.502  0.00  0.00     0.030 H 
ATOM     31  H8  non d ame      -4.857   9.827  64.017  0.00  0.00     0.030 H 
ATOM     32  H9  non d ame      -5.683  11.401  63.920  0.00  0.00     0.030 H 
ENDBRANCH  13  29
ENDBRANCH  10  13
ENDBRANCH   7   9
BRANCH   7  33
ATOM     33  C11 non d ame      -6.682   8.431  68.991  0.00  0.00    -0.033 C 
ATOM     34  H12 non d ame      -7.253   8.460  69.919  0.00  0.00     0.042 H 
BRANCH  33  35
ATOM     35  C12 non d ame      -5.583   7.335  69.151  0.00  0.00    -0.071 C 
ATOM     36  H13 non d ame      -4.853   7.659  69.893  0.00  0.00     0.028 H 
ATOM     37  H14 non d ame      -6.044   6.403  69.477  0.00  0.00     0.028 H 
ATOM     38  H15 non d ame      -5.084   7.179  68.195  0.00  0.00     0.028 H 
ENDBRANCH  33  35
BRANCH  33  39
ATOM     39  C13 non d ame      -6.048   9.842  68.770  0.00  0.00    -0.071 C 
ATOM     40  H16 non d ame      -6.791  10.510  68.336  0.00  0.00     0.028 H 
ATOM     41  H17 non d ame      -5.713  10.244  69.727  0.00  0.00     0.028 H 
ATOM     42  H18 non d ame      -5.198   9.756  68.094  0.00  0.00     0.028 H 
ENDBRANCH  33  39
ENDBRANCH   7  33
ENDBRANCH   4   7
ENDBRANCH   1   3
BRANCH   1  43
ATOM     43  C15 non d ame     -11.577  10.685  69.346  0.00  0.00     0.240 C 
ATOM     44  O5  non d ame     -11.975  10.925  68.253  0.00  0.00    -0.271 OA
ATOM     45  N6  non d ame     -11.688  11.714  70.419  0.00  0.00    -0.355 N 
ATOM     46  H46 non d ame     -11.358  11.520  71.353  0.00  0.00     0.162 HD
BRANCH  45  47
ATOM     47  C20 non d ame     -12.289  13.031  70.111  0.00  0.00     0.013 C 
ATOM     48  H30 non d ame     -12.926  12.912  69.235  0.00  0.00     0.072 H 
BRANCH  47  49
ATOM     49  C21 non d ame     -11.188  14.026  69.819  0.00  0.00    -0.038 C 
ATOM     50  H31 non d ame     -11.519  14.968  70.255  0.00  0.00     0.036 H 
ATOM     51  H32 non d ame     -10.268  13.557  70.167  0.00  0.00     0.036 H 
BRANCH  49  52
ATOM     52  C22 non d ame     -11.002  14.286  68.308  0.00  0.00     0.018 C 
ATOM     53  H33 non d ame     -11.669  13.587  67.803  0.00  0.00     0.048 H 
ATOM     54  H34 non d ame     -11.136  15.360  68.175  0.00  0.00     0.048 H 
BRANCH  52  55
ATOM     55  C23 non d ame      -9.573  13.965  67.789  0.00  0.00     0.259 C 
ATOM     56  O7  non d ame      -9.236  12.840  67.604  0.00  0.00    -0.265 OA
BRANCH  55  57
ATOM     57  O8  non d ame      -8.663  15.032  67.549  0.00  0.00    -0.317 OA
BRANCH  57  58
ATOM     58  C29 non d ame      -8.820  15.654  66.270  0.00  0.00     0.052 C 
ATOM     59  H47 non d ame      -7.859  15.543  65.768  0.00  0.00     0.082 H 
ATOM     60  H48 non d ame      -9.716  15.212  65.836  0.00  0.00     0.082 H 
BRANCH  58  61
ATOM     61  C35 non d ame      -9.081  17.166  66.503  0.00  0.00    -0.034 A 
ATOM     62  C30 non d ame     -10.343  17.603  66.894  0.00  0.00    -0.075 A 
ATOM     63  C31 non d ame     -10.578  18.961  67.102  0.00  0.00    -0.082 A 
ATOM     64  H49 non d ame     -11.148  16.882  67.037  0.00  0.00     0.084 H 
ATOM     65  C32 non d ame      -9.546  19.885  66.916  0.00  0.00    -0.083 A 
ATOM     66  H50 non d ame     -11.567  19.300  67.411  0.00  0.00     0.083 H 
ATOM     67  C33 non d ame      -8.289  19.444  66.523  0.00  0.00    -0.082 A 
ATOM     68  H51 non d ame      -9.721  20.948  67.078  0.00  0.00     0.083 H 
ATOM     69  C34 non d ame      -8.049  18.088  66.316  0.00  0.00    -0.075 A 
ATOM     70  H52 non d ame      -7.486  20.167  66.377  0.00  0.00     0.083 H 
ATOM     71  H53 non d ame      -7.059  17.749  66.008  0.00  0.00     0.084 H 
ENDBRANCH  58  61
ENDBRANCH  57  58
ENDBRANCH  55  57
ENDBRANCH  52  55
ENDBRANCH  49  52
ENDBRANCH  47  49
BRANCH  47  72
ATOM     72  C24 non d ame     -13.110  13.515  71.304  0.00  0.00    -0.039 C 
ATOM     73  H35 non d ame     -14.118  13.670  70.918  0.00  0.00     0.036 H 
ATOM     74  H36 non d ame     -12.936  12.783  72.093  0.00  0.00     0.036 H 
BRANCH  72  75
ATOM     75  C25 non d ame     -12.590  14.929  71.847  0.00  0.00    -0.001 C 
ATOM     76  C26 non d ame     -12.069  14.776  73.399  0.00  0.00    -0.035 C 
ATOM     77  C27 non d ame     -12.667  15.727  74.156  0.00  0.00     0.085 C 
ATOM     78  H38 non d ame     -12.436  13.843  73.826  0.00  0.00     0.036 H 
ATOM     79  H39 non d ame     -11.010  15.027  73.465  0.00  0.00     0.036 H 
ATOM     80  N5  non d ame     -13.792  16.305  73.332  0.00  0.00    -0.049 N 
ATOM     81  H40 non d ame     -13.088  15.197  75.011  0.00  0.00     0.075 H 
ATOM     82  H41 non d ame     -11.910  16.495  74.310  0.00  0.00     0.075 H 
ATOM     83  C28 non d ame     -13.528  15.816  71.816  0.00  0.00     0.193 C 
ATOM     84  H42 non d ame     -14.642  15.873  73.665  0.00  0.00     0.280 HD
ATOM     85  H43 non d ame     -13.688  17.309  73.368  0.00  0.00     0.280 HD
ATOM     86  H44 non d ame     -13.125  16.506  71.074  0.00  0.00     0.129 H 
ATOM     87  H37 non d ame     -11.916  15.419  71.144  0.00  0.00     0.046 H 
BRANCH  83  88
ATOM     88  O6  non d ame     -14.735  15.304  71.246  0.00  0.00    -0.369 OA
ATOM     89  H45 non d ame     -14.818  14.372  71.458  0.00  0.00     0.212 HD
ENDBRANCH  83  88
ENDBRANCH  72  75
ENDBRANCH  47  72
ENDBRANCH  45  47
ENDBRANCH   1  43
BRANCH   1  90
ATOM     90  C16 non d ame     -10.912   9.072  71.157  0.00  0.00    -0.035 C 
ATOM     91  H21 non d ame      -9.967   9.503  71.489  0.00  0.00     0.037 H 
ATOM     92  H22 non d ame     -11.854   9.471  71.531  0.00  0.00     0.037 H 
BRANCH  90  93
ATOM     93  C17 non d ame     -10.877   7.565  71.566  0.00  0.00    -0.059 C 
ATOM     94  H23 non d ame      -9.991   7.120  71.112  0.00  0.00     0.038 H 
BRANCH  93  95
ATOM     95  C18 non d ame     -10.766   7.377  73.113  0.00  0.00    -0.073 C 
ATOM     96  H24 non d ame     -11.496   6.638  73.442  0.00  0.00     0.028 H 
ATOM     97  H25 non d ame      -9.762   7.034  73.366  0.00  0.00     0.028 H 
ATOM     98  H26 non d ame     -10.961   8.327  73.609  0.00  0.00     0.028 H 
ENDBRANCH  93  95
BRANCH  93  99
ATOM     99  C19 non d ame     -12.094   6.820  71.013  0.00  0.00    -0.073 C 
ATOM    100  H27 non d ame     -12.026   6.768  69.926  0.00  0.00     0.028 H 
ATOM    101  H28 non d ame     -12.120   5.810  71.424  0.00  0.00     0.028 H 
ATOM    102  H29 non d ame     -13.004   7.350  71.295  0.00  0.00     0.028 H 
ENDBRANCH  93  99
ENDBRANCH  90  93
ENDBRANCH   1  90
TORSDOF 26
ENDMDL
MODEL 4
REMARK VINA RESULT:      -6.6      2.864      9.119
REMARK  26 active torsions:
REMARK  status: ('A' for Active; 'I' for Inactive)
REMARK    1  A    between atoms: C2_2  and  C3_3 
REMARK    2  A    between atoms: C4_6  and  C5_7 
REMARK       I    between atoms: C5_7  and  N2_9 
REMARK    3  A    between atoms: N2_9  and  C6_10 
REMARK    4  A    between atoms: C6_10  and  C7_11 
REMARK    5  A    between atoms: C6_10  and  C8_13 
REMARK       I    between atoms: C7_11  and  N3_14 
REMARK    6  A    between atoms: N3_14  and  C9_15 
REMARK    7  A    between atoms: C9_15  and  C10_16 
REMARK    8  A    between atoms: C9_15  and  C11_18 
REMARK       I    between atoms: C10_16  and  N4_21 
REMARK    9  A    between atoms: C11_18  and  C12_19 
REMARK   10  A    between atoms: C11_18  and  C13_20 
REMARK   11  A    between atoms: N4_21  and  C14_22 
REMARK   12  A    between atoms: C14_22  and  C15_23 
REMARK   13  A    between atoms: C14_22  and  C16_25 
REMARK       I    between atoms: C15_23  and  N6_40 
REMARK   14  A    between atoms: C16_25  and  C17_26 
REMARK   15  A    between atoms: C17_26  and  C18_27 
REMARK   16  A    between atoms: C17_26  and  C19_28 
REMARK   17  A    between atoms: C20_29  and  C21_30 
REMARK   18  A    between atoms: C20_29  and  C24_33 
REMARK   19  A    between atoms: C20_29  and  N6_40 
REMARK   20  A    between atoms: C21_30  and  C22_31 
REMARK   21  A    between atoms: C22_31  and  C23_32 
REMARK   22  A    between atoms: C23_32  and  O8_43 
REMARK   23  A    between atoms: C24_33  and  C25_34 
REMARK   24  A    between atoms: C28_38  and  O6_39 
REMARK   25  A    between atoms: C29_42  and  O8_43 
REMARK   26  A    between atoms: C29_42  and  C35_49 
ROOT
ATOM      1  C14 non d ame      -9.224   7.066  66.359  0.00  0.00     0.089 C 
ATOM      2  H20 non d ame      -9.735   6.652  65.490  0.00  0.00     0.087 H 
ENDROOT
BRANCH   1   3
ATOM      3  N4  non d ame      -8.737   8.388  65.994  0.00  0.00    -0.346 N 
ATOM      4  C10 non d ame      -8.247   8.660  64.595  0.00  0.00     0.241 C 
ATOM      5  O4  non d ame      -8.251   7.797  63.779  0.00  0.00    -0.271 OA
ATOM      6  H19 non d ame      -8.740   9.108  66.703  0.00  0.00     0.163 HD
BRANCH   4   7
ATOM      7  C9  non d ame      -7.752  10.036  64.233  0.00  0.00     0.092 C 
ATOM      8  H11 non d ame      -7.681  10.117  63.148  0.00  0.00     0.088 H 
BRANCH   7   9
ATOM      9  N3  non d ame      -8.725  11.038  64.679  0.00  0.00    -0.346 N 
ATOM     10  C7  non d ame      -9.939  11.247  63.930  0.00  0.00     0.240 C 
ATOM     11  O3  non d ame     -10.149  10.620  62.965  0.00  0.00    -0.271 OA
ATOM     12  H10 non d ame      -8.557  11.588  65.509  0.00  0.00     0.163 HD
BRANCH  10  13
ATOM     13  C6  non d ame     -10.969  12.318  64.408  0.00  0.00     0.086 C 
ATOM     14  H6  non d ame     -11.490  12.023  65.319  0.00  0.00     0.086 H 
BRANCH  13  15
ATOM     15  N2  non d ame     -10.260  13.549  64.715  0.00  0.00    -0.343 N 
ATOM     16  C5  non d ame     -10.871  14.527  65.618  0.00  0.00     0.273 C 
ATOM     17  O2  non d ame     -11.933  14.315  66.091  0.00  0.00    -0.266 OA
ATOM     18  H5  non d ame      -9.354  13.724  64.304  0.00  0.00     0.163 HD
BRANCH  16  19
ATOM     19  C4  non d ame     -10.133  15.833  65.952  0.00  0.00     0.154 A 
ATOM     20  C1  non d ame      -9.177  16.043  66.996  0.00  0.00    -0.017 A 
ATOM     21  C2  non d ame      -8.802  17.400  66.878  0.00  0.00     0.077 A 
ATOM     22  H1  non d ame      -8.811  15.321  67.727  0.00  0.00     0.091 H 
ATOM     23  O1  non d ame      -9.469  17.900  65.880  0.00  0.00    -0.218 OA
ATOM     24  N1  non d ame     -10.253  17.005  65.324  0.00  0.00    -0.123 NA
BRANCH  21  25
ATOM     25  C3  non d ame      -7.801  18.138  67.757  0.00  0.00    -0.029 C 
ATOM     26  H2  non d ame      -8.034  19.204  67.757  0.00  0.00     0.036 H 
ATOM     27  H3  non d ame      -7.859  17.754  68.775  0.00  0.00     0.036 H 
ATOM     28  H4  non d ame      -6.794  17.986  67.368  0.00  0.00     0.036 H 
ENDBRANCH  21  25
ENDBRANCH  16  19
ENDBRANCH  13  15
BRANCH  13  29
ATOM     29  C8  non d ame     -11.985  12.563  63.322  0.00  0.00    -0.049 C 
ATOM     30  H7  non d ame     -12.919  12.904  63.768  0.00  0.00     0.030 H 
ATOM     31  H8  non d ame     -11.609  13.324  62.638  0.00  0.00     0.030 H 
ATOM     32  H9  non d ame     -12.161  11.637  62.774  0.00  0.00     0.030 H 
ENDBRANCH  13  29
ENDBRANCH  10  13
ENDBRANCH   7   9
BRANCH   7  33
ATOM     33  C11 non d ame      -6.386  10.296  64.931  0.00  0.00    -0.033 C 
ATOM     34  H12 non d ame      -5.849  11.035  64.337  0.00  0.00     0.042 H 
BRANCH  33  35
ATOM     35  C12 non d ame      -6.582  10.893  66.359  0.00  0.00    -0.071 C 
ATOM     36  H13 non d ame      -5.847  11.681  66.528  0.00  0.00     0.028 H 
ATOM     37  H14 non d ame      -7.585  11.309  66.444  0.00  0.00     0.028 H 
ATOM     38  H15 non d ame      -6.450  10.108  67.103  0.00  0.00     0.028 H 
ENDBRANCH  33  35
BRANCH  33  39
ATOM     39  C13 non d ame      -5.523   8.993  64.976  0.00  0.00    -0.071 C 
ATOM     40  H16 non d ame      -4.569   9.173  64.483  0.00  0.00     0.028 H 
ATOM     41  H17 non d ame      -5.349   8.708  66.014  0.00  0.00     0.028 H 
ATOM     42  H18 non d ame      -6.052   8.190  64.463  0.00  0.00     0.028 H 
ENDBRANCH  33  39
ENDBRANCH   7  33
ENDBRANCH   4   7
ENDBRANCH   1   3
BRANCH   1  43
ATOM     43  C15 non d ame     -10.171   7.207  67.585  0.00  0.00     0.240 C 
ATOM     44  O5  non d ame     -11.175   6.573  67.633  0.00  0.00    -0.271 OA
ATOM     45  N6  non d ame      -9.821   8.127  68.705  0.00  0.00    -0.355 N 
ATOM     46  H46 non d ame      -8.969   8.668  68.678  0.00  0.00     0.162 HD
BRANCH  45  47
ATOM     47  C20 non d ame     -10.732   8.250  69.864  0.00  0.00     0.013 C 
ATOM     48  H30 non d ame     -11.737   7.991  69.530  0.00  0.00     0.072 H 
BRANCH  47  49
ATOM     49  C21 non d ame     -10.706   9.674  70.371  0.00  0.00    -0.038 C 
ATOM     50  H31 non d ame     -10.661   9.599  71.458  0.00  0.00     0.036 H 
ATOM     51  H32 non d ame      -9.902  10.166  69.825  0.00  0.00     0.036 H 
BRANCH  49  52
ATOM     52  C22 non d ame     -11.999  10.451  70.041  0.00  0.00     0.018 C 
ATOM     53  H33 non d ame     -12.750   9.693  69.815  0.00  0.00     0.048 H 
ATOM     54  H34 non d ame     -12.152  11.138  70.873  0.00  0.00     0.048 H 
BRANCH  52  55
ATOM     55  C23 non d ame     -11.889  11.337  68.769  0.00  0.00     0.259 C 
ATOM     56  O7  non d ame     -11.503  10.876  67.744  0.00  0.00    -0.265 OA
BRANCH  55  57
ATOM     57  O8  non d ame     -12.242  12.713  68.846  0.00  0.00    -0.317 OA
BRANCH  57  58
ATOM     58  C29 non d ame     -11.260  13.532  69.486  0.00  0.00     0.052 C 
ATOM     59  H47 non d ame     -10.495  12.845  69.849  0.00  0.00     0.082 H 
ATOM     60  H48 non d ame     -11.001  14.303  68.762  0.00  0.00     0.082 H 
BRANCH  58  61
ATOM     61  C35 non d ame     -11.928  14.213  70.710  0.00  0.00    -0.034 A 
ATOM     62  C30 non d ame     -11.492  15.463  71.136  0.00  0.00    -0.075 A 
ATOM     63  C31 non d ame     -12.092  16.075  72.235  0.00  0.00    -0.082 A 
ATOM     64  H49 non d ame     -10.681  15.964  70.608  0.00  0.00     0.084 H 
ATOM     65  C32 non d ame     -13.131  15.430  72.912  0.00  0.00    -0.083 A 
ATOM     66  H50 non d ame     -11.750  17.056  72.565  0.00  0.00     0.083 H 
ATOM     67  C33 non d ame     -13.560  14.180  72.486  0.00  0.00    -0.082 A 
ATOM     68  H51 non d ame     -13.606  15.901  73.773  0.00  0.00     0.083 H 
ATOM     69  C34 non d ame     -12.965  13.566  71.386  0.00  0.00    -0.075 A 
ATOM     70  H52 non d ame     -14.369  13.679  73.018  0.00  0.00     0.083 H 
ATOM     71  H53 non d ame     -13.308  12.585  71.057  0.00  0.00     0.084 H 
ENDBRANCH  58  61
ENDBRANCH  57  58
ENDBRANCH  55  57
ENDBRANCH  52  55
ENDBRANCH  49  52
ENDBRANCH  47  49
BRANCH  47  72
ATOM     72  C24 non d ame     -10.282   7.304  70.976  0.00  0.00    -0.039 C 
ATOM     73  H35 non d ame     -11.089   6.578  71.083  0.00  0.00     0.036 H 
ATOM     74  H36 non d ame      -9.285   6.971  70.687  0.00  0.00     0.036 H 
BRANCH  72  75
ATOM     75  C25 non d ame     -10.139   8.064  72.379  0.00  0.00    -0.001 C 
ATOM     76  C26 non d ame      -8.560   8.107  72.834  0.00  0.00    -0.035 C 
ATOM     77  C27 non d ame      -8.459   7.646  74.104  0.00  0.00     0.085 C 
ATOM     78  H38 non d ame      -7.984   7.385  72.255  0.00  0.00     0.036 H 
ATOM     79  H39 non d ame      -8.220   9.140  72.911  0.00  0.00     0.036 H 
ATOM     80  N5  non d ame      -9.776   6.987  74.440  0.00  0.00    -0.049 N 
ATOM     81  H40 non d ame      -7.678   6.885  74.077  0.00  0.00     0.075 H 
ATOM     82  H41 non d ame      -8.336   8.531  74.726  0.00  0.00     0.075 H 
ATOM     83  C28 non d ame     -10.816   7.469  73.304  0.00  0.00     0.193 C 
ATOM     84  H42 non d ame      -9.631   5.992  74.343  0.00  0.00     0.280 HD
ATOM     85  H43 non d ame     -10.069   7.371  75.327  0.00  0.00     0.280 HD
ATOM     86  H44 non d ame     -11.563   8.232  73.524  0.00  0.00     0.129 H 
ATOM     87  H37 non d ame     -10.686   9.007  72.395  0.00  0.00     0.046 H 
BRANCH  83  88
ATOM     88  O6  non d ame     -11.549   6.351  72.800  0.00  0.00    -0.369 OA
ATOM     89  H45 non d ame     -11.039   5.917  72.113  0.00  0.00     0.212 HD
ENDBRANCH  83  88
ENDBRANCH  72  75
ENDBRANCH  47  72
ENDBRANCH  45  47
ENDBRANCH   1  43
BRANCH   1  90
ATOM     90  C16 non d ame      -8.040   6.186  66.727  0.00  0.00    -0.035 C 
ATOM     91  H21 non d ame      -7.167   6.686  66.306  0.00  0.00     0.037 H 
ATOM     92  H22 non d ame      -8.115   6.035  67.804  0.00  0.00     0.037 H 
BRANCH  90  93
ATOM     93  C17 non d ame      -8.089   4.765  66.079  0.00  0.00    -0.059 C 
ATOM     94  H23 non d ame      -7.175   4.634  65.500  0.00  0.00     0.038 H 
BRANCH  93  95
ATOM     95  C18 non d ame      -8.143   3.630  67.151  0.00  0.00    -0.073 C 
ATOM     96  H24 non d ame      -7.279   2.976  67.030  0.00  0.00     0.028 H 
ATOM     97  H25 non d ame      -8.129   4.071  68.148  0.00  0.00     0.028 H 
ATOM     98  H26 non d ame      -9.058   3.052  67.021  0.00  0.00     0.028 H 
ENDBRANCH  93  95
BRANCH  93  99
ATOM     99  C19 non d ame      -9.264   4.650  65.104  0.00  0.00    -0.073 C 
ATOM    100  H27 non d ame      -9.109   5.330  64.266  0.00  0.00     0.028 H 
ATOM    101  H28 non d ame      -9.330   3.627  64.734  0.00  0.00     0.028 H 
ATOM    102  H29 non d ame     -10.189   4.911  65.618  0.00  0.00     0.028 H 
ENDBRANCH  93  99
ENDBRANCH  90  93
ENDBRANCH   1  90
TORSDOF 26
ENDMDL
MODEL 5
REMARK VINA RESULT:      -6.6      2.927      7.856
REMARK  26 active torsions:
REMARK  status: ('A' for Active; 'I' for Inactive)
REMARK    1  A    between atoms: C2_2  and  C3_3 
REMARK    2  A    between atoms: C4_6  and  C5_7 
REMARK       I    between atoms: C5_7  and  N2_9 
REMARK    3  A    between atoms: N2_9  and  C6_10 
REMARK    4  A    between atoms: C6_10  and  C7_11 
REMARK    5  A    between atoms: C6_10  and  C8_13 
REMARK       I    between atoms: C7_11  and  N3_14 
REMARK    6  A    between atoms: N3_14  and  C9_15 
REMARK    7  A    between atoms: C9_15  and  C10_16 
REMARK    8  A    between atoms: C9_15  and  C11_18 
REMARK       I    between atoms: C10_16  and  N4_21 
REMARK    9  A    between atoms: C11_18  and  C12_19 
REMARK   10  A    between atoms: C11_18  and  C13_20 
REMARK   11  A    between atoms: N4_21  and  C14_22 
REMARK   12  A    between atoms: C14_22  and  C15_23 
REMARK   13  A    between atoms: C14_22  and  C16_25 
REMARK       I    between atoms: C15_23  and  N6_40 
REMARK   14  A    between atoms: C16_25  and  C17_26 
REMARK   15  A    between atoms: C17_26  and  C18_27 
REMARK   16  A    between atoms: C17_26  and  C19_28 
REMARK   17  A    between atoms: C20_29  and  C21_30 
REMARK   18  A    between atoms: C20_29  and  C24_33 
REMARK   19  A    between atoms: C20_29  and  N6_40 
REMARK   20  A    between atoms: C21_30  and  C22_31 
REMARK   21  A    between atoms: C22_31  and  C23_32 
REMARK   22  A    between atoms: C23_32  and  O8_43 
REMARK   23  A    between atoms: C24_33  and  C25_34 
REMARK   24  A    between atoms: C28_38  and  O6_39 
REMARK   25  A    between atoms: C29_42  and  O8_43 
REMARK   26  A    between atoms: C29_42  and  C35_49 
ROOT
ATOM      1  C14 non d ame     -10.079  10.666  64.388  0.00  0.00     0.089 C 
ATOM      2  H20 non d ame     -11.108  10.328  64.517  0.00  0.00     0.087 H 
ENDROOT
BRANCH   1   3
ATOM      3  N4  non d ame      -9.517  10.874  65.715  0.00  0.00    -0.346 N 
ATOM      4  C10 non d ame     -10.418  10.936  66.923  0.00  0.00     0.241 C 
ATOM      5  O4  non d ame     -11.593  10.819  66.802  0.00  0.00    -0.271 OA
ATOM      6  H19 non d ame      -8.515  10.974  65.796  0.00  0.00     0.163 HD
BRANCH   4   7
ATOM      7  C9  non d ame      -9.819  11.146  68.288  0.00  0.00     0.092 C 
ATOM      8  H11 non d ame      -8.741  10.993  68.234  0.00  0.00     0.088 H 
BRANCH   7   9
ATOM      9  N3  non d ame     -10.040  12.532  68.712  0.00  0.00    -0.346 N 
ATOM     10  C7  non d ame      -9.351  13.608  68.042  0.00  0.00     0.240 C 
ATOM     11  O3  non d ame      -8.615  13.376  67.162  0.00  0.00    -0.271 OA
ATOM     12  H10 non d ame     -10.670  12.747  69.470  0.00  0.00     0.163 HD
BRANCH  10  13
ATOM     13  C6  non d ame      -9.588  15.081  68.499  0.00  0.00     0.086 C 
ATOM     14  H6  non d ame     -10.243  15.632  67.825  0.00  0.00     0.086 H 
BRANCH  13  15
ATOM     15  N2  non d ame     -10.240  15.072  69.798  0.00  0.00    -0.343 N 
ATOM     16  C5  non d ame     -11.551  15.708  69.951  0.00  0.00     0.273 C 
ATOM     17  O2  non d ame     -12.070  16.226  69.024  0.00  0.00    -0.266 OA
ATOM     18  H5  non d ame      -9.788  14.630  70.585  0.00  0.00     0.163 HD
BRANCH  16  19
ATOM     19  C4  non d ame     -12.253  15.705  71.318  0.00  0.00     0.154 A 
ATOM     20  C1  non d ame     -11.640  15.822  72.605  0.00  0.00    -0.017 A 
ATOM     21  C2  non d ame     -12.711  15.765  73.525  0.00  0.00     0.077 A 
ATOM     22  H1  non d ame     -10.580  15.932  72.837  0.00  0.00     0.091 H 
ATOM     23  O1  non d ame     -13.806  15.632  72.836  0.00  0.00    -0.218 OA
ATOM     24  N1  non d ame     -13.565  15.594  71.545  0.00  0.00    -0.123 NA
BRANCH  21  25
ATOM     25  C3  non d ame     -12.602  15.845  75.042  0.00  0.00    -0.029 C 
ATOM     26  H2  non d ame     -11.856  15.131  75.391  0.00  0.00     0.036 H 
ATOM     27  H3  non d ame     -12.305  16.853  75.332  0.00  0.00     0.036 H 
ATOM     28  H4  non d ame     -13.568  15.608  75.489  0.00  0.00     0.036 H 
ENDBRANCH  21  25
ENDBRANCH  16  19
ENDBRANCH  13  15
BRANCH  13  29
ATOM     29  C8  non d ame      -8.266  15.801  68.590  0.00  0.00    -0.049 C 
ATOM     30  H7  non d ame      -7.997  15.936  69.638  0.00  0.00     0.030 H 
ATOM     31  H8  non d ame      -7.497  15.212  68.090  0.00  0.00     0.030 H 
ATOM     32  H9  non d ame      -8.349  16.775  68.109  0.00  0.00     0.030 H 
ENDBRANCH  13  29
ENDBRANCH  10  13
ENDBRANCH   7   9
BRANCH   7  33
ATOM     33  C11 non d ame     -10.496  10.182  69.306  0.00  0.00    -0.033 C 
ATOM     34  H12 non d ame     -11.053   9.439  68.734  0.00  0.00     0.042 H 
BRANCH  33  35
ATOM     35  C12 non d ame      -9.435   9.419  70.159  0.00  0.00    -0.071 C 
ATOM     36  H13 non d ame      -8.945  10.117  70.837  0.00  0.00     0.028 H 
ATOM     37  H14 non d ame      -9.928   8.637  70.736  0.00  0.00     0.028 H 
ATOM     38  H15 non d ame      -8.693   8.970  69.499  0.00  0.00     0.028 H 
ENDBRANCH  33  35
BRANCH  33  39
ATOM     39  C13 non d ame     -11.509  10.949  70.215  0.00  0.00    -0.071 C 
ATOM     40  H16 non d ame     -12.088  10.234  70.798  0.00  0.00     0.028 H 
ATOM     41  H17 non d ame     -10.963  11.610  70.890  0.00  0.00     0.028 H 
ATOM     42  H18 non d ame     -12.180  11.540  69.592  0.00  0.00     0.028 H 
ENDBRANCH  33  39
ENDBRANCH   7  33
ENDBRANCH   4   7
ENDBRANCH   1   3
BRANCH   1  43
ATOM     43  C15 non d ame      -9.206   9.619  63.639  0.00  0.00     0.240 C 
ATOM     44  O5  non d ame      -9.016   9.735  62.471  0.00  0.00    -0.271 OA
ATOM     45  N6  non d ame      -8.599   8.476  64.379  0.00  0.00    -0.355 N 
ATOM     46  H46 non d ame      -8.750   8.370  65.372  0.00  0.00     0.162 HD
BRANCH  45  47
ATOM     47  C20 non d ame      -7.771   7.490  63.652  0.00  0.00     0.013 C 
ATOM     48  H30 non d ame      -7.934   7.637  62.585  0.00  0.00     0.072 H 
BRANCH  47  49
ATOM     49  C21 non d ame      -8.190   6.094  64.052  0.00  0.00    -0.038 C 
ATOM     50  H31 non d ame      -9.205   6.190  64.438  0.00  0.00     0.036 H 
ATOM     51  H32 non d ame      -7.995   5.467  63.181  0.00  0.00     0.036 H 
BRANCH  49  52
ATOM     52  C22 non d ame      -7.338   5.518  65.204  0.00  0.00     0.018 C 
ATOM     53  H33 non d ame      -7.613   4.466  65.278  0.00  0.00     0.048 H 
ATOM     54  H34 non d ame      -6.308   5.798  64.977  0.00  0.00     0.048 H 
BRANCH  52  55
ATOM     55  C23 non d ame      -7.656   6.143  66.591  0.00  0.00     0.259 C 
ATOM     56  O7  non d ame      -6.792   6.312  67.389  0.00  0.00    -0.265 OA
BRANCH  55  57
ATOM     57  O8  non d ame      -8.997   6.500  66.903  0.00  0.00    -0.317 OA
BRANCH  57  58
ATOM     58  C29 non d ame      -9.794   5.412  67.378  0.00  0.00     0.052 C 
ATOM     59  H47 non d ame     -10.704   5.429  66.778  0.00  0.00     0.082 H 
ATOM     60  H48 non d ame      -9.143   4.538  67.357  0.00  0.00     0.082 H 
BRANCH  58  61
ATOM     61  C35 non d ame     -10.174   5.706  68.854  0.00  0.00    -0.034 A 
ATOM     62  C30 non d ame      -9.297   5.366  69.880  0.00  0.00    -0.075 A 
ATOM     63  C31 non d ame      -9.638   5.629  71.206  0.00  0.00    -0.082 A 
ATOM     64  H49 non d ame      -8.343   4.894  69.645  0.00  0.00     0.084 H 
ATOM     65  C32 non d ame     -10.863   6.233  71.505  0.00  0.00    -0.083 A 
ATOM     66  H50 non d ame      -8.949   5.364  72.007  0.00  0.00     0.083 H 
ATOM     67  C33 non d ame     -11.736   6.567  70.478  0.00  0.00    -0.082 A 
ATOM     68  H51 non d ame     -11.137   6.443  72.538  0.00  0.00     0.083 H 
ATOM     69  C34 non d ame     -11.398   6.307  69.151  0.00  0.00    -0.075 A 
ATOM     70  H52 non d ame     -12.692   7.035  70.714  0.00  0.00     0.083 H 
ATOM     71  H53 non d ame     -12.088   6.574  68.350  0.00  0.00     0.084 H 
ENDBRANCH  58  61
ENDBRANCH  57  58
ENDBRANCH  55  57
ENDBRANCH  52  55
ENDBRANCH  49  52
ENDBRANCH  47  49
BRANCH  47  72
ATOM     72  C24 non d ame      -6.298   7.699  63.997  0.00  0.00    -0.039 C 
ATOM     73  H35 non d ame      -6.084   6.988  64.796  0.00  0.00     0.036 H 
ATOM     74  H36 non d ame      -5.765   7.629  63.049  0.00  0.00     0.036 H 
BRANCH  72  75
ATOM     75  C25 non d ame      -6.029   9.165  64.584  0.00  0.00    -0.001 C 
ATOM     76  C26 non d ame      -5.540  10.170  63.378  0.00  0.00    -0.035 C 
ATOM     77  C27 non d ame      -4.400  10.792  63.763  0.00  0.00     0.085 C 
ATOM     78  H38 non d ame      -5.232   9.589  62.509  0.00  0.00     0.036 H 
ATOM     79  H39 non d ame      -6.251  10.989  63.262  0.00  0.00     0.036 H 
ATOM     80  N5  non d ame      -3.889  10.063  64.982  0.00  0.00    -0.049 N 
ATOM     81  H40 non d ame      -3.697  10.648  62.942  0.00  0.00     0.075 H 
ATOM     82  H41 non d ame      -4.701  11.798  64.052  0.00  0.00     0.075 H 
ATOM     83  C28 non d ame      -5.113   9.143  65.495  0.00  0.00     0.193 C 
ATOM     84  H42 non d ame      -3.145   9.459  64.663  0.00  0.00     0.280 HD
ATOM     85  H43 non d ame      -3.703  10.768  65.681  0.00  0.00     0.280 HD
ATOM     86  H44 non d ame      -5.696   9.434  66.369  0.00  0.00     0.129 H 
ATOM     87  H37 non d ame      -6.844   9.512  65.219  0.00  0.00     0.046 H 
BRANCH  83  88
ATOM     88  O6  non d ame      -4.654   7.818  65.766  0.00  0.00    -0.369 OA
ATOM     89  H45 non d ame      -4.996   7.218  65.099  0.00  0.00     0.212 HD
ENDBRANCH  83  88
ENDBRANCH  72  75
ENDBRANCH  47  72
ENDBRANCH  45  47
ENDBRANCH   1  43
BRANCH   1  90
ATOM     90  C16 non d ame     -10.061  11.984  63.630  0.00  0.00    -0.035 C 
ATOM     91  H21 non d ame      -9.439  12.652  64.227  0.00  0.00     0.037 H 
ATOM     92  H22 non d ame      -9.765  11.727  62.613  0.00  0.00     0.037 H 
BRANCH  90  93
ATOM     93  C17 non d ame     -11.463  12.665  63.523  0.00  0.00    -0.059 C 
ATOM     94  H23 non d ame     -11.483  13.236  62.595  0.00  0.00     0.038 H 
BRANCH  93  95
ATOM     95  C18 non d ame     -12.623  11.620  63.465  0.00  0.00    -0.073 C 
ATOM     96  H24 non d ame     -13.372  11.949  62.745  0.00  0.00     0.028 H 
ATOM     97  H25 non d ame     -12.224  10.652  63.158  0.00  0.00     0.028 H 
ATOM     98  H26 non d ame     -13.079  11.529  64.450  0.00  0.00     0.028 H 
ENDBRANCH  93  95
BRANCH  93  99
ATOM     99  C19 non d ame     -11.679  13.654  64.671  0.00  0.00    -0.073 C 
ATOM    100  H27 non d ame     -11.427  14.661  64.336  0.00  0.00     0.028 H 
ATOM    101  H28 non d ame     -12.723  13.625  64.984  0.00  0.00     0.028 H 
ATOM    102  H29 non d ame     -11.041  13.381  65.511  0.00  0.00     0.028 H 
ENDBRANCH  93  99
ENDBRANCH  90  93
ENDBRANCH   1  90
TORSDOF 26
ENDMDL
MODEL 6
REMARK VINA RESULT:      -6.6      2.908      7.849
REMARK  26 active torsions:
REMARK  status: ('A' for Active; 'I' for Inactive)
REMARK    1  A    between atoms: C2_2  and  C3_3 
REMARK    2  A    between atoms: C4_6  and  C5_7 
REMARK       I    between atoms: C5_7  and  N2_9 
REMARK    3  A    between atoms: N2_9  and  C6_10 
REMARK    4  A    between atoms: C6_10  and  C7_11 
REMARK    5  A    between atoms: C6_10  and  C8_13 
REMARK       I    between atoms: C7_11  and  N3_14 
REMARK    6  A    between atoms: N3_14  and  C9_15 
REMARK    7  A    between atoms: C9_15  and  C10_16 
REMARK    8  A    between atoms: C9_15  and  C11_18 
REMARK       I    between atoms: C10_16  and  N4_21 
REMARK    9  A    between atoms: C11_18  and  C12_19 
REMARK   10  A    between atoms: C11_18  and  C13_20 
REMARK   11  A    between atoms: N4_21  and  C14_22 
REMARK   12  A    between atoms: C14_22  and  C15_23 
REMARK   13  A    between atoms: C14_22  and  C16_25 
REMARK       I    between atoms: C15_23  and  N6_40 
REMARK   14  A    between atoms: C16_25  and  C17_26 
REMARK   15  A    between atoms: C17_26  and  C18_27 
REMARK   16  A    between atoms: C17_26  and  C19_28 
REMARK   17  A    between atoms: C20_29  and  C21_30 
REMARK   18  A    between atoms: C20_29  and  C24_33 
REMARK   19  A    between atoms: C20_29  and  N6_40 
REMARK   20  A    between atoms: C21_30  and  C22_31 
REMARK   21  A    between atoms: C22_31  and  C23_32 
REMARK   22  A    between atoms: C23_32  and  O8_43 
REMARK   23  A    between atoms: C24_33  and  C25_34 
REMARK   24  A    between atoms: C28_38  and  O6_39 
REMARK   25  A    between atoms: C29_42  and  O8_43 
REMARK   26  A    between atoms: C29_42  and  C35_49 
ROOT
ATOM      1  C14 non d ame      -9.166   9.735  65.285  0.00  0.00     0.089 C 
ATOM      2  H20 non d ame      -8.149  10.056  65.509  0.00  0.00     0.087 H 
ENDROOT
BRANCH   1   3
ATOM      3  N4  non d ame      -9.257   8.317  65.597  0.00  0.00    -0.346 N 
ATOM      4  C10 non d ame      -8.009   7.513  65.860  0.00  0.00     0.241 C 
ATOM      5  O4  non d ame      -6.941   8.029  65.811  0.00  0.00    -0.271 OA
ATOM      6  H19 non d ame     -10.175   7.896  65.632  0.00  0.00     0.163 HD
BRANCH   4   7
ATOM      7  C9  non d ame      -8.122   6.047  66.188  0.00  0.00     0.092 C 
ATOM      8  H11 non d ame      -7.137   5.586  66.115  0.00  0.00     0.088 H 
BRANCH   7   9
ATOM      9  N3  non d ame      -8.573   5.889  67.574  0.00  0.00    -0.346 N 
ATOM     10  C7  non d ame      -7.636   5.490  68.595  0.00  0.00     0.240 C 
ATOM     11  O3  non d ame      -6.516   5.290  68.319  0.00  0.00    -0.271 OA
ATOM     12  H10 non d ame      -9.536   6.056  67.827  0.00  0.00     0.163 HD
BRANCH  10  13
ATOM     13  C6  non d ame      -8.122   5.321  70.068  0.00  0.00     0.086 C 
ATOM     14  H6  non d ame      -7.386   5.660  70.796  0.00  0.00     0.086 H 
BRANCH  13  15
ATOM     15  N2  non d ame      -9.311   6.133  70.268  0.00  0.00    -0.343 N 
ATOM     16  C5  non d ame      -9.241   7.314  71.131  0.00  0.00     0.273 C 
ATOM     17  O2  non d ame      -8.224   7.600  71.663  0.00  0.00    -0.266 OA
ATOM     18  H5  non d ame     -10.176   5.879  69.812  0.00  0.00     0.163 HD
BRANCH  16  19
ATOM     19  C4  non d ame     -10.489   8.182  71.351  0.00  0.00     0.154 A 
ATOM     20  C1  non d ame     -11.737   7.774  71.921  0.00  0.00    -0.017 A 
ATOM     21  C2  non d ame     -12.543   8.934  71.898  0.00  0.00     0.077 A 
ATOM     22  H1  non d ame     -12.015   6.788  72.294  0.00  0.00     0.091 H 
ATOM     23  O1  non d ame     -11.832   9.890  71.376  0.00  0.00    -0.218 OA
ATOM     24  N1  non d ame     -10.630   9.476  71.048  0.00  0.00    -0.123 NA
BRANCH  21  25
ATOM     25  C3  non d ame     -13.979   9.044  72.395  0.00  0.00    -0.029 C 
ATOM     26  H2  non d ame     -14.604   9.469  71.609  0.00  0.00     0.036 H 
ATOM     27  H3  non d ame     -14.349   8.053  72.658  0.00  0.00     0.036 H 
ATOM     28  H4  non d ame     -14.011   9.689  73.274  0.00  0.00     0.036 H 
ENDBRANCH  21  25
ENDBRANCH  16  19
ENDBRANCH  13  15
BRANCH  13  29
ATOM     29  C8  non d ame      -8.437   3.870  70.332  0.00  0.00    -0.049 C 
ATOM     30  H7  non d ame      -9.023   3.787  71.248  0.00  0.00     0.030 H 
ATOM     31  H8  non d ame      -9.007   3.464  69.497  0.00  0.00     0.030 H 
ATOM     32  H9  non d ame      -7.508   3.312  70.445  0.00  0.00     0.030 H 
ENDBRANCH  13  29
ENDBRANCH  10  13
ENDBRANCH   7   9
BRANCH   7  33
ATOM     33  C11 non d ame      -9.153   5.380  65.231  0.00  0.00    -0.033 C 
ATOM     34  H12 non d ame     -10.003   6.056  65.140  0.00  0.00     0.042 H 
BRANCH  33  35
ATOM     35  C12 non d ame      -8.556   5.181  63.802  0.00  0.00    -0.071 C 
ATOM     36  H13 non d ame      -8.551   4.119  63.556  0.00  0.00     0.028 H 
ATOM     37  H14 non d ame      -9.166   5.719  63.076  0.00  0.00     0.028 H 
ATOM     38  H15 non d ame      -7.537   5.565  63.778  0.00  0.00     0.028 H 
ENDBRANCH  33  35
BRANCH  33  39
ATOM     39  C13 non d ame      -9.672   4.029  65.821  0.00  0.00    -0.071 C 
ATOM     40  H16 non d ame      -8.907   3.597  66.465  0.00  0.00     0.028 H 
ATOM     41  H17 non d ame     -10.576   4.211  66.403  0.00  0.00     0.028 H 
ATOM     42  H18 non d ame      -9.895   3.340  65.007  0.00  0.00     0.028 H 
ENDBRANCH  33  39
ENDBRANCH   7  33
ENDBRANCH   4   7
ENDBRANCH   1   3
BRANCH   1  43
ATOM     43  C15 non d ame     -10.224  10.498  66.133  0.00  0.00     0.240 C 
ATOM     44  O5  non d ame     -10.754   9.953  67.046  0.00  0.00    -0.271 OA
ATOM     45  N6  non d ame     -10.569  11.912  65.812  0.00  0.00    -0.355 N 
ATOM     46  H46 non d ame     -10.122  12.387  65.041  0.00  0.00     0.162 HD
BRANCH  45  47
ATOM     47  C20 non d ame     -11.576  12.624  66.628  0.00  0.00     0.013 C 
ATOM     48  H30 non d ame     -12.311  11.895  66.966  0.00  0.00     0.072 H 
BRANCH  47  49
ATOM     49  C21 non d ame     -12.248  13.682  65.783  0.00  0.00    -0.038 C 
ATOM     50  H31 non d ame     -13.103  13.189  65.319  0.00  0.00     0.036 H 
ATOM     51  H32 non d ame     -12.402  14.534  66.445  0.00  0.00     0.036 H 
BRANCH  49  52
ATOM     52  C22 non d ame     -11.354  14.184  64.628  0.00  0.00     0.018 C 
ATOM     53  H33 non d ame     -10.386  13.702  64.772  0.00  0.00     0.048 H 
ATOM     54  H34 non d ame     -11.922  14.003  63.715  0.00  0.00     0.048 H 
BRANCH  52  55
ATOM     55  C23 non d ame     -11.080  15.713  64.666  0.00  0.00     0.259 C 
ATOM     56  O7  non d ame     -11.668  16.449  63.942  0.00  0.00    -0.265 OA
BRANCH  55  57
ATOM     57  O8  non d ame     -10.108  16.224  65.570  0.00  0.00    -0.317 OA
BRANCH  57  58
ATOM     58  C29 non d ame     -10.349  17.573  65.982  0.00  0.00     0.052 C 
ATOM     59  H47 non d ame     -10.395  18.158  65.063  0.00  0.00     0.082 H 
ATOM     60  H48 non d ame     -11.213  17.529  66.644  0.00  0.00     0.082 H 
BRANCH  58  61
ATOM     61  C35 non d ame      -9.122  18.048  66.806  0.00  0.00    -0.034 A 
ATOM     62  C30 non d ame      -7.839  17.670  66.425  0.00  0.00    -0.075 A 
ATOM     63  C31 non d ame      -6.737  18.097  67.165  0.00  0.00    -0.082 A 
ATOM     64  H49 non d ame      -7.696  17.040  65.547  0.00  0.00     0.084 H 
ATOM     65  C32 non d ame      -6.922  18.902  68.291  0.00  0.00    -0.083 A 
ATOM     66  H50 non d ame      -5.732  17.801  66.862  0.00  0.00     0.083 H 
ATOM     67  C33 non d ame      -8.205  19.274  68.669  0.00  0.00    -0.082 A 
ATOM     68  H51 non d ame      -6.066  19.241  68.875  0.00  0.00     0.083 H 
ATOM     69  C34 non d ame      -9.309  18.852  67.932  0.00  0.00    -0.075 A 
ATOM     70  H52 non d ame      -8.347  19.901  69.550  0.00  0.00     0.083 H 
ATOM     71  H53 non d ame     -10.314  19.149  68.234  0.00  0.00     0.084 H 
ENDBRANCH  58  61
ENDBRANCH  57  58
ENDBRANCH  55  57
ENDBRANCH  52  55
ENDBRANCH  49  52
ENDBRANCH  47  49
BRANCH  47  72
ATOM     72  C24 non d ame     -10.895  13.285  67.826  0.00  0.00    -0.039 C 
ATOM     73  H35 non d ame     -10.486  12.465  68.416  0.00  0.00     0.036 H 
ATOM     74  H36 non d ame     -10.229  14.037  67.402  0.00  0.00     0.036 H 
BRANCH  72  75
ATOM     75  C25 non d ame     -11.949  14.056  68.755  0.00  0.00    -0.001 C 
ATOM     76  C26 non d ame     -11.483  15.621  68.950  0.00  0.00    -0.035 C 
ATOM     77  C27 non d ame     -11.475  15.911  70.273  0.00  0.00     0.085 C 
ATOM     78  H38 non d ame     -10.440  15.739  68.657  0.00  0.00     0.036 H 
ATOM     79  H39 non d ame     -12.242  16.290  68.547  0.00  0.00     0.036 H 
ATOM     80  N5  non d ame     -11.575  14.600  71.014  0.00  0.00    -0.049 N 
ATOM     81  H40 non d ame     -10.499  16.356  70.469  0.00  0.00     0.075 H 
ATOM     82  H41 non d ame     -12.382  16.489  70.450  0.00  0.00     0.075 H 
ATOM     83  C28 non d ame     -12.034  13.505  69.920  0.00  0.00     0.193 C 
ATOM     84  H42 non d ame     -10.641  14.374  71.323  0.00  0.00     0.280 HD
ATOM     85  H43 non d ame     -12.318  14.709  71.690  0.00  0.00     0.280 HD
ATOM     86  H44 non d ame     -13.063  13.146  69.894  0.00  0.00     0.129 H 
ATOM     87  H37 non d ame     -12.979  13.880  68.445  0.00  0.00     0.046 H 
BRANCH  83  88
ATOM     88  O6  non d ame     -11.223  12.334  70.024  0.00  0.00    -0.369 OA
ATOM     89  H45 non d ame     -11.621  11.623  69.516  0.00  0.00     0.212 HD
ENDBRANCH  83  88
ENDBRANCH  72  75
ENDBRANCH  47  72
ENDBRANCH  45  47
ENDBRANCH   1  43
BRANCH   1  90
ATOM     90  C16 non d ame      -9.455   9.936  63.806  0.00  0.00    -0.035 C 
ATOM     91  H21 non d ame     -10.037   9.065  63.504  0.00  0.00     0.037 H 
ATOM     92  H22 non d ame      -9.889  10.934  63.730  0.00  0.00     0.037 H 
BRANCH  90  93
ATOM     93  C17 non d ame      -8.174   9.943  62.912  0.00  0.00    -0.059 C 
ATOM     94  H23 non d ame      -7.325  10.177  63.554  0.00  0.00     0.038 H 
BRANCH  93  95
ATOM     95  C18 non d ame      -7.906   8.550  62.257  0.00  0.00    -0.073 C 
ATOM     96  H24 non d ame      -8.832   8.165  61.831  0.00  0.00     0.028 H 
ATOM     97  H25 non d ame      -7.160   8.657  61.469  0.00  0.00     0.028 H 
ATOM     98  H26 non d ame      -7.538   7.857  63.014  0.00  0.00     0.028 H 
ENDBRANCH  93  95
BRANCH  93  99
ATOM     99  C19 non d ame      -8.256  11.039  61.847  0.00  0.00    -0.073 C 
ATOM    100  H27 non d ame      -8.232  10.586  60.856  0.00  0.00     0.028 H 
ATOM    101  H28 non d ame      -9.185  11.596  61.970  0.00  0.00     0.028 H 
ATOM    102  H29 non d ame      -7.410  11.717  61.958  0.00  0.00     0.028 H 
ENDBRANCH  93  99
ENDBRANCH  90  93
ENDBRANCH   1  90
TORSDOF 26
ENDMDL
MODEL 7
REMARK VINA RESULT:      -6.5      4.062     10.159
REMARK  26 active torsions:
REMARK  status: ('A' for Active; 'I' for Inactive)
REMARK    1  A    between atoms: C2_2  and  C3_3 
REMARK    2  A    between atoms: C4_6  and  C5_7 
REMARK       I    between atoms: C5_7  and  N2_9 
REMARK    3  A    between atoms: N2_9  and  C6_10 
REMARK    4  A    between atoms: C6_10  and  C7_11 
REMARK    5  A    between atoms: C6_10  and  C8_13 
REMARK       I    between atoms: C7_11  and  N3_14 
REMARK    6  A    between atoms: N3_14  and  C9_15 
REMARK    7  A    between atoms: C9_15  and  C10_16 
REMARK    8  A    between atoms: C9_15  and  C11_18 
REMARK       I    between atoms: C10_16  and  N4_21 
REMARK    9  A    between atoms: C11_18  and  C12_19 
REMARK   10  A    between atoms: C11_18  and  C13_20 
REMARK   11  A    between atoms: N4_21  and  C14_22 
REMARK   12  A    between atoms: C14_22  and  C15_23 
REMARK   13  A    between atoms: C14_22  and  C16_25 
REMARK       I    between atoms: C15_23  and  N6_40 
REMARK   14  A    between atoms: C16_25  and  C17_26 
REMARK   15  A    between atoms: C17_26  and  C18_27 
REMARK   16  A    between atoms: C17_26  and  C19_28 
REMARK   17  A    between atoms: C20_29  and  C21_30 
REMARK   18  A    between atoms: C20_29  and  C24_33 
REMARK   19  A    between atoms: C20_29  and  N6_40 
REMARK   20  A    between atoms: C21_30  and  C22_31 
REMARK   21  A    between atoms: C22_31  and  C23_32 
REMARK   22  A    between atoms: C23_32  and  O8_43 
REMARK   23  A    between atoms: C24_33  and  C25_34 
REMARK   24  A    between atoms: C28_38  and  O6_39 
REMARK   25  A    between atoms: C29_42  and  O8_43 
REMARK   26  A    between atoms: C29_42  and  C35_49 
ROOT
ATOM      1  C14 non d ame      -7.792   6.244  63.427  0.00  0.00     0.089 C 
ATOM      2  H20 non d ame      -8.119   6.423  62.403  0.00  0.00     0.087 H 
ENDROOT
BRANCH   1   3
ATOM      3  N4  non d ame      -7.583   7.542  64.053  0.00  0.00    -0.346 N 
ATOM      4  C10 non d ame      -8.188   8.784  63.450  0.00  0.00     0.241 C 
ATOM      5  O4  non d ame      -8.838   8.715  62.459  0.00  0.00    -0.271 OA
ATOM      6  H19 non d ame      -7.025   7.579  64.894  0.00  0.00     0.163 HD
BRANCH   4   7
ATOM      7  C9  non d ame      -7.967  10.118  64.114  0.00  0.00     0.092 C 
ATOM      8  H11 non d ame      -7.535  10.810  63.391  0.00  0.00     0.088 H 
BRANCH   7   9
ATOM      9  N3  non d ame      -9.256  10.676  64.533  0.00  0.00    -0.346 N 
ATOM     10  C7  non d ame      -9.940  11.623  63.687  0.00  0.00     0.240 C 
ATOM     11  O3  non d ame      -9.467  11.948  62.667  0.00  0.00    -0.271 OA
ATOM     12  H10 non d ame      -9.676  10.406  65.411  0.00  0.00     0.163 HD
BRANCH  10  13
ATOM     13  C6  non d ame     -11.310  12.216  64.140  0.00  0.00     0.086 C 
ATOM     14  H6  non d ame     -11.576  11.934  65.159  0.00  0.00     0.086 H 
BRANCH  13  15
ATOM     15  N2  non d ame     -11.227  13.667  64.118  0.00  0.00    -0.343 N 
ATOM     16  C5  non d ame     -10.944  14.392  65.359  0.00  0.00     0.273 C 
ATOM     17  O2  non d ame     -10.788  13.799  66.369  0.00  0.00    -0.266 OA
ATOM     18  H5  non d ame     -11.364  14.165  63.250  0.00  0.00     0.163 HD
BRANCH  16  19
ATOM     19  C4  non d ame     -10.851  15.925  65.350  0.00  0.00     0.154 A 
ATOM     20  C1  non d ame     -10.331  16.766  66.385  0.00  0.00    -0.017 A 
ATOM     21  C2  non d ame     -10.471  18.082  65.889  0.00  0.00     0.077 A 
ATOM     22  H1  non d ame      -9.916  16.468  67.347  0.00  0.00     0.091 H 
ATOM     23  O1  non d ame     -11.008  17.995  64.707  0.00  0.00    -0.218 OA
ATOM     24  N1  non d ame     -11.239  16.747  64.371  0.00  0.00    -0.123 NA
BRANCH  21  25
ATOM     25  C3  non d ame     -10.066  19.363  66.606  0.00  0.00    -0.029 C 
ATOM     26  H2  non d ame      -9.549  19.114  67.533  0.00  0.00     0.036 H 
ATOM     27  H3  non d ame      -9.404  19.944  65.965  0.00  0.00     0.036 H 
ATOM     28  H4  non d ame     -10.957  19.949  66.833  0.00  0.00     0.036 H 
ENDBRANCH  21  25
ENDBRANCH  16  19
ENDBRANCH  13  15
BRANCH  13  29
ATOM     29  C8  non d ame     -12.397  11.747  63.206  0.00  0.00    -0.049 C 
ATOM     30  H7  non d ame     -13.010  12.597  62.906  0.00  0.00     0.030 H 
ATOM     31  H8  non d ame     -11.947  11.293  62.324  0.00  0.00     0.030 H 
ATOM     32  H9  non d ame     -13.021  11.013  63.715  0.00  0.00     0.030 H 
ENDBRANCH  13  29
ENDBRANCH  10  13
ENDBRANCH   7   9
BRANCH   7  33
ATOM     33  C11 non d ame      -7.055   9.931  65.362  0.00  0.00    -0.033 C 
ATOM     34  H12 non d ame      -7.076   8.874  65.629  0.00  0.00     0.042 H 
BRANCH  33  35
ATOM     35  C12 non d ame      -5.574  10.305  65.046  0.00  0.00    -0.071 C 
ATOM     36  H13 non d ame      -4.978  10.230  65.955  0.00  0.00     0.028 H 
ATOM     37  H14 non d ame      -5.179   9.621  64.295  0.00  0.00     0.028 H 
ATOM     38  H15 non d ame      -5.531  11.326  64.666  0.00  0.00     0.028 H 
ENDBRANCH  33  35
BRANCH  33  39
ATOM     39  C13 non d ame      -7.598  10.747  66.579  0.00  0.00    -0.071 C 
ATOM     40  H16 non d ame      -8.370  11.436  66.238  0.00  0.00     0.028 H 
ATOM     41  H17 non d ame      -8.021  10.063  67.316  0.00  0.00     0.028 H 
ATOM     42  H18 non d ame      -6.782  11.310  67.032  0.00  0.00     0.028 H 
ENDBRANCH  33  39
ENDBRANCH   7  33
ENDBRANCH   4   7
ENDBRANCH   1   3
BRANCH   1  43
ATOM     43  C15 non d ame      -8.851   5.461  64.254  0.00  0.00     0.240 C 
ATOM     44  O5  non d ame      -9.424   4.542  63.762  0.00  0.00    -0.271 OA
ATOM     45  N6  non d ame      -9.147   5.850  65.662  0.00  0.00    -0.355 N 
ATOM     46  H46 non d ame      -8.664   6.626  66.092  0.00  0.00     0.162 HD
BRANCH  45  47
ATOM     47  C20 non d ame     -10.156   5.094  66.435  0.00  0.00     0.013 C 
ATOM     48  H30 non d ame     -11.015   4.921  65.787  0.00  0.00     0.072 H 
BRANCH  47  49
ATOM     49  C21 non d ame     -10.574   5.907  67.640  0.00  0.00    -0.038 C 
ATOM     50  H31 non d ame     -11.584   6.255  67.424  0.00  0.00     0.036 H 
ATOM     51  H32 non d ame     -10.390   5.268  68.504  0.00  0.00     0.036 H 
BRANCH  49  52
ATOM     52  C22 non d ame      -9.710   7.171  67.840  0.00  0.00     0.018 C 
ATOM     53  H33 non d ame      -9.573   7.268  68.917  0.00  0.00     0.048 H 
ATOM     54  H34 non d ame      -8.844   7.042  67.189  0.00  0.00     0.048 H 
BRANCH  52  55
ATOM     55  C23 non d ame     -10.402   8.483  67.376  0.00  0.00     0.259 C 
ATOM     56  O7  non d ame     -10.481   8.747  66.220  0.00  0.00    -0.265 OA
BRANCH  55  57
ATOM     57  O8  non d ame     -10.931   9.373  68.351  0.00  0.00    -0.317 OA
BRANCH  57  58
ATOM     58  C29 non d ame      -9.979   9.796  69.331  0.00  0.00     0.052 C 
ATOM     59  H47 non d ame      -9.007   9.474  68.956  0.00  0.00     0.082 H 
ATOM     60  H48 non d ame     -10.175  10.855  69.496  0.00  0.00     0.082 H 
BRANCH  58  61
ATOM     61  C35 non d ame     -10.275   9.031  70.648  0.00  0.00    -0.034 A 
ATOM     62  C30 non d ame      -9.241   8.738  71.531  0.00  0.00    -0.075 A 
ATOM     63  C31 non d ame      -9.507   8.050  72.715  0.00  0.00    -0.082 A 
ATOM     64  H49 non d ame      -8.222   9.047  71.297  0.00  0.00     0.084 H 
ATOM     65  C32 non d ame     -10.813   7.653  73.012  0.00  0.00    -0.083 A 
ATOM     66  H50 non d ame      -8.695   7.824  73.406  0.00  0.00     0.083 H 
ATOM     67  C33 non d ame     -11.842   7.946  72.127  0.00  0.00    -0.082 A 
ATOM     68  H51 non d ame     -11.030   7.116  73.936  0.00  0.00     0.083 H 
ATOM     69  C34 non d ame     -11.581   8.634  70.944  0.00  0.00    -0.075 A 
ATOM     70  H52 non d ame     -12.860   7.633  72.361  0.00  0.00     0.083 H 
ATOM     71  H53 non d ame     -12.394   8.861  70.254  0.00  0.00     0.084 H 
ENDBRANCH  58  61
ENDBRANCH  57  58
ENDBRANCH  55  57
ENDBRANCH  52  55
ENDBRANCH  49  52
ENDBRANCH  47  49
BRANCH  47  72
ATOM     72  C24 non d ame      -9.563   3.765  66.898  0.00  0.00    -0.039 C 
ATOM     73  H35 non d ame     -10.327   3.310  67.528  0.00  0.00     0.036 H 
ATOM     74  H36 non d ame      -9.237   3.261  65.988  0.00  0.00     0.036 H 
BRANCH  72  75
ATOM     75  C25 non d ame      -8.264   3.981  67.810  0.00  0.00    -0.001 C 
ATOM     76  C26 non d ame      -6.911   3.602  66.956  0.00  0.00    -0.035 C 
ATOM     77  C27 non d ame      -6.165   2.736  67.682  0.00  0.00     0.085 C 
ATOM     78  H38 non d ame      -7.177   3.027  66.069  0.00  0.00     0.036 H 
ATOM     79  H39 non d ame      -6.268   4.478  66.865  0.00  0.00     0.036 H 
ATOM     80  N5  non d ame      -7.038   2.236  68.807  0.00  0.00    -0.049 N 
ATOM     81  H40 non d ame      -5.943   1.907  67.009  0.00  0.00     0.075 H 
ATOM     82  H41 non d ame      -5.353   3.330  68.100  0.00  0.00     0.075 H 
ATOM     83  C28 non d ame      -8.304   3.236  68.864  0.00  0.00     0.193 C 
ATOM     84  H42 non d ame      -7.364   1.320  68.532  0.00  0.00     0.280 HD
ATOM     85  H43 non d ame      -6.503   2.347  69.657  0.00  0.00     0.280 HD
ATOM     86  H44 non d ame      -8.374   3.997  69.642  0.00  0.00     0.129 H 
ATOM     87  H37 non d ame      -8.274   4.943  68.322  0.00  0.00     0.046 H 
BRANCH  83  88
ATOM     88  O6  non d ame      -9.519   2.489  68.950  0.00  0.00    -0.369 OA
ATOM     89  H45 non d ame      -9.462   1.719  68.380  0.00  0.00     0.212 HD
ENDBRANCH  83  88
ENDBRANCH  72  75
ENDBRANCH  47  72
ENDBRANCH  45  47
ENDBRANCH   1  43
BRANCH   1  90
ATOM     90  C16 non d ame      -6.478   5.478  63.423  0.00  0.00    -0.035 C 
ATOM     91  H21 non d ame      -6.679   4.558  63.972  0.00  0.00     0.037 H 
ATOM     92  H22 non d ame      -6.174   5.433  62.377  0.00  0.00     0.037 H 
BRANCH  90  93
ATOM     93  C17 non d ame      -5.327   6.205  64.187  0.00  0.00    -0.059 C 
ATOM     94  H23 non d ame      -5.780   6.806  64.975  0.00  0.00     0.038 H 
BRANCH  93  95
ATOM     95  C18 non d ame      -4.341   5.199  64.863  0.00  0.00    -0.073 C 
ATOM     96  H24 non d ame      -4.899   4.346  65.246  0.00  0.00     0.028 H 
ATOM     97  H25 non d ame      -3.611   4.857  64.128  0.00  0.00     0.028 H 
ATOM     98  H26 non d ame      -3.823   5.694  65.685  0.00  0.00     0.028 H 
ENDBRANCH  93  95
BRANCH  93  99
ATOM     99  C19 non d ame      -4.575   7.164  63.260  0.00  0.00    -0.073 C 
ATOM    100  H27 non d ame      -5.223   7.451  62.431  0.00  0.00     0.028 H 
ATOM    101  H28 non d ame      -4.283   8.055  63.818  0.00  0.00     0.028 H 
ATOM    102  H29 non d ame      -3.685   6.671  62.871  0.00  0.00     0.028 H 
ENDBRANCH  93  99
ENDBRANCH  90  93
ENDBRANCH   1  90
TORSDOF 26
ENDMDL
MODEL 8
REMARK VINA RESULT:      -6.5      2.907      6.946
REMARK  26 active torsions:
REMARK  status: ('A' for Active; 'I' for Inactive)
REMARK    1  A    between atoms: C2_2  and  C3_3 
REMARK    2  A    between atoms: C4_6  and  C5_7 
REMARK       I    between atoms: C5_7  and  N2_9 
REMARK    3  A    between atoms: N2_9  and  C6_10 
REMARK    4  A    between atoms: C6_10  and  C7_11 
REMARK    5  A    between atoms: C6_10  and  C8_13 
REMARK       I    between atoms: C7_11  and  N3_14 
REMARK    6  A    between atoms: N3_14  and  C9_15 
REMARK    7  A    between atoms: C9_15  and  C10_16 
REMARK    8  A    between atoms: C9_15  and  C11_18 
REMARK       I    between atoms: C10_16  and  N4_21 
REMARK    9  A    between atoms: C11_18  and  C12_19 
REMARK   10  A    between atoms: C11_18  and  C13_20 
REMARK   11  A    between atoms: N4_21  and  C14_22 
REMARK   12  A    between atoms: C14_22  and  C15_23 
REMARK   13  A    between atoms: C14_22  and  C16_25 
REMARK       I    between atoms: C15_23  and  N6_40 
REMARK   14  A    between atoms: C16_25  and  C17_26 
REMARK   15  A    between atoms: C17_26  and  C18_27 
REMARK   16  A    between atoms: C17_26  and  C19_28 
REMARK   17  A    between atoms: C20_29  and  C21_30 
REMARK   18  A    between atoms: C20_29  and  C24_33 
REMARK   19  A    between atoms: C20_29  and  N6_40 
REMARK   20  A    between atoms: C21_30  and  C22_31 
REMARK   21  A    between atoms: C22_31  and  C23_32 
REMARK   22  A    between atoms: C23_32  and  O8_43 
REMARK   23  A    between atoms: C24_33  and  C25_34 
REMARK   24  A    between atoms: C28_38  and  O6_39 
REMARK   25  A    between atoms: C29_42  and  O8_43 
REMARK   26  A    between atoms: C29_42  and  C35_49 
ROOT
ATOM      1  C14 non d ame      -9.832  10.507  68.232  0.00  0.00     0.089 C 
ATOM      2  H20 non d ame      -9.109  10.604  69.042  0.00  0.00     0.087 H 
ENDROOT
BRANCH   1   3
ATOM      3  N4  non d ame     -10.302   9.130  68.227  0.00  0.00    -0.346 N 
ATOM      4  C10 non d ame     -10.205   8.287  69.474  0.00  0.00     0.241 C 
ATOM      5  O4  non d ame      -9.742   8.739  70.469  0.00  0.00    -0.271 OA
ATOM      6  H19 non d ame     -10.690   8.763  67.369  0.00  0.00     0.163 HD
BRANCH   4   7
ATOM      7  C9  non d ame     -10.701   6.865  69.452  0.00  0.00     0.092 C 
ATOM      8  H11 non d ame     -11.725   6.848  69.078  0.00  0.00     0.088 H 
BRANCH   7   9
ATOM      9  N3  non d ame      -9.886   6.077  68.523  0.00  0.00    -0.346 N 
ATOM     10  C7  non d ame     -10.322   5.893  67.160  0.00  0.00     0.240 C 
ATOM     11  O3  non d ame     -11.325   6.372  66.795  0.00  0.00    -0.271 OA
ATOM     12  H10 non d ame      -9.019   5.656  68.824  0.00  0.00     0.163 HD
BRANCH  10  13
ATOM     13  C6  non d ame      -9.451   5.051  66.177  0.00  0.00     0.086 C 
ATOM     14  H6  non d ame     -10.000   4.220  65.735  0.00  0.00     0.086 H 
BRANCH  13  15
ATOM     15  N2  non d ame      -9.026   5.900  65.077  0.00  0.00    -0.343 N 
ATOM     16  C5  non d ame      -8.350   7.168  65.365  0.00  0.00     0.273 C 
ATOM     17  O2  non d ame      -8.157   7.496  66.484  0.00  0.00    -0.266 OA
ATOM     18  H5  non d ame      -9.198   5.614  64.124  0.00  0.00     0.163 HD
BRANCH  16  19
ATOM     19  C4  non d ame      -7.894   8.075  64.212  0.00  0.00     0.154 A 
ATOM     20  C1  non d ame      -8.611   9.173  63.640  0.00  0.00    -0.017 A 
ATOM     21  C2  non d ame      -7.765   9.670  62.623  0.00  0.00     0.077 A 
ATOM     22  H1  non d ame      -9.594   9.552  63.919  0.00  0.00     0.091 H 
ATOM     23  O1  non d ame      -6.690   8.937  62.621  0.00  0.00    -0.218 OA
ATOM     24  N1  non d ame      -6.742   8.000  63.539  0.00  0.00    -0.123 NA
BRANCH  21  25
ATOM     25  C3  non d ame      -8.057  10.847  61.702  0.00  0.00    -0.029 C 
ATOM     26  H2  non d ame      -7.415  11.686  61.968  0.00  0.00     0.036 H 
ATOM     27  H3  non d ame      -7.865  10.556  60.669  0.00  0.00     0.036 H 
ATOM     28  H4  non d ame      -9.102  11.141  61.808  0.00  0.00     0.036 H 
ENDBRANCH  21  25
ENDBRANCH  16  19
ENDBRANCH  13  15
BRANCH  13  29
ATOM     29  C8  non d ame      -8.248   4.507  66.905  0.00  0.00    -0.049 C 
ATOM     30  H7  non d ame      -7.975   3.540  66.485  0.00  0.00     0.030 H 
ATOM     31  H8  non d ame      -7.414   5.200  66.796  0.00  0.00     0.030 H 
ATOM     32  H9  non d ame      -8.487   4.389  67.962  0.00  0.00     0.030 H 
ENDBRANCH  13  29
ENDBRANCH  10  13
ENDBRANCH   7   9
BRANCH   7  33
ATOM     33  C11 non d ame     -10.591   6.256  70.881  0.00  0.00    -0.033 C 
ATOM     34  H12 non d ame      -9.884   6.864  71.444  0.00  0.00     0.042 H 
BRANCH  33  35
ATOM     35  C12 non d ame     -11.959   6.311  71.630  0.00  0.00    -0.071 C 
ATOM     36  H13 non d ame     -12.029   7.245  72.189  0.00  0.00     0.028 H 
ATOM     37  H14 non d ame     -12.772   6.260  70.906  0.00  0.00     0.028 H 
ATOM     38  H15 non d ame     -12.030   5.470  72.318  0.00  0.00     0.028 H 
ENDBRANCH  33  35
BRANCH  33  39
ATOM     39  C13 non d ame     -10.035   4.797  70.825  0.00  0.00    -0.071 C 
ATOM     40  H16 non d ame     -10.583   4.227  70.074  0.00  0.00     0.028 H 
ATOM     41  H17 non d ame      -8.977   4.821  70.562  0.00  0.00     0.028 H 
ATOM     42  H18 non d ame     -10.156   4.324  71.799  0.00  0.00     0.028 H 
ENDBRANCH  33  39
ENDBRANCH   7  33
ENDBRANCH   4   7
ENDBRANCH   1   3
BRANCH   1  43
ATOM     43  C15 non d ame     -11.057  11.447  68.422  0.00  0.00     0.240 C 
ATOM     44  O5  non d ame     -12.047  11.264  67.791  0.00  0.00    -0.271 OA
ATOM     45  N6  non d ame     -10.998  12.572  69.399  0.00  0.00    -0.355 N 
ATOM     46  H46 non d ame     -10.165  12.735  69.944  0.00  0.00     0.162 HD
BRANCH  45  47
ATOM     47  C20 non d ame     -12.171  13.456  69.569  0.00  0.00     0.013 C 
ATOM     48  H30 non d ame     -13.019  12.989  69.068  0.00  0.00     0.072 H 
BRANCH  47  49
ATOM     49  C21 non d ame     -11.878  14.801  68.943  0.00  0.00    -0.038 C 
ATOM     50  H31 non d ame     -12.762  15.052  68.355  0.00  0.00     0.036 H 
ATOM     51  H32 non d ame     -11.569  15.447  69.765  0.00  0.00     0.036 H 
BRANCH  49  52
ATOM     52  C22 non d ame     -10.694  14.757  67.953  0.00  0.00     0.018 C 
ATOM     53  H33 non d ame     -10.095  15.642  68.169  0.00  0.00     0.048 H 
ATOM     54  H34 non d ame     -10.257  13.763  68.061  0.00  0.00     0.048 H 
BRANCH  52  55
ATOM     55  C23 non d ame     -11.118  14.879  66.463  0.00  0.00     0.259 C 
ATOM     56  O7  non d ame     -11.936  14.148  66.007  0.00  0.00    -0.265 OA
BRANCH  55  57
ATOM     57  O8  non d ame     -10.506  15.868  65.644  0.00  0.00    -0.317 OA
BRANCH  57  58
ATOM     58  C29 non d ame      -9.201  16.258  66.079  0.00  0.00     0.052 C 
ATOM     59  H47 non d ame      -8.990  15.653  66.961  0.00  0.00     0.082 H 
ATOM     60  H48 non d ame      -8.561  16.180  65.200  0.00  0.00     0.082 H 
BRANCH  58  61
ATOM     61  C35 non d ame      -9.265  17.748  66.509  0.00  0.00    -0.034 A 
ATOM     62  C30 non d ame      -8.121  18.538  66.458  0.00  0.00    -0.075 A 
ATOM     63  C31 non d ame      -8.178  19.876  66.844  0.00  0.00    -0.082 A 
ATOM     64  H49 non d ame      -7.179  18.108  66.114  0.00  0.00     0.084 H 
ATOM     65  C32 non d ame      -9.386  20.424  67.286  0.00  0.00    -0.083 A 
ATOM     66  H50 non d ame      -7.280  20.493  66.800  0.00  0.00     0.083 H 
ATOM     67  C33 non d ame     -10.524  19.631  67.338  0.00  0.00    -0.082 A 
ATOM     68  H51 non d ame      -9.439  21.469  67.589  0.00  0.00     0.083 H 
ATOM     69  C34 non d ame     -10.472  18.293  66.951  0.00  0.00    -0.075 A 
ATOM     70  H52 non d ame     -11.464  20.060  67.685  0.00  0.00     0.083 H 
ATOM     71  H53 non d ame     -11.370  17.677  66.994  0.00  0.00     0.084 H 
ENDBRANCH  58  61
ENDBRANCH  57  58
ENDBRANCH  55  57
ENDBRANCH  52  55
ENDBRANCH  49  52
ENDBRANCH  47  49
BRANCH  47  72
ATOM     72  C24 non d ame     -12.469  13.640  71.055  0.00  0.00    -0.039 C 
ATOM     73  H35 non d ame     -13.319  12.989  71.264  0.00  0.00     0.036 H 
ATOM     74  H36 non d ame     -11.519  13.474  71.564  0.00  0.00     0.036 H 
BRANCH  72  75
ATOM     75  C25 non d ame     -12.928  15.138  71.388  0.00  0.00    -0.001 C 
ATOM     76  C26 non d ame     -11.746  15.913  72.227  0.00  0.00    -0.035 C 
ATOM     77  C27 non d ame     -12.289  16.465  73.339  0.00  0.00     0.085 C 
ATOM     78  H38 non d ame     -11.034  15.190  72.624  0.00  0.00     0.036 H 
ATOM     79  H39 non d ame     -11.390  16.775  71.663  0.00  0.00     0.036 H 
ATOM     80  N5  non d ame     -13.664  15.862  73.503  0.00  0.00    -0.049 N 
ATOM     81  H40 non d ame     -11.657  16.139  74.165  0.00  0.00     0.075 H 
ATOM     82  H41 non d ame     -12.391  17.526  73.116  0.00  0.00     0.075 H 
ATOM     83  C28 non d ame     -14.008  15.150  72.096  0.00  0.00     0.193 C 
ATOM     84  H42 non d ame     -13.580  15.149  74.213  0.00  0.00     0.280 HD
ATOM     85  H43 non d ame     -14.301  16.635  73.636  0.00  0.00     0.280 HD
ATOM     86  H44 non d ame     -14.700  15.616  71.394  0.00  0.00     0.129 H 
ATOM     87  H37 non d ame     -13.333  15.649  70.514  0.00  0.00     0.046 H 
BRANCH  83  88
ATOM     88  O6  non d ame     -14.519  13.835  72.321  0.00  0.00    -0.369 OA
ATOM     89  H45 non d ame     -15.300  13.699  71.780  0.00  0.00     0.212 HD
ENDBRANCH  83  88
ENDBRANCH  72  75
ENDBRANCH  47  72
ENDBRANCH  45  47
ENDBRANCH   1  43
BRANCH   1  90
ATOM     90  C16 non d ame      -9.159  10.806  66.902  0.00  0.00    -0.035 C 
ATOM     91  H21 non d ame      -8.894   9.834  66.487  0.00  0.00     0.037 H 
ATOM     92  H22 non d ame      -9.852  11.456  66.368  0.00  0.00     0.037 H 
BRANCH  90  93
ATOM     93  C17 non d ame      -7.824  11.605  67.041  0.00  0.00    -0.059 C 
ATOM     94  H23 non d ame      -7.961  12.567  66.548  0.00  0.00     0.038 H 
BRANCH  93  95
ATOM     95  C18 non d ame      -7.456  11.883  68.534  0.00  0.00    -0.073 C 
ATOM     96  H24 non d ame      -6.386  12.068  68.616  0.00  0.00     0.028 H 
ATOM     97  H25 non d ame      -8.004  12.757  68.887  0.00  0.00     0.028 H 
ATOM     98  H26 non d ame      -7.723  11.017  69.141  0.00  0.00     0.028 H 
ENDBRANCH  93  95
BRANCH  93  99
ATOM     99  C19 non d ame      -6.679  10.886  66.323  0.00  0.00    -0.073 C 
ATOM    100  H27 non d ame      -5.861  11.586  66.151  0.00  0.00     0.028 H 
ATOM    101  H28 non d ame      -6.326  10.059  66.940  0.00  0.00     0.028 H 
ATOM    102  H29 non d ame      -7.035  10.499  65.368  0.00  0.00     0.028 H 
ENDBRANCH  93  99
ENDBRANCH  90  93
ENDBRANCH   1  90
TORSDOF 26
ENDMDL
MODEL 9
REMARK VINA RESULT:      -6.4      2.314      7.779
REMARK  26 active torsions:
REMARK  status: ('A' for Active; 'I' for Inactive)
REMARK    1  A    between atoms: C2_2  and  C3_3 
REMARK    2  A    between atoms: C4_6  and  C5_7 
REMARK       I    between atoms: C5_7  and  N2_9 
REMARK    3  A    between atoms: N2_9  and  C6_10 
REMARK    4  A    between atoms: C6_10  and  C7_11 
REMARK    5  A    between atoms: C6_10  and  C8_13 
REMARK       I    between atoms: C7_11  and  N3_14 
REMARK    6  A    between atoms: N3_14  and  C9_15 
REMARK    7  A    between atoms: C9_15  and  C10_16 
REMARK    8  A    between atoms: C9_15  and  C11_18 
REMARK       I    between atoms: C10_16  and  N4_21 
REMARK    9  A    between atoms: C11_18  and  C12_19 
REMARK   10  A    between atoms: C11_18  and  C13_20 
REMARK   11  A    between atoms: N4_21  and  C14_22 
REMARK   12  A    between atoms: C14_22  and  C15_23 
REMARK   13  A    between atoms: C14_22  and  C16_25 
REMARK       I    between atoms: C15_23  and  N6_40 
REMARK   14  A    between atoms: C16_25  and  C17_26 
REMARK   15  A    between atoms: C17_26  and  C18_27 
REMARK   16  A    between atoms: C17_26  and  C19_28 
REMARK   17  A    between atoms: C20_29  and  C21_30 
REMARK   18  A    between atoms: C20_29  and  C24_33 
REMARK   19  A    between atoms: C20_29  and  N6_40 
REMARK   20  A    between atoms: C21_30  and  C22_31 
REMARK   21  A    between atoms: C22_31  and  C23_32 
REMARK   22  A    between atoms: C23_32  and  O8_43 
REMARK   23  A    between atoms: C24_33  and  C25_34 
REMARK   24  A    between atoms: C28_38  and  O6_39 
REMARK   25  A    between atoms: C29_42  and  O8_43 
REMARK   26  A    between atoms: C29_42  and  C35_49 
ROOT
ATOM      1  C14 non d ame      -9.917  12.184  65.394  0.00  0.00     0.089 C 
ATOM      2  H20 non d ame      -9.913  12.571  64.374  0.00  0.00     0.087 H 
ENDROOT
BRANCH   1   3
ATOM      3  N4  non d ame      -9.125  10.963  65.402  0.00  0.00    -0.346 N 
ATOM      4  C10 non d ame      -9.150  10.031  64.217  0.00  0.00     0.241 C 
ATOM      5  O4  non d ame      -9.817  10.283  63.269  0.00  0.00    -0.271 OA
ATOM      6  H19 non d ame      -8.566  10.765  66.220  0.00  0.00     0.163 HD
BRANCH   4   7
ATOM      7  C9  non d ame      -8.320   8.774  64.241  0.00  0.00     0.092 C 
ATOM      8  H11 non d ame      -7.356   8.990  64.702  0.00  0.00     0.088 H 
BRANCH   7   9
ATOM      9  N3  non d ame      -8.982   7.766  65.075  0.00  0.00    -0.346 N 
ATOM     10  C7  non d ame      -8.627   7.636  66.466  0.00  0.00     0.240 C 
ATOM     11  O3  non d ame      -7.809   8.332  66.931  0.00  0.00    -0.271 OA
ATOM     12  H10 non d ame      -9.688   7.157  64.687  0.00  0.00     0.163 HD
BRANCH  10  13
ATOM     13  C6  non d ame      -9.333   6.559  67.348  0.00  0.00     0.086 C 
ATOM     14  H6  non d ame      -8.654   6.078  68.051  0.00  0.00     0.086 H 
BRANCH  13  15
ATOM     15  N2  non d ame     -10.366   7.203  68.141  0.00  0.00    -0.343 N 
ATOM     16  C5  non d ame     -10.070   7.614  69.515  0.00  0.00     0.273 C 
ATOM     17  O2  non d ame      -8.998   7.419  69.974  0.00  0.00    -0.266 OA
ATOM     18  H5  non d ame     -11.281   7.363  67.742  0.00  0.00     0.163 HD
BRANCH  16  19
ATOM     19  C4  non d ame     -11.152   8.297  70.365  0.00  0.00     0.154 A 
ATOM     20  C1  non d ame     -11.415   9.700  70.465  0.00  0.00    -0.017 A 
ATOM     21  C2  non d ame     -12.499   9.804  71.365  0.00  0.00     0.077 A 
ATOM     22  H1  non d ame     -10.899  10.518  69.962  0.00  0.00     0.091 H 
ATOM     23  O1  non d ame     -12.815   8.596  71.732  0.00  0.00    -0.218 OA
ATOM     24  N1  non d ame     -12.043   7.700  71.162  0.00  0.00    -0.123 NA
BRANCH  21  25
ATOM     25  C3  non d ame     -13.173  11.091  71.821  0.00  0.00    -0.029 C 
ATOM     26  H2  non d ame     -12.577  11.947  71.501  0.00  0.00     0.036 H 
ATOM     27  H3  non d ame     -14.168  11.156  71.380  0.00  0.00     0.036 H 
ATOM     28  H4  non d ame     -13.258  11.093  72.908  0.00  0.00     0.036 H 
ENDBRANCH  21  25
ENDBRANCH  16  19
ENDBRANCH  13  15
BRANCH  13  29
ATOM     29  C8  non d ame      -9.944   5.503  66.462  0.00  0.00    -0.049 C 
ATOM     30  H7  non d ame      -9.220   4.707  66.292  0.00  0.00     0.030 H 
ATOM     31  H8  non d ame     -10.830   5.091  66.946  0.00  0.00     0.030 H 
ATOM     32  H9  non d ame     -10.225   5.948  65.508  0.00  0.00     0.030 H 
ENDBRANCH  13  29
ENDBRANCH  10  13
ENDBRANCH   7   9
BRANCH   7  33
ATOM     33  C11 non d ame      -8.167   8.226  62.792  0.00  0.00    -0.033 C 
ATOM     34  H12 non d ame      -9.082   8.468  62.251  0.00  0.00     0.042 H 
BRANCH  33  35
ATOM     35  C12 non d ame      -6.983   8.916  62.045  0.00  0.00    -0.071 C 
ATOM     36  H13 non d ame      -6.264   8.160  61.728  0.00  0.00     0.028 H 
ATOM     37  H14 non d ame      -7.364   9.444  61.172  0.00  0.00     0.028 H 
ATOM     38  H15 non d ame      -6.495   9.623  62.715  0.00  0.00     0.028 H 
ENDBRANCH  33  35
BRANCH  33  39
ATOM     39  C13 non d ame      -8.006   6.672  62.796  0.00  0.00    -0.071 C 
ATOM     40  H16 non d ame      -8.975   6.206  62.973  0.00  0.00     0.028 H 
ATOM     41  H17 non d ame      -7.616   6.344  61.832  0.00  0.00     0.028 H 
ATOM     42  H18 non d ame      -7.313   6.381  63.585  0.00  0.00     0.028 H 
ENDBRANCH  33  39
ENDBRANCH   7  33
ENDBRANCH   4   7
ENDBRANCH   1   3
BRANCH   1  43
ATOM     43  C15 non d ame      -9.291  13.187  66.404  0.00  0.00     0.240 C 
ATOM     44  O5  non d ame      -8.543  12.795  67.240  0.00  0.00    -0.271 OA
ATOM     45  N6  non d ame      -9.619  14.640  66.325  0.00  0.00    -0.355 N 
ATOM     46  H46 non d ame     -10.249  14.985  65.616  0.00  0.00     0.162 HD
BRANCH  45  47
ATOM     47  C20 non d ame      -9.015  15.581  67.292  0.00  0.00     0.013 C 
ATOM     48  H30 non d ame      -9.400  16.577  67.076  0.00  0.00     0.072 H 
BRANCH  47  49
ATOM     49  C21 non d ame      -7.511  15.563  67.135  0.00  0.00    -0.038 C 
ATOM     50  H31 non d ame      -7.275  14.605  66.671  0.00  0.00     0.036 H 
ATOM     51  H32 non d ame      -7.258  16.493  66.625  0.00  0.00     0.036 H 
BRANCH  49  52
ATOM     52  C22 non d ame      -6.766  15.590  68.487  0.00  0.00     0.018 C 
ATOM     53  H33 non d ame      -7.533  15.759  69.243  0.00  0.00     0.048 H 
ATOM     54  H34 non d ame      -6.167  14.679  68.512  0.00  0.00     0.048 H 
BRANCH  52  55
ATOM     55  C23 non d ame      -5.761  16.767  68.625  0.00  0.00     0.259 C 
ATOM     56  O7  non d ame      -4.623  16.628  68.312  0.00  0.00    -0.265 OA
BRANCH  55  57
ATOM     57  O8  non d ame      -6.213  18.012  69.143  0.00  0.00    -0.317 OA
BRANCH  57  58
ATOM     58  C29 non d ame      -6.295  19.054  68.167  0.00  0.00     0.052 C 
ATOM     59  H47 non d ame      -5.967  19.961  68.675  0.00  0.00     0.082 H 
ATOM     60  H48 non d ame      -5.747  18.688  67.299  0.00  0.00     0.082 H 
BRANCH  58  61
ATOM     61  C35 non d ame      -7.786  19.223  67.771  0.00  0.00    -0.034 A 
ATOM     62  C30 non d ame      -8.136  19.405  66.437  0.00  0.00    -0.075 A 
ATOM     63  C31 non d ame      -9.475  19.558  66.081  0.00  0.00    -0.082 A 
ATOM     64  H49 non d ame      -7.361  19.427  65.670  0.00  0.00     0.084 H 
ATOM     65  C32 non d ame     -10.466  19.531  67.066  0.00  0.00    -0.083 A 
ATOM     66  H50 non d ame      -9.746  19.697  65.034  0.00  0.00     0.083 H 
ATOM     67  C33 non d ame     -10.112  19.353  68.396  0.00  0.00    -0.082 A 
ATOM     68  H51 non d ame     -11.516  19.648  66.796  0.00  0.00     0.083 H 
ATOM     69  C34 non d ame      -8.775  19.198  68.756  0.00  0.00    -0.075 A 
ATOM     70  H52 non d ame     -10.887  19.334  69.162  0.00  0.00     0.083 H 
ATOM     71  H53 non d ame      -8.504  19.057  69.803  0.00  0.00     0.084 H 
ENDBRANCH  58  61
ENDBRANCH  57  58
ENDBRANCH  55  57
ENDBRANCH  52  55
ENDBRANCH  49  52
ENDBRANCH  47  49
BRANCH  47  72
ATOM     72  C24 non d ame      -9.383  15.166  68.715  0.00  0.00    -0.039 C 
ATOM     73  H35 non d ame      -9.151  14.103  68.777  0.00  0.00     0.036 H 
ATOM     74  H36 non d ame      -8.869  15.874  69.366  0.00  0.00     0.036 H 
BRANCH  72  75
ATOM     75  C25 non d ame     -10.953  15.324  68.991  0.00  0.00    -0.001 C 
ATOM     76  C26 non d ame     -11.202  16.401  70.209  0.00  0.00    -0.035 C 
ATOM     77  C27 non d ame     -12.018  15.835  71.131  0.00  0.00     0.085 C 
ATOM     78  H38 non d ame     -10.275  16.566  70.757  0.00  0.00     0.036 H 
ATOM     79  H39 non d ame     -11.780  17.250  69.845  0.00  0.00     0.036 H 
ATOM     80  N5  non d ame     -12.084  14.360  70.816  0.00  0.00    -0.049 N 
ATOM     81  H40 non d ame     -11.515  15.972  72.089  0.00  0.00     0.075 H 
ATOM     82  H41 non d ame     -12.999  16.278  70.962  0.00  0.00     0.075 H 
ATOM     83  C28 non d ame     -11.485  14.196  69.326  0.00  0.00     0.193 C 
ATOM     84  H42 non d ame     -11.461  13.901  71.465  0.00  0.00     0.280 HD
ATOM     85  H43 non d ame     -13.064  14.115  70.797  0.00  0.00     0.280 HD
ATOM     86  H44 non d ame     -12.149  14.030  68.478  0.00  0.00     0.129 H 
ATOM     87  H37 non d ame     -11.521  15.475  68.072  0.00  0.00     0.046 H 
BRANCH  83  88
ATOM     88  O6  non d ame     -10.542  13.124  69.289  0.00  0.00    -0.369 OA
ATOM     89  H45 non d ame     -10.958  12.321  69.611  0.00  0.00     0.212 HD
ENDBRANCH  83  88
ENDBRANCH  72  75
ENDBRANCH  47  72
ENDBRANCH  45  47
ENDBRANCH   1  43
BRANCH   1  90
ATOM     90  C16 non d ame     -11.340  11.855  65.814  0.00  0.00    -0.035 C 
ATOM     91  H21 non d ame     -11.472  10.797  65.587  0.00  0.00     0.037 H 
ATOM     92  H22 non d ame     -11.426  12.206  66.843  0.00  0.00     0.037 H 
BRANCH  90  93
ATOM     93  C17 non d ame     -12.428  12.620  64.995  0.00  0.00    -0.059 C 
ATOM     94  H23 non d ame     -13.307  11.978  64.932  0.00  0.00     0.038 H 
BRANCH  93  95
ATOM     95  C18 non d ame     -12.860  13.952  65.688  0.00  0.00    -0.073 C 
ATOM     96  H24 non d ame     -12.082  14.702  65.549  0.00  0.00     0.028 H 
ATOM     97  H25 non d ame     -13.791  14.307  65.245  0.00  0.00     0.028 H 
ATOM     98  H26 non d ame     -13.009  13.776  66.753  0.00  0.00     0.028 H 
ENDBRANCH  93  95
BRANCH  93  99
ATOM     99  C19 non d ame     -11.952  12.880  63.563  0.00  0.00    -0.073 C 
ATOM    100  H27 non d ame     -12.742  12.607  62.862  0.00  0.00     0.028 H 
ATOM    101  H28 non d ame     -11.713  13.938  63.447  0.00  0.00     0.028 H 
ATOM    102  H29 non d ame     -11.064  12.283  63.362  0.00  0.00     0.028 H 
ENDBRANCH  93  99
ENDBRANCH  90  93
ENDBRANCH   1  90
TORSDOF 26
ENDMDL
MODEL 10
REMARK VINA RESULT:      -6.4      2.637      5.056
REMARK  26 active torsions:
REMARK  status: ('A' for Active; 'I' for Inactive)
REMARK    1  A    between atoms: C2_2  and  C3_3 
REMARK    2  A    between atoms: C4_6  and  C5_7 
REMARK       I    between atoms: C5_7  and  N2_9 
REMARK    3  A    between atoms: N2_9  and  C6_10 
REMARK    4  A    between atoms: C6_10  and  C7_11 
REMARK    5  A    between atoms: C6_10  and  C8_13 
REMARK       I    between atoms: C7_11  and  N3_14 
REMARK    6  A    between atoms: N3_14  and  C9_15 
REMARK    7  A    between atoms: C9_15  and  C10_16 
REMARK    8  A    between atoms: C9_15  and  C11_18 
REMARK       I    between atoms: C10_16  and  N4_21 
REMARK    9  A    between atoms: C11_18  and  C12_19 
REMARK   10  A    between atoms: C11_18  and  C13_20 
REMARK   11  A    between atoms: N4_21  and  C14_22 
REMARK   12  A    between atoms: C14_22  and  C15_23 
REMARK   13  A    between atoms: C14_22  and  C16_25 
REMARK       I    between atoms: C15_23  and  N6_40 
REMARK   14  A    between atoms: C16_25  and  C17_26 
REMARK   15  A    between atoms: C17_26  and  C18_27 
REMARK   16  A    between atoms: C17_26  and  C19_28 
REMARK   17  A    between atoms: C20_29  and  C21_30 
REMARK   18  A    between atoms: C20_29  and  C24_33 
REMARK   19  A    between atoms: C20_29  and  N6_40 
REMARK   20  A    between atoms: C21_30  and  C22_31 
REMARK   21  A    between atoms: C22_31  and  C23_32 
REMARK   22  A    between atoms: C23_32  and  O8_43 
REMARK   23  A    between atoms: C24_33  and  C25_34 
REMARK   24  A    between atoms: C28_38  and  O6_39 
REMARK   25  A    between atoms: C29_42  and  O8_43 
REMARK   26  A    between atoms: C29_42  and  C35_49 
ROOT
ATOM      1  C14 non d ame     -12.351  14.202  69.545  0.00  0.00     0.089 C 
ATOM      2  H20 non d ame     -13.285  13.776  69.176  0.00  0.00     0.087 H 
ENDROOT
BRANCH   1   3
ATOM      3  N4  non d ame     -11.494  13.096  69.946  0.00  0.00    -0.346 N 
ATOM      4  C10 non d ame     -11.580  11.769  69.235  0.00  0.00     0.241 C 
ATOM      5  O4  non d ame     -12.348  11.614  68.344  0.00  0.00    -0.271 OA
ATOM      6  H19 non d ame     -10.848  13.248  70.708  0.00  0.00     0.163 HD
BRANCH   4   7
ATOM      7  C9  non d ame     -10.681  10.638  69.660  0.00  0.00     0.092 C 
ATOM      8  H11 non d ame     -10.285  10.848  70.653  0.00  0.00     0.088 H 
BRANCH   7   9
ATOM      9  N3  non d ame     -11.464   9.402  69.758  0.00  0.00    -0.346 N 
ATOM     10  C7  non d ame     -11.421   8.617  70.967  0.00  0.00     0.240 C 
ATOM     11  O3  non d ame     -10.761   8.964  71.870  0.00  0.00    -0.271 OA
ATOM     12  H10 non d ame     -12.036   9.089  68.987  0.00  0.00     0.163 HD
BRANCH  10  13
ATOM     13  C6  non d ame     -12.254   7.301  71.065  0.00  0.00     0.086 C 
ATOM     14  H6  non d ame     -13.328   7.482  71.070  0.00  0.00     0.086 H 
BRANCH  13  15
ATOM     15  N2  non d ame     -11.976   6.479  69.899  0.00  0.00    -0.343 N 
ATOM     16  C5  non d ame     -10.599   6.063  69.622  0.00  0.00     0.273 C 
ATOM     17  O2  non d ame      -9.723   6.396  70.342  0.00  0.00    -0.266 OA
ATOM     18  H5  non d ame     -12.730   6.201  69.288  0.00  0.00     0.163 HD
BRANCH  16  19
ATOM     19  C4  non d ame     -10.291   5.192  68.394  0.00  0.00     0.154 A 
ATOM     20  C1  non d ame     -10.497   5.533  67.019  0.00  0.00    -0.017 A 
ATOM     21  C2  non d ame     -10.056   4.403  66.295  0.00  0.00     0.077 A 
ATOM     22  H1  non d ame     -10.905   6.457  66.610  0.00  0.00     0.091 H 
ATOM     23  O1  non d ame      -9.645   3.524  67.161  0.00  0.00    -0.218 OA
ATOM     24  N1  non d ame      -9.772   3.961  68.392  0.00  0.00    -0.123 NA
BRANCH  21  25
ATOM     25  C3  non d ame     -10.060   4.245  64.780  0.00  0.00    -0.029 C 
ATOM     26  H2  non d ame     -11.000   3.792  64.464  0.00  0.00     0.036 H 
ATOM     27  H3  non d ame      -9.953   5.224  64.313  0.00  0.00     0.036 H 
ATOM     28  H4  non d ame      -9.229   3.607  64.478  0.00  0.00     0.036 H 
ENDBRANCH  21  25
ENDBRANCH  16  19
ENDBRANCH  13  15
BRANCH  13  29
ATOM     29  C8  non d ame     -11.879   6.558  72.322  0.00  0.00    -0.049 C 
ATOM     30  H7  non d ame     -10.824   6.723  72.541  0.00  0.00     0.030 H 
ATOM     31  H8  non d ame     -12.483   6.921  73.153  0.00  0.00     0.030 H 
ATOM     32  H9  non d ame     -12.057   5.492  72.181  0.00  0.00     0.030 H 
ENDBRANCH  13  29
ENDBRANCH  10  13
ENDBRANCH   7   9
BRANCH   7  33
ATOM     33  C11 non d ame      -9.550  10.450  68.606  0.00  0.00    -0.033 C 
ATOM     34  H12 non d ame      -9.993   9.977  67.729  0.00  0.00     0.042 H 
BRANCH  33  35
ATOM     35  C12 non d ame      -8.962  11.822  68.152  0.00  0.00    -0.071 C 
ATOM     36  H13 non d ame      -9.606  12.628  68.505  0.00  0.00     0.028 H 
ATOM     37  H14 non d ame      -7.964  11.946  68.571  0.00  0.00     0.028 H 
ATOM     38  H15 non d ame      -8.907  11.851  67.064  0.00  0.00     0.028 H 
ENDBRANCH  33  35
BRANCH  33  39
ATOM     39  C13 non d ame      -8.430   9.506  69.149  0.00  0.00    -0.071 C 
ATOM     40  H16 non d ame      -8.697   9.163  70.149  0.00  0.00     0.028 H 
ATOM     41  H17 non d ame      -8.326   8.646  68.486  0.00  0.00     0.028 H 
ATOM     42  H18 non d ame      -7.487  10.049  69.191  0.00  0.00     0.028 H 
ENDBRANCH  33  39
ENDBRANCH   7  33
ENDBRANCH   4   7
ENDBRANCH   1   3
BRANCH   1  43
ATOM     43  C15 non d ame     -11.613  15.030  68.454  0.00  0.00     0.240 C 
ATOM     44  O5  non d ame     -11.528  16.211  68.566  0.00  0.00    -0.271 OA
ATOM     45  N6  non d ame     -11.005  14.351  67.275  0.00  0.00    -0.355 N 
ATOM     46  H46 non d ame     -11.067  13.349  67.172  0.00  0.00     0.162 HD
BRANCH  45  47
ATOM     47  C20 non d ame     -10.305  15.153  66.248  0.00  0.00     0.013 C 
ATOM     48  H30 non d ame     -10.751  16.147  66.237  0.00  0.00     0.072 H 
BRANCH  47  49
ATOM     49  C21 non d ame     -10.478  14.495  64.897  0.00  0.00    -0.038 C 
ATOM     50  H31 non d ame     -11.365  14.952  64.458  0.00  0.00     0.036 H 
ATOM     51  H32 non d ame      -9.513  14.588  64.399  0.00  0.00     0.036 H 
BRANCH  49  52
ATOM     52  C22 non d ame     -10.772  12.982  65.001  0.00  0.00     0.018 C 
ATOM     53  H33 non d ame      -9.800  12.498  65.095  0.00  0.00     0.048 H 
ATOM     54  H34 non d ame     -11.512  12.879  65.795  0.00  0.00     0.048 H 
BRANCH  52  55
ATOM     55  C23 non d ame     -11.427  12.383  63.726  0.00  0.00     0.259 C 
ATOM     56  O7  non d ame     -12.332  12.940  63.194  0.00  0.00    -0.265 OA
BRANCH  55  57
ATOM     57  O8  non d ame     -10.942  11.151  63.206  0.00  0.00    -0.317 OA
BRANCH  57  58
ATOM     58  C29 non d ame      -9.528  11.127  62.992  0.00  0.00     0.052 C 
ATOM     59  H47 non d ame      -9.393  11.097  61.911  0.00  0.00     0.082 H 
ATOM     60  H48 non d ame      -9.128  11.961  63.568  0.00  0.00     0.082 H 
BRANCH  58  61
ATOM     61  C35 non d ame      -8.976   9.806  63.592  0.00  0.00    -0.034 A 
ATOM     62  C30 non d ame      -8.340   8.880  62.772  0.00  0.00    -0.075 A 
ATOM     63  C31 non d ame      -7.844   7.694  63.310  0.00  0.00    -0.082 A 
ATOM     64  H49 non d ame      -8.230   9.084  61.706  0.00  0.00     0.084 H 
ATOM     65  C32 non d ame      -7.989   7.434  64.676  0.00  0.00    -0.083 A 
ATOM     66  H50 non d ame      -7.344   6.971  62.665  0.00  0.00     0.083 H 
ATOM     67  C33 non d ame      -8.627   8.359  65.490  0.00  0.00    -0.082 A 
ATOM     68  H51 non d ame      -7.603   6.509  65.105  0.00  0.00     0.083 H 
ATOM     69  C34 non d ame      -9.122   9.547  64.956  0.00  0.00    -0.075 A 
ATOM     70  H52 non d ame      -8.740   8.152  66.555  0.00  0.00     0.083 H 
ATOM     71  H53 non d ame      -9.621  10.270  65.603  0.00  0.00     0.084 H 
ENDBRANCH  58  61
ENDBRANCH  57  58
ENDBRANCH  55  57
ENDBRANCH  52  55
ENDBRANCH  49  52
ENDBRANCH  47  49
BRANCH  47  72
ATOM     72  C24 non d ame      -8.819  15.241  66.586  0.00  0.00    -0.039 C 
ATOM     73  H35 non d ame      -8.631  14.427  67.286  0.00  0.00     0.036 H 
ATOM     74  H36 non d ame      -8.304  15.263  65.625  0.00  0.00     0.036 H 
BRANCH  72  75
ATOM     75  C25 non d ame      -8.463  16.607  67.343  0.00  0.00    -0.001 C 
ATOM     76  C26 non d ame      -9.055  17.887  66.497  0.00  0.00    -0.035 C 
ATOM     77  C27 non d ame      -8.060  18.787  66.314  0.00  0.00     0.085 C 
ATOM     78  H38 non d ame      -9.309  17.579  65.483  0.00  0.00     0.036 H 
ATOM     79  H39 non d ame      -9.783  18.431  67.100  0.00  0.00     0.036 H 
ATOM     80  N5  non d ame      -6.767  18.095  66.672  0.00  0.00    -0.049 N 
ATOM     81  H40 non d ame      -8.060  19.010  65.247  0.00  0.00     0.075 H 
ATOM     82  H41 non d ame      -8.249  19.581  67.037  0.00  0.00     0.075 H 
ATOM     83  C28 non d ame      -7.187  16.754  67.468  0.00  0.00     0.193 C 
ATOM     84  H42 non d ame      -6.334  17.828  65.799  0.00  0.00     0.280 HD
ATOM     85  H43 non d ame      -6.280  18.708  67.310  0.00  0.00     0.280 HD
ATOM     86  H44 non d ame      -7.086  16.700  68.552  0.00  0.00     0.129 H 
ATOM     87  H37 non d ame      -8.701  16.564  68.406  0.00  0.00     0.046 H 
BRANCH  83  88
ATOM     88  O6  non d ame      -6.463  15.632  66.960  0.00  0.00    -0.369 OA
ATOM     89  H45 non d ame      -6.920  14.823  67.198  0.00  0.00     0.212 HD
ENDBRANCH  83  88
ENDBRANCH  72  75
ENDBRANCH  47  72
ENDBRANCH  45  47
ENDBRANCH   1  43
BRANCH   1  90
ATOM     90  C16 non d ame     -12.627  15.080  70.754  0.00  0.00    -0.035 C 
ATOM     91  H21 non d ame     -11.736  15.697  70.873  0.00  0.00     0.037 H 
ATOM     92  H22 non d ame     -13.592  15.549  70.557  0.00  0.00     0.037 H 
BRANCH  90  93
ATOM     93  C17 non d ame     -12.790  14.280  72.086  0.00  0.00    -0.059 C 
ATOM     94  H23 non d ame     -12.092  13.443  72.056  0.00  0.00     0.038 H 
BRANCH  93  95
ATOM     95  C18 non d ame     -12.444  15.145  73.340  0.00  0.00    -0.073 C 
ATOM     96  H24 non d ame     -12.612  14.559  74.243  0.00  0.00     0.028 H 
ATOM     97  H25 non d ame     -11.398  15.450  73.293  0.00  0.00     0.028 H 
ATOM     98  H26 non d ame     -13.080  16.030  73.357  0.00  0.00     0.028 H 
ENDBRANCH  93  95
BRANCH  93  99
ATOM     99  C19 non d ame     -14.199  13.692  72.201  0.00  0.00    -0.073 C 
ATOM    100  H27 non d ame     -14.804  14.324  72.852  0.00  0.00     0.028 H 
ATOM    101  H28 non d ame     -14.656  13.647  71.212  0.00  0.00     0.028 H 
ATOM    102  H29 non d ame     -14.141  12.688  72.621  0.00  0.00     0.028 H 
ENDBRANCH  93  99
ENDBRANCH  90  93
ENDBRANCH   1  90
TORSDOF 26
ENDMDL
MODEL 11
REMARK VINA RESULT:      -6.4      2.959      6.127
REMARK  26 active torsions:
REMARK  status: ('A' for Active; 'I' for Inactive)
REMARK    1  A    between atoms: C2_2  and  C3_3 
REMARK    2  A    between atoms: C4_6  and  C5_7 
REMARK       I    between atoms: C5_7  and  N2_9 
REMARK    3  A    between atoms: N2_9  and  C6_10 
REMARK    4  A    between atoms: C6_10  and  C7_11 
REMARK    5  A    between atoms: C6_10  and  C8_13 
REMARK       I    between atoms: C7_11  and  N3_14 
REMARK    6  A    between atoms: N3_14  and  C9_15 
REMARK    7  A    between atoms: C9_15  and  C10_16 
REMARK    8  A    between atoms: C9_15  and  C11_18 
REMARK       I    between atoms: C10_16  and  N4_21 
REMARK    9  A    between atoms: C11_18  and  C12_19 
REMARK   10  A    between atoms: C11_18  and  C13_20 
REMARK   11  A    between atoms: N4_21  and  C14_22 
REMARK   12  A    between atoms: C14_22  and  C15_23 
REMARK   13  A    between atoms: C14_22  and  C16_25 
REMARK       I    between atoms: C15_23  and  N6_40 
REMARK   14  A    between atoms: C16_25  and  C17_26 
REMARK   15  A    between atoms: C17_26  and  C18_27 
REMARK   16  A    between atoms: C17_26  and  C19_28 
REMARK   17  A    between atoms: C20_29  and  C21_30 
REMARK   18  A    between atoms: C20_29  and  C24_33 
REMARK   19  A    between atoms: C20_29  and  N6_40 
REMARK   20  A    between atoms: C21_30  and  C22_31 
REMARK   21  A    between atoms: C22_31  and  C23_32 
REMARK   22  A    between atoms: C23_32  and  O8_43 
REMARK   23  A    between atoms: C24_33  and  C25_34 
REMARK   24  A    between atoms: C28_38  and  O6_39 
REMARK   25  A    between atoms: C29_42  and  O8_43 
REMARK   26  A    between atoms: C29_42  and  C35_49 
ROOT
ATOM      1  C14 non d ame     -10.263  10.815  68.473  0.00  0.00     0.089 C 
ATOM      2  H20 non d ame      -9.435  10.844  69.183  0.00  0.00     0.087 H 
ENDROOT
BRANCH   1   3
ATOM      3  N4  non d ame     -10.774   9.453  68.452  0.00  0.00    -0.346 N 
ATOM      4  C10 non d ame     -10.155   8.393  69.327  0.00  0.00     0.241 C 
ATOM      5  O4  non d ame      -9.243   8.660  70.039  0.00  0.00    -0.271 OA
ATOM      6  H19 non d ame     -11.549   9.246  67.837  0.00  0.00     0.163 HD
BRANCH   4   7
ATOM      7  C9  non d ame     -10.700   6.989  69.297  0.00  0.00     0.092 C 
ATOM      8  H11 non d ame     -11.698   7.002  68.858  0.00  0.00     0.088 H 
BRANCH   7   9
ATOM      9  N3  non d ame      -9.859   6.156  68.433  0.00  0.00    -0.346 N 
ATOM     10  C7  non d ame     -10.238   5.928  67.060  0.00  0.00     0.240 C 
ATOM     11  O3  non d ame     -11.219   6.406  66.635  0.00  0.00    -0.271 OA
ATOM     12  H10 non d ame      -9.011   5.736  68.786  0.00  0.00     0.163 HD
BRANCH  10  13
ATOM     13  C6  non d ame      -9.340   5.037  66.147  0.00  0.00     0.086 C 
ATOM     14  H6  non d ame      -9.868   4.169  65.753  0.00  0.00     0.086 H 
BRANCH  13  15
ATOM     15  N2  non d ame      -8.913   5.820  64.999  0.00  0.00    -0.343 N 
ATOM     16  C5  non d ame      -8.205   7.084  65.211  0.00  0.00     0.273 C 
ATOM     17  O2  non d ame      -7.985   7.464  66.308  0.00  0.00    -0.266 OA
ATOM     18  H5  non d ame      -9.107   5.489  64.064  0.00  0.00     0.163 HD
BRANCH  16  19
ATOM     19  C4  non d ame      -7.746   7.921  64.006  0.00  0.00     0.154 A 
ATOM     20  C1  non d ame      -8.429   9.030  63.414  0.00  0.00    -0.017 A 
ATOM     21  C2  non d ame      -7.597   9.443  62.349  0.00  0.00     0.077 A 
ATOM     22  H1  non d ame      -9.382   9.468  63.710  0.00  0.00     0.091 H 
ATOM     23  O1  non d ame      -6.560   8.658  62.341  0.00  0.00    -0.218 OA
ATOM     24  N1  non d ame      -6.624   7.761  63.298  0.00  0.00    -0.123 NA
BRANCH  21  25
ATOM     25  C3  non d ame      -7.865  10.595  61.390  0.00  0.00    -0.029 C 
ATOM     26  H2  non d ame      -8.623  11.254  61.815  0.00  0.00     0.036 H 
ATOM     27  H3  non d ame      -6.944  11.156  61.230  0.00  0.00     0.036 H 
ATOM     28  H4  non d ame      -8.220  10.201  60.437  0.00  0.00     0.036 H 
ENDBRANCH  21  25
ENDBRANCH  16  19
ENDBRANCH  13  15
BRANCH  13  29
ATOM     29  C8  non d ame      -8.138   4.565  66.925  0.00  0.00    -0.049 C 
ATOM     30  H7  non d ame      -7.579   3.844  66.329  0.00  0.00     0.030 H 
ATOM     31  H8  non d ame      -7.500   5.417  67.160  0.00  0.00     0.030 H 
ATOM     32  H9  non d ame      -8.468   4.092  67.850  0.00  0.00     0.030 H 
ENDBRANCH  13  29
ENDBRANCH  10  13
ENDBRANCH   7   9
BRANCH   7  33
ATOM     33  C11 non d ame     -10.701   6.402  70.738  0.00  0.00    -0.033 C 
ATOM     34  H12 non d ame     -10.018   7.003  71.339  0.00  0.00     0.042 H 
BRANCH  33  35
ATOM     35  C12 non d ame     -12.115   6.503  71.393  0.00  0.00    -0.071 C 
ATOM     36  H13 non d ame     -12.034   7.008  72.355  0.00  0.00     0.028 H 
ATOM     37  H14 non d ame     -12.777   7.071  70.740  0.00  0.00     0.028 H 
ATOM     38  H15 non d ame     -12.519   5.502  71.540  0.00  0.00     0.028 H 
ENDBRANCH  33  35
BRANCH  33  39
ATOM     39  C13 non d ame     -10.180   4.929  70.742  0.00  0.00    -0.071 C 
ATOM     40  H16 non d ame     -10.009   4.601  69.717  0.00  0.00     0.028 H 
ATOM     41  H17 non d ame      -9.245   4.876  71.301  0.00  0.00     0.028 H 
ATOM     42  H18 non d ame     -10.921   4.283  71.212  0.00  0.00     0.028 H 
ENDBRANCH  33  39
ENDBRANCH   7  33
ENDBRANCH   4   7
ENDBRANCH   1   3
BRANCH   1  43
ATOM     43  C15 non d ame     -11.419  11.772  68.881  0.00  0.00     0.240 C 
ATOM     44  O5  non d ame     -12.506  11.335  69.079  0.00  0.00    -0.271 OA
ATOM     45  N6  non d ame     -11.170  13.234  69.033  0.00  0.00    -0.355 N 
ATOM     46  H46 non d ame     -10.249  13.617  68.872  0.00  0.00     0.162 HD
BRANCH  45  47
ATOM     47  C20 non d ame     -12.279  14.130  69.422  0.00  0.00     0.013 C 
ATOM     48  H30 non d ame     -13.187  13.771  68.938  0.00  0.00     0.072 H 
BRANCH  47  49
ATOM     49  C21 non d ame     -11.971  15.537  68.961  0.00  0.00    -0.038 C 
ATOM     50  H31 non d ame     -12.416  15.627  67.970  0.00  0.00     0.036 H 
ATOM     51  H32 non d ame     -12.302  16.190  69.769  0.00  0.00     0.036 H 
BRANCH  49  52
ATOM     52  C22 non d ame     -10.458  15.792  68.786  0.00  0.00     0.018 C 
ATOM     53  H33 non d ame     -10.212  16.599  69.475  0.00  0.00     0.048 H 
ATOM     54  H34 non d ame      -9.980  14.818  68.894  0.00  0.00     0.048 H 
BRANCH  52  55
ATOM     55  C23 non d ame     -10.069  16.303  67.371  0.00  0.00     0.259 C 
ATOM     56  O7  non d ame      -9.814  17.450  67.193  0.00  0.00    -0.265 OA
BRANCH  55  57
ATOM     57  O8  non d ame     -10.035  15.387  66.283  0.00  0.00    -0.317 OA
BRANCH  57  58
ATOM     58  C29 non d ame     -11.257  15.313  65.544  0.00  0.00     0.052 C 
ATOM     59  H47 non d ame     -12.053  15.331  66.289  0.00  0.00     0.082 H 
ATOM     60  H48 non d ame     -11.196  16.101  64.794  0.00  0.00     0.082 H 
BRANCH  58  61
ATOM     61  C35 non d ame     -11.295  13.943  64.817  0.00  0.00    -0.034 A 
ATOM     62  C30 non d ame     -12.507  13.286  64.632  0.00  0.00    -0.075 A 
ATOM     63  C31 non d ame     -12.542  12.055  63.978  0.00  0.00    -0.082 A 
ATOM     64  H49 non d ame     -13.430  13.736  64.999  0.00  0.00     0.084 H 
ATOM     65  C32 non d ame     -11.357  11.480  63.511  0.00  0.00    -0.083 A 
ATOM     66  H50 non d ame     -13.494  11.544  63.833  0.00  0.00     0.083 H 
ATOM     67  C33 non d ame     -10.149  12.138  63.700  0.00  0.00    -0.082 A 
ATOM     68  H51 non d ame     -11.375  10.518  62.998  0.00  0.00     0.083 H 
ATOM     69  C34 non d ame     -10.111  13.369  64.351  0.00  0.00    -0.075 A 
ATOM     70  H52 non d ame      -9.227  11.686  63.336  0.00  0.00     0.083 H 
ATOM     71  H53 non d ame      -9.158  13.880  64.495  0.00  0.00     0.084 H 
ENDBRANCH  58  61
ENDBRANCH  57  58
ENDBRANCH  55  57
ENDBRANCH  52  55
ENDBRANCH  49  52
ENDBRANCH  47  49
BRANCH  47  72
ATOM     72  C24 non d ame     -12.447  14.116  70.940  0.00  0.00    -0.039 C 
ATOM     73  H35 non d ame     -13.237  13.392  71.138  0.00  0.00     0.036 H 
ATOM     74  H36 non d ame     -11.446  13.953  71.341  0.00  0.00     0.036 H 
BRANCH  72  75
ATOM     75  C25 non d ame     -12.953  15.531  71.494  0.00  0.00    -0.001 C 
ATOM     76  C26 non d ame     -11.785  16.219  72.424  0.00  0.00    -0.035 C 
ATOM     77  C27 non d ame     -12.329  16.581  73.611  0.00  0.00     0.085 C 
ATOM     78  H38 non d ame     -11.041  15.473  72.702  0.00  0.00     0.036 H 
ATOM     79  H39 non d ame     -11.470  17.167  71.989  0.00  0.00     0.036 H 
ATOM     80  N5  non d ame     -13.678  15.910  73.701  0.00  0.00    -0.049 N 
ATOM     81  H40 non d ame     -11.671  16.162  74.373  0.00  0.00     0.075 H 
ATOM     82  H41 non d ame     -12.472  17.660  73.548  0.00  0.00     0.075 H 
ATOM     83  C28 non d ame     -14.020  15.399  72.209  0.00  0.00     0.193 C 
ATOM     84  H42 non d ame     -13.557  15.104  74.298  0.00  0.00     0.280 HD
ATOM     85  H43 non d ame     -14.340  16.631  73.954  0.00  0.00     0.280 HD
ATOM     86  H44 non d ame     -14.741  15.936  71.591  0.00  0.00     0.129 H 
ATOM     87  H37 non d ame     -13.390  16.149  70.709  0.00  0.00     0.046 H 
BRANCH  83  88
ATOM     88  O6  non d ame     -14.481  14.047  72.245  0.00  0.00    -0.369 OA
ATOM     89  H45 non d ame     -15.200  13.937  71.619  0.00  0.00     0.212 HD
ENDBRANCH  83  88
ENDBRANCH  72  75
ENDBRANCH  47  72
ENDBRANCH  45  47
ENDBRANCH   1  43
BRANCH   1  90
ATOM     90  C16 non d ame      -9.763  11.179  67.084  0.00  0.00    -0.035 C 
ATOM     91  H21 non d ame      -9.885  10.275  66.487  0.00  0.00     0.037 H 
ATOM     92  H22 non d ame     -10.301  12.088  66.813  0.00  0.00     0.037 H 
BRANCH  90  93
ATOM     93  C17 non d ame      -8.243  11.536  67.039  0.00  0.00    -0.059 C 
ATOM     94  H23 non d ame      -7.922  11.483  65.999  0.00  0.00     0.038 H 
BRANCH  93  95
ATOM     95  C18 non d ame      -7.962  12.985  67.551  0.00  0.00    -0.073 C 
ATOM     96  H24 non d ame      -7.628  12.946  68.587  0.00  0.00     0.028 H 
ATOM     97  H25 non d ame      -7.188  13.444  66.936  0.00  0.00     0.028 H 
ATOM     98  H26 non d ame      -8.876  13.577  67.486  0.00  0.00     0.028 H 
ENDBRANCH  93  95
BRANCH  93  99
ATOM     99  C19 non d ame      -7.418  10.512  67.822  0.00  0.00    -0.073 C 
ATOM    100  H27 non d ame      -6.391  10.868  67.916  0.00  0.00     0.028 H 
ATOM    101  H28 non d ame      -7.849  10.382  68.815  0.00  0.00     0.028 H 
ATOM    102  H29 non d ame      -7.426   9.559  67.295  0.00  0.00     0.028 H 
ENDBRANCH  93  99
ENDBRANCH  90  93
ENDBRANCH   1  90
TORSDOF 26
ENDMDL
MODEL 12
REMARK VINA RESULT:      -6.3      2.067      7.639
REMARK  26 active torsions:
REMARK  status: ('A' for Active; 'I' for Inactive)
REMARK    1  A    between atoms: C2_2  and  C3_3 
REMARK    2  A    between atoms: C4_6  and  C5_7 
REMARK       I    between atoms: C5_7  and  N2_9 
REMARK    3  A    between atoms: N2_9  and  C6_10 
REMARK    4  A    between atoms: C6_10  and  C7_11 
REMARK    5  A    between atoms: C6_10  and  C8_13 
REMARK       I    between atoms: C7_11  and  N3_14 
REMARK    6  A    between atoms: N3_14  and  C9_15 
REMARK    7  A    between atoms: C9_15  and  C10_16 
REMARK    8  A    between atoms: C9_15  and  C11_18 
REMARK       I    between atoms: C10_16  and  N4_21 
REMARK    9  A    between atoms: C11_18  and  C12_19 
REMARK   10  A    between atoms: C11_18  and  C13_20 
REMARK   11  A    between atoms: N4_21  and  C14_22 
REMARK   12  A    between atoms: C14_22  and  C15_23 
REMARK   13  A    between atoms: C14_22  and  C16_25 
REMARK       I    between atoms: C15_23  and  N6_40 
REMARK   14  A    between atoms: C16_25  and  C17_26 
REMARK   15  A    between atoms: C17_26  and  C18_27 
REMARK   16  A    between atoms: C17_26  and  C19_28 
REMARK   17  A    between atoms: C20_29  and  C21_30 
REMARK   18  A    between atoms: C20_29  and  C24_33 
REMARK   19  A    between atoms: C20_29  and  N6_40 
REMARK   20  A    between atoms: C21_30  and  C22_31 
REMARK   21  A    between atoms: C22_31  and  C23_32 
REMARK   22  A    between atoms: C23_32  and  O8_43 
REMARK   23  A    between atoms: C24_33  and  C25_34 
REMARK   24  A    between atoms: C28_38  and  O6_39 
REMARK   25  A    between atoms: C29_42  and  O8_43 
REMARK   26  A    between atoms: C29_42  and  C35_49 
ROOT
ATOM      1  C14 non d ame      -8.958  17.045  67.219  0.00  0.00     0.089 C 
ATOM      2  H20 non d ame      -9.481  17.270  68.149  0.00  0.00     0.087 H 
ENDROOT
BRANCH   1   3
ATOM      3  N4  non d ame      -7.764  16.286  67.560  0.00  0.00    -0.346 N 
ATOM      4  C10 non d ame      -7.713  15.475  68.830  0.00  0.00     0.241 C 
ATOM      5  O4  non d ame      -8.645  15.451  69.564  0.00  0.00    -0.271 OA
ATOM      6  H19 non d ame      -6.980  16.323  66.923  0.00  0.00     0.163 HD
BRANCH   4   7
ATOM      7  C9  non d ame      -6.470  14.692  69.164  0.00  0.00     0.092 C 
ATOM      8  H11 non d ame      -6.303  14.728  70.240  0.00  0.00     0.088 H 
BRANCH   7   9
ATOM      9  N3  non d ame      -6.668  13.285  68.803  0.00  0.00    -0.346 N 
ATOM     10  C7  non d ame      -6.376  12.248  69.762  0.00  0.00     0.240 C 
ATOM     11  O3  non d ame      -5.981  12.527  70.827  0.00  0.00    -0.271 OA
ATOM     12  H10 non d ame      -7.006  13.028  67.887  0.00  0.00     0.163 HD
BRANCH  10  13
ATOM     13  C6  non d ame      -6.585  10.751  69.370  0.00  0.00     0.086 C 
ATOM     14  H6  non d ame      -5.981  10.071  69.970  0.00  0.00     0.086 H 
BRANCH  13  15
ATOM     15  N2  non d ame      -7.973  10.392  69.606  0.00  0.00    -0.343 N 
ATOM     16  C5  non d ame      -8.290   9.097  70.211  0.00  0.00     0.273 C 
ATOM     17  O2  non d ame      -7.422   8.350  70.502  0.00  0.00    -0.266 OA
ATOM     18  H5  non d ame      -8.710  11.035  69.352  0.00  0.00     0.163 HD
BRANCH  16  19
ATOM     19  C4  non d ame      -9.754   8.704  70.467  0.00  0.00     0.154 A 
ATOM     20  C1  non d ame     -10.629   9.234  71.468  0.00  0.00    -0.017 A 
ATOM     21  C2  non d ame     -11.850   8.548  71.284  0.00  0.00     0.077 A 
ATOM     22  H1  non d ame     -10.411   9.998  72.214  0.00  0.00     0.091 H 
ATOM     23  O1  non d ame     -11.685   7.725  70.290  0.00  0.00    -0.218 OA
ATOM     24  N1  non d ame     -10.470   7.797  69.797  0.00  0.00    -0.123 NA
BRANCH  21  25
ATOM     25  C3  non d ame     -13.123   8.739  72.098  0.00  0.00    -0.029 C 
ATOM     26  H2  non d ame     -13.091   8.097  72.979  0.00  0.00     0.036 H 
ATOM     27  H3  non d ame     -13.202   9.780  72.409  0.00  0.00     0.036 H 
ATOM     28  H4  non d ame     -13.988   8.476  71.487  0.00  0.00     0.036 H 
ENDBRANCH  21  25
ENDBRANCH  16  19
ENDBRANCH  13  15
BRANCH  13  29
ATOM     29  C8  non d ame      -6.241  10.557  67.916  0.00  0.00    -0.049 C 
ATOM     30  H7  non d ame      -6.779  11.289  67.314  0.00  0.00     0.030 H 
ATOM     31  H8  non d ame      -5.168  10.689  67.775  0.00  0.00     0.030 H 
ATOM     32  H9  non d ame      -6.527   9.552  67.606  0.00  0.00     0.030 H 
ENDBRANCH  13  29
ENDBRANCH  10  13
ENDBRANCH   7   9
BRANCH   7  33
ATOM     33  C11 non d ame      -5.265  15.266  68.364  0.00  0.00    -0.033 C 
ATOM     34  H12 non d ame      -5.656  15.688  67.438  0.00  0.00     0.042 H 
BRANCH  33  35
ATOM     35  C12 non d ame      -4.562  16.420  69.145  0.00  0.00    -0.071 C 
ATOM     36  H13 non d ame      -4.460  16.140  70.193  0.00  0.00     0.028 H 
ATOM     37  H14 non d ame      -3.575  16.598  68.719  0.00  0.00     0.028 H 
ATOM     38  H15 non d ame      -5.160  17.327  69.067  0.00  0.00     0.028 H 
ENDBRANCH  33  35
BRANCH  33  39
ATOM     39  C13 non d ame      -4.252  14.136  67.991  0.00  0.00    -0.071 C 
ATOM     40  H16 non d ame      -3.973  14.230  66.942  0.00  0.00     0.028 H 
ATOM     41  H17 non d ame      -3.361  14.226  68.613  0.00  0.00     0.028 H 
ATOM     42  H18 non d ame      -4.715  13.164  68.159  0.00  0.00     0.028 H 
ENDBRANCH  33  39
ENDBRANCH   7  33
ENDBRANCH   4   7
ENDBRANCH   1   3
BRANCH   1  43
ATOM     43  C15 non d ame      -9.826  16.192  66.249  0.00  0.00     0.240 C 
ATOM     44  O5  non d ame     -10.135  16.634  65.190  0.00  0.00    -0.271 OA
ATOM     45  N6  non d ame     -10.265  14.822  66.638  0.00  0.00    -0.355 N 
ATOM     46  H46 non d ame     -10.005  14.434  67.533  0.00  0.00     0.162 HD
BRANCH  45  47
ATOM     47  C20 non d ame     -11.088  14.024  65.704  0.00  0.00     0.013 C 
ATOM     48  H30 non d ame     -11.646  14.716  65.074  0.00  0.00     0.072 H 
BRANCH  47  49
ATOM     49  C21 non d ame     -12.045  13.160  66.495  0.00  0.00    -0.038 C 
ATOM     50  H31 non d ame     -13.044  13.489  66.210  0.00  0.00     0.036 H 
ATOM     51  H32 non d ame     -11.735  12.131  66.308  0.00  0.00     0.036 H 
BRANCH  49  52
ATOM     52  C22 non d ame     -11.930  13.379  68.019  0.00  0.00     0.018 C 
ATOM     53  H33 non d ame     -10.966  13.864  68.177  0.00  0.00     0.048 H 
ATOM     54  H34 non d ame     -12.850  13.885  68.314  0.00  0.00     0.048 H 
BRANCH  52  55
ATOM     55  C23 non d ame     -11.885  12.060  68.840  0.00  0.00     0.259 C 
ATOM     56  O7  non d ame     -11.985  11.008  68.297  0.00  0.00    -0.265 OA
BRANCH  55  57
ATOM     57  O8  non d ame     -11.735  12.124  70.253  0.00  0.00    -0.317 OA
BRANCH  57  58
ATOM     58  C29 non d ame     -12.920  12.525  70.947  0.00  0.00     0.052 C 
ATOM     59  H47 non d ame     -13.667  12.707  70.174  0.00  0.00     0.082 H 
ATOM     60  H48 non d ame     -13.094  11.759  71.702  0.00  0.00     0.082 H 
BRANCH  58  61
ATOM     61  C35 non d ame     -12.622  13.866  71.669  0.00  0.00    -0.034 A 
ATOM     62  C30 non d ame     -13.107  14.089  72.954  0.00  0.00    -0.075 A 
ATOM     63  C31 non d ame     -12.839  15.293  73.602  0.00  0.00    -0.082 A 
ATOM     64  H49 non d ame     -13.695  13.319  73.453  0.00  0.00     0.084 H 
ATOM     65  C32 non d ame     -12.087  16.280  72.959  0.00  0.00    -0.083 A 
ATOM     66  H50 non d ame     -13.218  15.464  74.610  0.00  0.00     0.083 H 
ATOM     67  C33 non d ame     -11.608  16.055  71.675  0.00  0.00    -0.082 A 
ATOM     68  H51 non d ame     -11.872  17.224  73.459  0.00  0.00     0.083 H 
ATOM     69  C34 non d ame     -11.871  14.851  71.024  0.00  0.00    -0.075 A 
ATOM     70  H52 non d ame     -11.023  16.827  71.175  0.00  0.00     0.083 H 
ATOM     71  H53 non d ame     -11.491  14.682  70.017  0.00  0.00     0.084 H 
ENDBRANCH  58  61
ENDBRANCH  57  58
ENDBRANCH  55  57
ENDBRANCH  52  55
ENDBRANCH  49  52
ENDBRANCH  47  49
BRANCH  47  72
ATOM     72  C24 non d ame     -10.186  13.136  64.850  0.00  0.00    -0.039 C 
ATOM     73  H35 non d ame     -10.420  13.394  63.816  0.00  0.00     0.036 H 
ATOM     74  H36 non d ame      -9.178  13.290  65.235  0.00  0.00     0.036 H 
BRANCH  72  75
ATOM     75  C25 non d ame     -10.532  11.583  65.038  0.00  0.00    -0.001 C 
ATOM     76  C26 non d ame      -9.243  10.798  65.691  0.00  0.00    -0.035 C 
ATOM     77  C27 non d ame      -8.963   9.712  64.931  0.00  0.00     0.085 C 
ATOM     78  H38 non d ame      -8.347  11.411  65.600  0.00  0.00     0.036 H 
ATOM     79  H39 non d ame      -9.516  10.370  66.656  0.00  0.00     0.036 H 
ATOM     80  N5  non d ame      -9.732   9.866  63.641  0.00  0.00    -0.049 N 
ATOM     81  H40 non d ame      -7.895   9.773  64.718  0.00  0.00     0.075 H 
ATOM     82  H41 non d ame      -9.361   8.861  65.482  0.00  0.00     0.075 H 
ATOM     83  C28 non d ame     -10.821  11.028  63.909  0.00  0.00     0.193 C 
ATOM     84  H42 non d ame      -9.072  10.197  62.952  0.00  0.00     0.280 HD
ATOM     85  H43 non d ame     -10.222   8.995  63.494  0.00  0.00     0.280 HD
ATOM     86  H44 non d ame     -11.869  10.777  64.073  0.00  0.00     0.129 H 
ATOM     87  H37 non d ame     -11.500  11.431  65.516  0.00  0.00     0.046 H 
BRANCH  83  88
ATOM     88  O6  non d ame     -10.816  11.965  62.831  0.00  0.00    -0.369 OA
ATOM     89  H45 non d ame     -10.420  12.789  63.124  0.00  0.00     0.212 HD
ENDBRANCH  83  88
ENDBRANCH  72  75
ENDBRANCH  47  72
ENDBRANCH  45  47
ENDBRANCH   1  43
BRANCH   1  90
ATOM     90  C16 non d ame      -8.546  18.338  66.534  0.00  0.00    -0.035 C 
ATOM     91  H21 non d ame      -7.489  18.465  66.769  0.00  0.00     0.037 H 
ATOM     92  H22 non d ame      -8.864  18.229  65.497  0.00  0.00     0.037 H 
BRANCH  90  93
ATOM     93  C17 non d ame      -9.277  19.602  67.090  0.00  0.00    -0.059 C 
ATOM     94  H23 non d ame      -8.560  20.422  67.095  0.00  0.00     0.038 H 
BRANCH  93  95
ATOM     95  C18 non d ame     -10.482  20.028  66.191  0.00  0.00    -0.073 C 
ATOM     96  H24 non d ame     -11.043  20.819  66.688  0.00  0.00     0.028 H 
ATOM     97  H25 non d ame     -10.110  20.392  65.234  0.00  0.00     0.028 H 
ATOM     98  H26 non d ame     -11.133  19.169  66.026  0.00  0.00     0.028 H 
ENDBRANCH  93  95
BRANCH  93  99
ATOM     99  C19 non d ame      -9.727  19.381  68.536  0.00  0.00    -0.073 C 
ATOM    100  H27 non d ame     -10.659  18.815  68.545  0.00  0.00     0.028 H 
ATOM    101  H28 non d ame      -8.959  18.825  69.074  0.00  0.00     0.028 H 
ATOM    102  H29 non d ame      -9.882  20.345  69.019  0.00  0.00     0.028 H 
ENDBRANCH  93  99
ENDBRANCH  90  93
ENDBRANCH   1  90
TORSDOF 26
ENDMDL
MODEL 13
REMARK VINA RESULT:      -6.3      3.430      9.194
REMARK  26 active torsions:
REMARK  status: ('A' for Active; 'I' for Inactive)
REMARK    1  A    between atoms: C2_2  and  C3_3 
REMARK    2  A    between atoms: C4_6  and  C5_7 
REMARK       I    between atoms: C5_7  and  N2_9 
REMARK    3  A    between atoms: N2_9  and  C6_10 
REMARK    4  A    between atoms: C6_10  and  C7_11 
REMARK    5  A    between atoms: C6_10  and  C8_13 
REMARK       I    between atoms: C7_11  and  N3_14 
REMARK    6  A    between atoms: N3_14  and  C9_15 
REMARK    7  A    between atoms: C9_15  and  C10_16 
REMARK    8  A    between atoms: C9_15  and  C11_18 
REMARK       I    between atoms: C10_16  and  N4_21 
REMARK    9  A    between atoms: C11_18  and  C12_19 
REMARK   10  A    between atoms: C11_18  and  C13_20 
REMARK   11  A    between atoms: N4_21  and  C14_22 
REMARK   12  A    between atoms: C14_22  and  C15_23 
REMARK   13  A    between atoms: C14_22  and  C16_25 
REMARK       I    between atoms: C15_23  and  N6_40 
REMARK   14  A    between atoms: C16_25  and  C17_26 
REMARK   15  A    between atoms: C17_26  and  C18_27 
REMARK   16  A    between atoms: C17_26  and  C19_28 
REMARK   17  A    between atoms: C20_29  and  C21_30 
REMARK   18  A    between atoms: C20_29  and  C24_33 
REMARK   19  A    between atoms: C20_29  and  N6_40 
REMARK   20  A    between atoms: C21_30  and  C22_31 
REMARK   21  A    between atoms: C22_31  and  C23_32 
REMARK   22  A    between atoms: C23_32  and  O8_43 
REMARK   23  A    between atoms: C24_33  and  C25_34 
REMARK   24  A    between atoms: C28_38  and  O6_39 
REMARK   25  A    between atoms: C29_42  and  O8_43 
REMARK   26  A    between atoms: C29_42  and  C35_49 
ROOT
ATOM      1  C14 non d ame      -8.234   8.247  62.850  0.00  0.00     0.089 C 
ATOM      2  H20 non d ame      -8.756   8.322  61.895  0.00  0.00     0.087 H 
ENDROOT
BRANCH   1   3
ATOM      3  N4  non d ame      -8.980   9.034  63.820  0.00  0.00    -0.346 N 
ATOM      4  C10 non d ame      -9.524  10.389  63.444  0.00  0.00     0.241 C 
ATOM      5  O4  non d ame      -9.347  10.826  62.355  0.00  0.00    -0.271 OA
ATOM      6  H19 non d ame      -9.117   8.645  64.742  0.00  0.00     0.163 HD
BRANCH   4   7
ATOM      7  C9  non d ame     -10.299  11.188  64.459  0.00  0.00     0.092 C 
ATOM      8  H11 non d ame     -10.956  10.520  65.016  0.00  0.00     0.088 H 
BRANCH   7   9
ATOM      9  N3  non d ame      -9.370  11.785  65.424  0.00  0.00    -0.346 N 
ATOM     10  C7  non d ame      -9.429  11.401  66.813  0.00  0.00     0.240 C 
ATOM     11  O3  non d ame     -10.218  10.614  67.172  0.00  0.00    -0.271 OA
ATOM     12  H10 non d ame      -8.685  12.466  65.130  0.00  0.00     0.163 HD
BRANCH  10  13
ATOM     13  C6  non d ame      -8.440  12.042  67.836  0.00  0.00     0.086 C 
ATOM     14  H6  non d ame      -7.484  12.311  67.386  0.00  0.00     0.086 H 
BRANCH  13  15
ATOM     15  N2  non d ame      -9.021  13.272  68.346  0.00  0.00    -0.343 N 
ATOM     16  C5  non d ame      -8.851  14.517  67.593  0.00  0.00     0.273 C 
ATOM     17  O2  non d ame      -8.243  14.518  66.579  0.00  0.00    -0.266 OA
ATOM     18  H5  non d ame      -9.537  13.263  69.214  0.00  0.00     0.163 HD
BRANCH  16  19
ATOM     19  C4  non d ame      -9.462  15.825  68.119  0.00  0.00     0.154 A 
ATOM     20  C1  non d ame      -8.903  17.139  68.025  0.00  0.00    -0.017 A 
ATOM     21  C2  non d ame      -9.846  17.981  68.656  0.00  0.00     0.077 A 
ATOM     22  H1  non d ame      -7.959  17.436  67.569  0.00  0.00     0.091 H 
ATOM     23  O1  non d ame     -10.828  17.228  69.060  0.00  0.00    -0.218 OA
ATOM     24  N1  non d ame     -10.626  15.966  68.759  0.00  0.00    -0.123 NA
BRANCH  21  25
ATOM     25  C3  non d ame      -9.734  19.490  68.830  0.00  0.00    -0.029 C 
ATOM     26  H2  non d ame     -10.301  19.798  69.709  0.00  0.00     0.036 H 
ATOM     27  H3  non d ame      -8.687  19.763  68.958  0.00  0.00     0.036 H 
ATOM     28  H4  non d ame     -10.134  19.988  67.946  0.00  0.00     0.036 H 
ENDBRANCH  21  25
ENDBRANCH  16  19
ENDBRANCH  13  15
BRANCH  13  29
ATOM     29  C8  non d ame      -8.191  11.079  68.969  0.00  0.00    -0.049 C 
ATOM     30  H7  non d ame      -8.416  11.568  69.917  0.00  0.00     0.030 H 
ATOM     31  H8  non d ame      -8.831  10.205  68.850  0.00  0.00     0.030 H 
ATOM     32  H9  non d ame      -7.146  10.770  68.960  0.00  0.00     0.030 H 
ENDBRANCH  13  29
ENDBRANCH  10  13
ENDBRANCH   7   9
BRANCH   7  33
ATOM     33  C11 non d ame     -11.089  12.318  63.737  0.00  0.00    -0.033 C 
ATOM     34  H12 non d ame     -10.622  12.475  62.764  0.00  0.00     0.042 H 
BRANCH  33  35
ATOM     35  C12 non d ame     -12.572  11.904  63.485  0.00  0.00    -0.071 C 
ATOM     36  H13 non d ame     -12.643  10.817  63.444  0.00  0.00     0.028 H 
ATOM     37  H14 non d ame     -13.196  12.278  64.295  0.00  0.00     0.028 H 
ATOM     38  H15 non d ame     -12.911  12.326  62.539  0.00  0.00     0.028 H 
ENDBRANCH  33  35
BRANCH  33  39
ATOM     39  C13 non d ame     -11.003  13.659  64.535  0.00  0.00    -0.071 C 
ATOM     40  H16 non d ame      -9.975  14.021  64.529  0.00  0.00     0.028 H 
ATOM     41  H17 non d ame     -11.652  14.401  64.069  0.00  0.00     0.028 H 
ATOM     42  H18 non d ame     -11.323  13.490  65.563  0.00  0.00     0.028 H 
ENDBRANCH  33  39
ENDBRANCH   7  33
ENDBRANCH   4   7
ENDBRANCH   1   3
BRANCH   1  43
ATOM     43  C15 non d ame      -8.151   6.780  63.360  0.00  0.00     0.240 C 
ATOM     44  O5  non d ame      -7.708   5.932  62.655  0.00  0.00    -0.271 OA
ATOM     45  N6  non d ame      -8.618   6.433  64.733  0.00  0.00    -0.355 N 
ATOM     46  H46 non d ame      -8.992   7.145  65.343  0.00  0.00     0.162 HD
BRANCH  45  47
ATOM     47  C20 non d ame      -8.532   5.034  65.204  0.00  0.00     0.013 C 
ATOM     48  H30 non d ame      -8.301   4.404  64.345  0.00  0.00     0.072 H 
BRANCH  47  49
ATOM     49  C21 non d ame      -9.859   4.625  65.803  0.00  0.00    -0.038 C 
ATOM     50  H31 non d ame     -10.606   5.257  65.322  0.00  0.00     0.036 H 
ATOM     51  H32 non d ame      -9.909   3.542  65.695  0.00  0.00     0.036 H 
BRANCH  49  52
ATOM     52  C22 non d ame      -9.949   4.918  67.317  0.00  0.00     0.018 C 
ATOM     53  H33 non d ame     -10.463   4.061  67.753  0.00  0.00     0.048 H 
ATOM     54  H34 non d ame      -8.934   5.161  67.631  0.00  0.00     0.048 H 
BRANCH  52  55
ATOM     55  C23 non d ame     -10.815   6.160  67.664  0.00  0.00     0.259 C 
ATOM     56  O7  non d ame     -10.810   7.115  66.957  0.00  0.00    -0.265 OA
BRANCH  55  57
ATOM     57  O8  non d ame     -11.605   6.150  68.846  0.00  0.00    -0.317 OA
BRANCH  57  58
ATOM     58  C29 non d ame     -10.891   6.525  70.028  0.00  0.00     0.052 C 
ATOM     59  H47 non d ame     -11.044   5.710  70.736  0.00  0.00     0.082 H 
ATOM     60  H48 non d ame      -9.884   6.777  69.697  0.00  0.00     0.082 H 
BRANCH  58  61
ATOM     61  C35 non d ame     -11.554   7.805  70.603  0.00  0.00    -0.034 A 
ATOM     62  C30 non d ame     -12.590   7.699  71.526  0.00  0.00    -0.075 A 
ATOM     63  C31 non d ame     -13.185   8.849  72.042  0.00  0.00    -0.082 A 
ATOM     64  H49 non d ame     -12.934   6.715  71.846  0.00  0.00     0.084 H 
ATOM     65  C32 non d ame     -12.744  10.109  71.629  0.00  0.00    -0.083 A 
ATOM     66  H50 non d ame     -13.995   8.762  72.767  0.00  0.00     0.083 H 
ATOM     67  C33 non d ame     -11.713  10.209  70.705  0.00  0.00    -0.082 A 
ATOM     68  H51 non d ame     -13.204  11.013  72.028  0.00  0.00     0.083 H 
ATOM     69  C34 non d ame     -11.113   9.063  70.188  0.00  0.00    -0.075 A 
ATOM     70  H52 non d ame     -11.372  11.194  70.383  0.00  0.00     0.083 H 
ATOM     71  H53 non d ame     -10.303   9.150  69.464  0.00  0.00     0.084 H 
ENDBRANCH  58  61
ENDBRANCH  57  58
ENDBRANCH  55  57
ENDBRANCH  52  55
ENDBRANCH  49  52
ENDBRANCH  47  49
BRANCH  47  72
ATOM     72  C24 non d ame      -7.436   4.911  66.261  0.00  0.00    -0.039 C 
ATOM     73  H35 non d ame      -7.877   5.296  67.182  0.00  0.00     0.036 H 
ATOM     74  H36 non d ame      -7.098   3.876  66.211  0.00  0.00     0.036 H 
BRANCH  72  75
ATOM     75  C25 non d ame      -6.175   5.838  65.918  0.00  0.00    -0.001 C 
ATOM     76  C26 non d ame      -4.996   4.938  65.208  0.00  0.00    -0.035 C 
ATOM     77  C27 non d ame      -3.830   5.153  65.862  0.00  0.00     0.085 C 
ATOM     78  H38 non d ame      -5.187   3.877  65.369  0.00  0.00     0.036 H 
ATOM     79  H39 non d ame      -4.797   5.309  64.202  0.00  0.00     0.036 H 
ATOM     80  N5  non d ame      -4.170   5.860  67.151  0.00  0.00    -0.049 N 
ATOM     81  H40 non d ame      -3.438   4.161  66.093  0.00  0.00     0.075 H 
ATOM     82  H41 non d ame      -3.259   5.828  65.225  0.00  0.00     0.075 H 
ATOM     83  C28 non d ame      -5.689   6.380  66.984  0.00  0.00     0.193 C 
ATOM     84  H42 non d ame      -4.148   5.159  67.877  0.00  0.00     0.280 HD
ATOM     85  H43 non d ame      -3.560   6.664  67.206  0.00  0.00     0.280 HD
ATOM     86  H44 non d ame      -5.896   7.432  66.783  0.00  0.00     0.129 H 
ATOM     87  H37 non d ame      -6.465   6.760  65.415  0.00  0.00     0.046 H 
BRANCH  83  88
ATOM     88  O6  non d ame      -6.451   6.057  68.148  0.00  0.00    -0.369 OA
ATOM     89  H45 non d ame      -6.869   6.852  68.488  0.00  0.00     0.212 HD
ENDBRANCH  83  88
ENDBRANCH  72  75
ENDBRANCH  47  72
ENDBRANCH  45  47
ENDBRANCH   1  43
BRANCH   1  90
ATOM     90  C16 non d ame      -6.832   8.821  62.717  0.00  0.00    -0.035 C 
ATOM     91  H21 non d ame      -6.330   8.190  61.983  0.00  0.00     0.037 H 
ATOM     92  H22 non d ame      -6.974   9.883  62.515  0.00  0.00     0.037 H 
BRANCH  90  93
ATOM     93  C17 non d ame      -5.990   8.729  64.029  0.00  0.00    -0.059 C 
ATOM     94  H23 non d ame      -6.448   7.970  64.663  0.00  0.00     0.038 H 
BRANCH  93  95
ATOM     95  C18 non d ame      -4.515   8.294  63.753  0.00  0.00    -0.073 C 
ATOM     96  H24 non d ame      -3.834   8.986  64.249  0.00  0.00     0.028 H 
ATOM     97  H25 non d ame      -4.355   7.287  64.139  0.00  0.00     0.028 H 
ATOM     98  H26 non d ame      -4.328   8.306  62.679  0.00  0.00     0.028 H 
ENDBRANCH  93  95
BRANCH  93  99
ATOM     99  C19 non d ame      -6.033  10.051  64.800  0.00  0.00    -0.073 C 
ATOM    100  H27 non d ame      -7.055  10.430  64.815  0.00  0.00     0.028 H 
ATOM    101  H28 non d ame      -5.691   9.886  65.822  0.00  0.00     0.028 H 
ATOM    102  H29 non d ame      -5.383  10.777  64.312  0.00  0.00     0.028 H 
ENDBRANCH  93  99
ENDBRANCH  90  93
ENDBRANCH   1  90
TORSDOF 26
ENDMDL
MODEL 14
REMARK VINA RESULT:      -6.3      1.912      5.299
REMARK  26 active torsions:
REMARK  status: ('A' for Active; 'I' for Inactive)
REMARK    1  A    between atoms: C2_2  and  C3_3 
REMARK    2  A    between atoms: C4_6  and  C5_7 
REMARK       I    between atoms: C5_7  and  N2_9 
REMARK    3  A    between atoms: N2_9  and  C6_10 
REMARK    4  A    between atoms: C6_10  and  C7_11 
REMARK    5  A    between atoms: C6_10  and  C8_13 
REMARK       I    between atoms: C7_11  and  N3_14 
REMARK    6  A    between atoms: N3_14  and  C9_15 
REMARK    7  A    between atoms: C9_15  and  C10_16 
REMARK    8  A    between atoms: C9_15  and  C11_18 
REMARK       I    between atoms: C10_16  and  N4_21 
REMARK    9  A    between atoms: C11_18  and  C12_19 
REMARK   10  A    between atoms: C11_18  and  C13_20 
REMARK   11  A    between atoms: N4_21  and  C14_22 
REMARK   12  A    between atoms: C14_22  and  C15_23 
REMARK   13  A    between atoms: C14_22  and  C16_25 
REMARK       I    between atoms: C15_23  and  N6_40 
REMARK   14  A    between atoms: C16_25  and  C17_26 
REMARK   15  A    between atoms: C17_26  and  C18_27 
REMARK   16  A    between atoms: C17_26  and  C19_28 
REMARK   17  A    between atoms: C20_29  and  C21_30 
REMARK   18  A    between atoms: C20_29  and  C24_33 
REMARK   19  A    between atoms: C20_29  and  N6_40 
REMARK   20  A    between atoms: C21_30  and  C22_31 
REMARK   21  A    between atoms: C22_31  and  C23_32 
REMARK   22  A    between atoms: C23_32  and  O8_43 
REMARK   23  A    between atoms: C24_33  and  C25_34 
REMARK   24  A    between atoms: C28_38  and  O6_39 
REMARK   25  A    between atoms: C29_42  and  O8_43 
REMARK   26  A    between atoms: C29_42  and  C35_49 
ROOT
ATOM      1  C14 non d ame     -10.162  10.120  69.483  0.00  0.00     0.089 C 
ATOM      2  H20 non d ame     -10.100   9.182  68.930  0.00  0.00     0.087 H 
ENDROOT
BRANCH   1   3
ATOM      3  N4  non d ame      -8.850  10.748  69.429  0.00  0.00    -0.346 N 
ATOM      4  C10 non d ame      -7.611   9.909  69.240  0.00  0.00     0.241 C 
ATOM      5  O4  non d ame      -7.695   8.729  69.136  0.00  0.00    -0.271 OA
ATOM      6  H19 non d ame      -8.799  11.753  69.522  0.00  0.00     0.163 HD
BRANCH   4   7
ATOM      7  C9  non d ame      -6.262  10.575  69.181  0.00  0.00     0.092 C 
ATOM      8  H11 non d ame      -6.044  10.854  68.150  0.00  0.00     0.088 H 
BRANCH   7   9
ATOM      9  N3  non d ame      -6.293  11.813  69.966  0.00  0.00    -0.346 N 
ATOM     10  C7  non d ame      -5.649  13.001  69.464  0.00  0.00     0.240 C 
ATOM     11  O3  non d ame      -5.100  12.980  68.430  0.00  0.00    -0.271 OA
ATOM     12  H10 non d ame      -6.761  11.846  70.861  0.00  0.00     0.163 HD
BRANCH  10  13
ATOM     13  C6  non d ame      -5.683  14.315  70.306  0.00  0.00     0.086 C 
ATOM     14  H6  non d ame      -4.838  14.971  70.097  0.00  0.00     0.086 H 
BRANCH  13  15
ATOM     15  N2  non d ame      -6.883  15.061  69.968  0.00  0.00    -0.343 N 
ATOM     16  C5  non d ame      -6.774  16.271  69.150  0.00  0.00     0.273 C 
ATOM     17  O2  non d ame      -5.716  16.637  68.772  0.00  0.00    -0.266 OA
ATOM     18  H5  non d ame      -7.783  14.742  70.298  0.00  0.00     0.163 HD
BRANCH  16  19
ATOM     19  C4  non d ame      -8.036  17.069  68.784  0.00  0.00     0.154 A 
ATOM     20  C1  non d ame      -8.114  18.459  68.455  0.00  0.00    -0.017 A 
ATOM     21  C2  non d ame      -9.483  18.696  68.201  0.00  0.00     0.077 A 
ATOM     22  H1  non d ame      -7.302  19.185  68.409  0.00  0.00     0.091 H 
ATOM     23  O1  non d ame     -10.109  17.567  68.365  0.00  0.00    -0.218 OA
ATOM     24  N1  non d ame      -9.285  16.603  68.706  0.00  0.00    -0.123 NA
BRANCH  21  25
ATOM     25  C3  non d ame     -10.110  20.026  67.806  0.00  0.00    -0.029 C 
ATOM     26  H2  non d ame      -9.483  20.844  68.162  0.00  0.00     0.036 H 
ATOM     27  H3  non d ame     -10.195  20.080  66.720  0.00  0.00     0.036 H 
ATOM     28  H4  non d ame     -11.102  20.108  68.251  0.00  0.00     0.036 H 
ENDBRANCH  21  25
ENDBRANCH  16  19
ENDBRANCH  13  15
BRANCH  13  29
ATOM     29  C8  non d ame      -5.683  13.973  71.774  0.00  0.00    -0.049 C 
ATOM     30  H7  non d ame      -6.636  14.264  72.215  0.00  0.00     0.030 H 
ATOM     31  H8  non d ame      -5.538  12.900  71.898  0.00  0.00     0.030 H 
ATOM     32  H9  non d ame      -4.875  14.509  72.272  0.00  0.00     0.030 H 
ENDBRANCH  13  29
ENDBRANCH  10  13
ENDBRANCH   7   9
BRANCH   7  33
ATOM     33  C11 non d ame      -5.184   9.618  69.769  0.00  0.00    -0.033 C 
ATOM     34  H12 non d ame      -5.548   8.598  69.645  0.00  0.00     0.042 H 
BRANCH  33  35
ATOM     35  C12 non d ame      -3.837   9.732  68.990  0.00  0.00    -0.071 C 
ATOM     36  H13 non d ame      -3.900  10.550  68.272  0.00  0.00     0.028 H 
ATOM     37  H14 non d ame      -3.027   9.929  69.693  0.00  0.00     0.028 H 
ATOM     38  H15 non d ame      -3.642   8.799  68.462  0.00  0.00     0.028 H 
ENDBRANCH  33  35
BRANCH  33  39
ATOM     39  C13 non d ame      -4.980   9.876  71.296  0.00  0.00    -0.071 C 
ATOM     40  H16 non d ame      -5.455   9.079  71.866  0.00  0.00     0.028 H 
ATOM     41  H17 non d ame      -3.913   9.898  71.521  0.00  0.00     0.028 H 
ATOM     42  H18 non d ame      -5.427  10.833  71.565  0.00  0.00     0.028 H 
ENDBRANCH  33  39
ENDBRANCH   7  33
ENDBRANCH   4   7
ENDBRANCH   1   3
BRANCH   1  43
ATOM     43  C15 non d ame     -11.204  11.097  68.867  0.00  0.00     0.240 C 
ATOM     44  O5  non d ame     -12.190  10.668  68.362  0.00  0.00    -0.271 OA
ATOM     45  N6  non d ame     -10.976  12.570  68.916  0.00  0.00    -0.355 N 
ATOM     46  H46 non d ame     -10.145  12.947  69.347  0.00  0.00     0.162 HD
BRANCH  45  47
ATOM     47  C20 non d ame     -11.977  13.486  68.327  0.00  0.00     0.013 C 
ATOM     48  H30 non d ame     -12.922  12.948  68.254  0.00  0.00     0.072 H 
BRANCH  47  49
ATOM     49  C21 non d ame     -11.517  13.911  66.951  0.00  0.00    -0.038 C 
ATOM     50  H31 non d ame     -11.618  14.996  66.929  0.00  0.00     0.036 H 
ATOM     51  H32 non d ame     -10.538  13.452  66.813  0.00  0.00     0.036 H 
BRANCH  49  52
ATOM     52  C22 non d ame     -12.419  13.365  65.823  0.00  0.00     0.018 C 
ATOM     53  H33 non d ame     -12.754  12.384  66.161  0.00  0.00     0.048 H 
ATOM     54  H34 non d ame     -13.148  14.150  65.621  0.00  0.00     0.048 H 
BRANCH  52  55
ATOM     55  C23 non d ame     -11.668  13.123  64.483  0.00  0.00     0.259 C 
ATOM     56  O7  non d ame     -12.189  13.378  63.446  0.00  0.00    -0.265 OA
BRANCH  55  57
ATOM     57  O8  non d ame     -10.354  12.581  64.509  0.00  0.00    -0.317 OA
BRANCH  57  58
ATOM     58  C29 non d ame     -10.117  11.582  63.513  0.00  0.00     0.052 C 
ATOM     59  H47 non d ame     -11.089  11.375  63.066  0.00  0.00     0.082 H 
ATOM     60  H48 non d ame      -9.304  11.967  62.897  0.00  0.00     0.082 H 
BRANCH  58  61
ATOM     61  C35 non d ame      -9.622  10.298  64.230  0.00  0.00    -0.034 A 
ATOM     62  C30 non d ame      -8.705   9.460  63.605  0.00  0.00    -0.075 A 
ATOM     63  C31 non d ame      -8.261   8.306  64.249  0.00  0.00    -0.082 A 
ATOM     64  H49 non d ame      -8.333   9.707  62.611  0.00  0.00     0.084 H 
ATOM     65  C32 non d ame      -8.741   7.989  65.523  0.00  0.00    -0.083 A 
ATOM     66  H50 non d ame      -7.540   7.653  63.758  0.00  0.00     0.083 H 
ATOM     67  C33 non d ame      -9.659   8.827  66.142  0.00  0.00    -0.082 A 
ATOM     68  H51 non d ame      -8.398   7.090  66.034  0.00  0.00     0.083 H 
ATOM     69  C34 non d ame     -10.104   9.982  65.503  0.00  0.00    -0.075 A 
ATOM     70  H52 non d ame     -10.033   8.576  67.135  0.00  0.00     0.083 H 
ATOM     71  H53 non d ame     -10.824  10.635  65.995  0.00  0.00     0.084 H 
ENDBRANCH  58  61
ENDBRANCH  57  58
ENDBRANCH  55  57
ENDBRANCH  52  55
ENDBRANCH  49  52
ENDBRANCH  47  49
BRANCH  47  72
ATOM     72  C24 non d ame     -12.135  14.718  69.216  0.00  0.00    -0.039 C 
ATOM     73  H35 non d ame     -11.364  15.415  68.885  0.00  0.00     0.036 H 
ATOM     74  H36 non d ame     -13.187  14.995  69.143  0.00  0.00     0.036 H 
BRANCH  72  75
ATOM     75  C25 non d ame     -11.841  14.382  70.754  0.00  0.00    -0.001 C 
ATOM     76  C26 non d ame     -13.142  13.630  71.422  0.00  0.00    -0.035 C 
ATOM     77  C27 non d ame     -13.477  14.273  72.566  0.00  0.00     0.085 C 
ATOM     78  H38 non d ame     -14.018  13.765  70.788  0.00  0.00     0.036 H 
ATOM     79  H39 non d ame     -12.864  12.632  71.762  0.00  0.00     0.036 H 
ATOM     80  N5  non d ame     -12.732  15.585  72.570  0.00  0.00    -0.049 N 
ATOM     81  H40 non d ame     -14.547  14.471  72.486  0.00  0.00     0.075 H 
ATOM     82  H41 non d ame     -13.098  13.647  73.373  0.00  0.00     0.075 H 
ATOM     83  C28 non d ame     -11.597  15.455  71.429  0.00  0.00     0.193 C 
ATOM     84  H42 non d ame     -13.395  16.292  72.285  0.00  0.00     0.280 HD
ATOM     85  H43 non d ame     -12.277  15.653  73.469  0.00  0.00     0.280 HD
ATOM     86  H44 non d ame     -10.555  15.286  71.701  0.00  0.00     0.129 H 
ATOM     87  H37 non d ame     -10.869  13.908  70.894  0.00  0.00     0.046 H 
BRANCH  83  88
ATOM     88  O6  non d ame     -11.592  16.621  70.604  0.00  0.00    -0.369 OA
ATOM     89  H45 non d ame     -12.435  17.072  70.682  0.00  0.00     0.212 HD
ENDBRANCH  83  88
ENDBRANCH  72  75
ENDBRANCH  47  72
ENDBRANCH  45  47
ENDBRANCH   1  43
BRANCH   1  90
ATOM     90  C16 non d ame     -10.518   9.840  70.934  0.00  0.00    -0.035 C 
ATOM     91  H21 non d ame      -9.569   9.837  71.470  0.00  0.00     0.037 H 
ATOM     92  H22 non d ame     -11.285  10.572  71.189  0.00  0.00     0.037 H 
BRANCH  90  93
ATOM     93  C17 non d ame     -11.158   8.434  71.162  0.00  0.00    -0.059 C 
ATOM     94  H23 non d ame     -10.674   7.987  72.030  0.00  0.00     0.038 H 
BRANCH  93  95
ATOM     95  C18 non d ame     -12.689   8.525  71.463  0.00  0.00    -0.073 C 
ATOM     96  H24 non d ame     -13.251   8.209  70.585  0.00  0.00     0.028 H 
ATOM     97  H25 non d ame     -12.932   7.875  72.304  0.00  0.00     0.028 H 
ATOM     98  H26 non d ame     -12.949   9.554  71.712  0.00  0.00     0.028 H 
ENDBRANCH  93  95
BRANCH  93  99
ATOM     99  C19 non d ame     -10.892   7.513  69.969  0.00  0.00    -0.073 C 
ATOM    100  H27 non d ame     -10.044   7.892  69.398  0.00  0.00     0.028 H 
ATOM    101  H28 non d ame     -10.669   6.508  70.328  0.00  0.00     0.028 H 
ATOM    102  H29 non d ame     -11.775   7.481  69.330  0.00  0.00     0.028 H 
ENDBRANCH  93  99
ENDBRANCH  90  93
ENDBRANCH   1  90
TORSDOF 26
ENDMDL
MODEL 15
REMARK VINA RESULT:      -6.3      3.174      7.228
REMARK  26 active torsions:
REMARK  status: ('A' for Active; 'I' for Inactive)
REMARK    1  A    between atoms: C2_2  and  C3_3 
REMARK    2  A    between atoms: C4_6  and  C5_7 
REMARK       I    between atoms: C5_7  and  N2_9 
REMARK    3  A    between atoms: N2_9  and  C6_10 
REMARK    4  A    between atoms: C6_10  and  C7_11 
REMARK    5  A    between atoms: C6_10  and  C8_13 
REMARK       I    between atoms: C7_11  and  N3_14 
REMARK    6  A    between atoms: N3_14  and  C9_15 
REMARK    7  A    between atoms: C9_15  and  C10_16 
REMARK    8  A    between atoms: C9_15  and  C11_18 
REMARK       I    between atoms: C10_16  and  N4_21 
REMARK    9  A    between atoms: C11_18  and  C12_19 
REMARK   10  A    between atoms: C11_18  and  C13_20 
REMARK   11  A    between atoms: N4_21  and  C14_22 
REMARK   12  A    between atoms: C14_22  and  C15_23 
REMARK   13  A    between atoms: C14_22  and  C16_25 
REMARK       I    between atoms: C15_23  and  N6_40 
REMARK   14  A    between atoms: C16_25  and  C17_26 
REMARK   15  A    between atoms: C17_26  and  C18_27 
REMARK   16  A    between atoms: C17_26  and  C19_28 
REMARK   17  A    between atoms: C20_29  and  C21_30 
REMARK   18  A    between atoms: C20_29  and  C24_33 
REMARK   19  A    between atoms: C20_29  and  N6_40 
REMARK   20  A    between atoms: C21_30  and  C22_31 
REMARK   21  A    between atoms: C22_31  and  C23_32 
REMARK   22  A    between atoms: C23_32  and  O8_43 
REMARK   23  A    between atoms: C24_33  and  C25_34 
REMARK   24  A    between atoms: C28_38  and  O6_39 
REMARK   25  A    between atoms: C29_42  and  O8_43 
REMARK   26  A    between atoms: C29_42  and  C35_49 
ROOT
ATOM      1  C14 non d ame     -11.180   8.965  69.704  0.00  0.00     0.089 C 
ATOM      2  H20 non d ame     -12.128   8.445  69.569  0.00  0.00     0.087 H 
ENDROOT
BRANCH   1   3
ATOM      3  N4  non d ame     -10.137   7.956  69.809  0.00  0.00    -0.346 N 
ATOM      4  C10 non d ame     -10.482   6.491  69.715  0.00  0.00     0.241 C 
ATOM      5  O4  non d ame     -11.608   6.149  69.558  0.00  0.00    -0.271 OA
ATOM      6  H19 non d ame      -9.185   8.268  69.944  0.00  0.00     0.163 HD
BRANCH   4   7
ATOM      7  C9  non d ame      -9.389   5.460  69.820  0.00  0.00     0.092 C 
ATOM      8  H11 non d ame      -9.760   4.505  69.447  0.00  0.00     0.088 H 
BRANCH   7   9
ATOM      9  N3  non d ame      -8.264   5.851  68.966  0.00  0.00    -0.346 N 
ATOM     10  C7  non d ame      -8.139   5.296  67.641  0.00  0.00     0.240 C 
ATOM     11  O3  non d ame      -8.933   4.532  67.246  0.00  0.00    -0.271 OA
ATOM     12  H10 non d ame      -7.570   6.508  69.292  0.00  0.00     0.163 HD
BRANCH  10  13
ATOM     13  C6  non d ame      -6.937   5.713  66.737  0.00  0.00     0.086 C 
ATOM     14  H6  non d ame      -6.512   4.875  66.186  0.00  0.00     0.086 H 
BRANCH  13  15
ATOM     15  N2  non d ame      -7.403   6.669  65.745  0.00  0.00    -0.343 N 
ATOM     16  C5  non d ame      -6.710   6.769  64.459  0.00  0.00     0.273 C 
ATOM     17  O2  non d ame      -5.777   6.079  64.233  0.00  0.00    -0.266 OA
ATOM     18  H5  non d ame      -8.199   7.256  65.948  0.00  0.00     0.163 HD
BRANCH  16  19
ATOM     19  C4  non d ame      -7.192   7.773  63.401  0.00  0.00     0.154 A 
ATOM     20  C1  non d ame      -6.807   9.145  63.272  0.00  0.00    -0.017 A 
ATOM     21  C2  non d ame      -7.526   9.621  62.152  0.00  0.00     0.077 A 
ATOM     22  H1  non d ame      -6.114   9.710  63.895  0.00  0.00     0.091 H 
ATOM     23  O1  non d ame      -8.235   8.629  61.698  0.00  0.00    -0.218 OA
ATOM     24  N1  non d ame      -8.058   7.541  62.410  0.00  0.00    -0.123 NA
BRANCH  21  25
ATOM     25  C3  non d ame      -7.477  11.032  61.582  0.00  0.00    -0.029 C 
ATOM     26  H2  non d ame      -6.489  11.461  61.757  0.00  0.00     0.036 H 
ATOM     27  H3  non d ame      -7.674  10.998  60.511  0.00  0.00     0.036 H 
ATOM     28  H4  non d ame      -8.232  11.648  62.071  0.00  0.00     0.036 H 
ENDBRANCH  21  25
ENDBRANCH  16  19
ENDBRANCH  13  15
BRANCH  13  29
ATOM     29  C8  non d ame      -5.858   6.336  67.587  0.00  0.00    -0.049 C 
ATOM     30  H7  non d ame      -5.614   7.324  67.198  0.00  0.00     0.030 H 
ATOM     31  H8  non d ame      -6.212   6.426  68.614  0.00  0.00     0.030 H 
ATOM     32  H9  non d ame      -4.969   5.707  67.562  0.00  0.00     0.030 H 
ENDBRANCH  13  29
ENDBRANCH  10  13
ENDBRANCH   7   9
BRANCH   7  33
ATOM     33  C11 non d ame      -8.907   5.364  71.297  0.00  0.00    -0.033 C 
ATOM     34  H12 non d ame      -9.428   6.136  71.864  0.00  0.00     0.042 H 
BRANCH  33  35
ATOM     35  C12 non d ame      -9.279   3.987  71.929  0.00  0.00    -0.071 C 
ATOM     36  H13 non d ame      -9.187   3.205  71.175  0.00  0.00     0.028 H 
ATOM     37  H14 non d ame      -8.604   3.773  72.757  0.00  0.00     0.028 H 
ATOM     38  H15 non d ame     -10.305   4.020  72.294  0.00  0.00     0.028 H 
ENDBRANCH  33  35
BRANCH  33  39
ATOM     39  C13 non d ame      -7.372   5.640  71.403  0.00  0.00    -0.071 C 
ATOM     40  H16 non d ame      -7.205   6.705  71.560  0.00  0.00     0.028 H 
ATOM     41  H17 non d ame      -6.960   5.080  72.243  0.00  0.00     0.028 H 
ATOM     42  H18 non d ame      -6.883   5.326  70.481  0.00  0.00     0.028 H 
ENDBRANCH  33  39
ENDBRANCH   7  33
ENDBRANCH   4   7
ENDBRANCH   1   3
BRANCH   1  43
ATOM     43  C15 non d ame     -10.847   9.899  68.505  0.00  0.00     0.240 C 
ATOM     44  O5  non d ame     -10.722   9.440  67.415  0.00  0.00    -0.271 OA
ATOM     45  N6  non d ame     -10.691  11.367  68.714  0.00  0.00    -0.355 N 
ATOM     46  H46 non d ame     -10.799  11.769  69.633  0.00  0.00     0.162 HD
BRANCH  45  47
ATOM     47  C20 non d ame     -10.376  12.241  67.563  0.00  0.00     0.013 C 
ATOM     48  H30 non d ame      -9.837  11.645  66.827  0.00  0.00     0.072 H 
BRANCH  47  49
ATOM     49  C21 non d ame      -9.511  13.390  68.031  0.00  0.00    -0.038 C 
ATOM     50  H31 non d ame      -9.933  13.707  68.985  0.00  0.00     0.036 H 
ATOM     51  H32 non d ame      -8.485  13.025  67.982  0.00  0.00     0.036 H 
BRANCH  49  52
ATOM     52  C22 non d ame      -9.584  14.615  67.093  0.00  0.00     0.018 C 
ATOM     53  H33 non d ame      -8.553  14.832  66.811  0.00  0.00     0.048 H 
ATOM     54  H34 non d ame     -10.316  14.358  66.327  0.00  0.00     0.048 H 
BRANCH  52  55
ATOM     55  C23 non d ame     -10.119  15.901  67.783  0.00  0.00     0.259 C 
ATOM     56  O7  non d ame      -9.615  16.955  67.567  0.00  0.00    -0.265 OA
BRANCH  55  57
ATOM     57  O8  non d ame     -11.212  15.802  68.688  0.00  0.00    -0.317 OA
BRANCH  57  58
ATOM     58  C29 non d ame     -10.850  15.984  70.060  0.00  0.00     0.052 C 
ATOM     59  H47 non d ame      -9.882  15.497  70.176  0.00  0.00     0.082 H 
ATOM     60  H48 non d ame     -10.949  17.052  70.252  0.00  0.00     0.082 H 
BRANCH  58  61
ATOM     61  C35 non d ame     -11.888  15.230  70.932  0.00  0.00    -0.034 A 
ATOM     62  C30 non d ame     -12.156  13.886  70.691  0.00  0.00    -0.075 A 
ATOM     63  C31 non d ame     -13.089  13.208  71.475  0.00  0.00    -0.082 A 
ATOM     64  H49 non d ame     -11.635  13.364  69.889  0.00  0.00     0.084 H 
ATOM     65  C32 non d ame     -13.757  13.880  72.502  0.00  0.00    -0.083 A 
ATOM     66  H50 non d ame     -13.295  12.155  71.285  0.00  0.00     0.083 H 
ATOM     67  C33 non d ame     -13.489  15.222  72.737  0.00  0.00    -0.082 A 
ATOM     68  H51 non d ame     -14.487  13.358  73.120  0.00  0.00     0.083 H 
ATOM     69  C34 non d ame     -12.556  15.903  71.958  0.00  0.00    -0.075 A 
ATOM     70  H52 non d ame     -14.014  15.744  73.538  0.00  0.00     0.083 H 
ATOM     71  H53 non d ame     -12.350  16.956  72.149  0.00  0.00     0.084 H 
ENDBRANCH  58  61
ENDBRANCH  57  58
ENDBRANCH  55  57
ENDBRANCH  52  55
ENDBRANCH  49  52
ENDBRANCH  47  49
BRANCH  47  72
ATOM     72  C24 non d ame     -11.669  12.788  66.961  0.00  0.00    -0.039 C 
ATOM     73  H35 non d ame     -12.463  12.460  67.632  0.00  0.00     0.036 H 
ATOM     74  H36 non d ame     -11.490  13.852  66.807  0.00  0.00     0.036 H 
BRANCH  72  75
ATOM     75  C25 non d ame     -11.970  12.147  65.523  0.00  0.00    -0.001 C 
ATOM     76  C26 non d ame     -10.567  11.643  64.830  0.00  0.00    -0.035 C 
ATOM     77  C27 non d ame     -10.489  12.157  63.579  0.00  0.00     0.085 C 
ATOM     78  H38 non d ame      -9.715  12.090  65.342  0.00  0.00     0.036 H 
ATOM     79  H39 non d ame     -10.599  10.566  64.662  0.00  0.00     0.036 H 
ATOM     80  N5  non d ame     -11.548  13.227  63.475  0.00  0.00    -0.049 N 
ATOM     81  H40 non d ame      -9.505  12.623  63.516  0.00  0.00     0.075 H 
ATOM     82  H41 non d ame     -10.747  11.336  62.911  0.00  0.00     0.075 H 
ATOM     83  C28 non d ame     -12.530  13.005  64.737  0.00  0.00     0.193 C 
ATOM     84  H42 non d ame     -11.074  14.112  63.588  0.00  0.00     0.280 HD
ATOM     85  H43 non d ame     -12.066  13.036  62.628  0.00  0.00     0.280 HD
ATOM     86  H44 non d ame     -13.508  12.543  64.604  0.00  0.00     0.129 H 
ATOM     87  H37 non d ame     -12.793  11.433  65.554  0.00  0.00     0.046 H 
BRANCH  83  88
ATOM     88  O6  non d ame     -12.782  14.251  65.390  0.00  0.00    -0.369 OA
ATOM     89  H45 non d ame     -13.426  14.121  66.089  0.00  0.00     0.212 HD
ENDBRANCH  83  88
ENDBRANCH  72  75
ENDBRANCH  47  72
ENDBRANCH  45  47
ENDBRANCH   1  43
BRANCH   1  90
ATOM     90  C16 non d ame     -11.216   9.777  70.989  0.00  0.00    -0.035 C 
ATOM     91  H21 non d ame     -10.213   9.695  71.410  0.00  0.00     0.037 H 
ATOM     92  H22 non d ame     -11.609  10.753  70.703  0.00  0.00     0.037 H 
BRANCH  90  93
ATOM     93  C17 non d ame     -12.194   9.205  72.064  0.00  0.00    -0.059 C 
ATOM     94  H23 non d ame     -12.302   9.956  72.846  0.00  0.00     0.038 H 
BRANCH  93  95
ATOM     95  C18 non d ame     -13.613   8.920  71.477  0.00  0.00    -0.073 C 
ATOM     96  H24 non d ame     -13.593   7.987  70.914  0.00  0.00     0.028 H 
ATOM     97  H25 non d ame     -14.333   8.837  72.292  0.00  0.00     0.028 H 
ATOM     98  H26 non d ame     -13.904   9.738  70.817  0.00  0.00     0.028 H 
ENDBRANCH  93  95
BRANCH  93  99
ATOM     99  C19 non d ame     -11.613   7.949  72.718  0.00  0.00    -0.073 C 
ATOM    100  H27 non d ame     -11.255   8.192  73.719  0.00  0.00     0.028 H 
ATOM    101  H28 non d ame     -12.387   7.183  72.785  0.00  0.00     0.028 H 
ATOM    102  H29 non d ame     -10.784   7.575  72.117  0.00  0.00     0.028 H 
ENDBRANCH  93  99
ENDBRANCH  90  93
ENDBRANCH   1  90
TORSDOF 26
ENDMDL
MODEL 16
REMARK VINA RESULT:      -6.2      1.748      2.624
REMARK  26 active torsions:
REMARK  status: ('A' for Active; 'I' for Inactive)
REMARK    1  A    between atoms: C2_2  and  C3_3 
REMARK    2  A    between atoms: C4_6  and  C5_7 
REMARK       I    between atoms: C5_7  and  N2_9 
REMARK    3  A    between atoms: N2_9  and  C6_10 
REMARK    4  A    between atoms: C6_10  and  C7_11 
REMARK    5  A    between atoms: C6_10  and  C8_13 
REMARK       I    between atoms: C7_11  and  N3_14 
REMARK    6  A    between atoms: N3_14  and  C9_15 
REMARK    7  A    between atoms: C9_15  and  C10_16 
REMARK    8  A    between atoms: C9_15  and  C11_18 
REMARK       I    between atoms: C10_16  and  N4_21 
REMARK    9  A    between atoms: C11_18  and  C12_19 
REMARK   10  A    between atoms: C11_18  and  C13_20 
REMARK   11  A    between atoms: N4_21  and  C14_22 
REMARK   12  A    between atoms: C14_22  and  C15_23 
REMARK   13  A    between atoms: C14_22  and  C16_25 
REMARK       I    between atoms: C15_23  and  N6_40 
REMARK   14  A    between atoms: C16_25  and  C17_26 
REMARK   15  A    between atoms: C17_26  and  C18_27 
REMARK   16  A    between atoms: C17_26  and  C19_28 
REMARK   17  A    between atoms: C20_29  and  C21_30 
REMARK   18  A    between atoms: C20_29  and  C24_33 
REMARK   19  A    between atoms: C20_29  and  N6_40 
REMARK   20  A    between atoms: C21_30  and  C22_31 
REMARK   21  A    between atoms: C22_31  and  C23_32 
REMARK   22  A    between atoms: C23_32  and  O8_43 
REMARK   23  A    between atoms: C24_33  and  C25_34 
REMARK   24  A    between atoms: C28_38  and  O6_39 
REMARK   25  A    between atoms: C29_42  and  O8_43 
REMARK   26  A    between atoms: C29_42  and  C35_49 
ROOT
ATOM      1  C14 non d ame     -12.357  13.859  70.139  0.00  0.00     0.089 C 
ATOM      2  H20 non d ame     -13.439  13.874  70.279  0.00  0.00     0.087 H 
ENDROOT
BRANCH   1   3
ATOM      3  N4  non d ame     -11.951  12.468  70.005  0.00  0.00    -0.346 N 
ATOM      4  C10 non d ame     -12.433  11.435  70.992  0.00  0.00     0.241 C 
ATOM      5  O4  non d ame     -13.145  11.748  71.889  0.00  0.00    -0.271 OA
ATOM      6  H19 non d ame     -11.343  12.223  69.237  0.00  0.00     0.163 HD
BRANCH   4   7
ATOM      7  C9  non d ame     -12.007   9.999  70.835  0.00  0.00     0.092 C 
ATOM      8  H11 non d ame     -12.265   9.657  69.832  0.00  0.00     0.088 H 
BRANCH   7   9
ATOM      9  N3  non d ame     -10.550   9.904  70.964  0.00  0.00    -0.346 N 
ATOM     10  C7  non d ame      -9.755   9.466  69.843  0.00  0.00     0.240 C 
ATOM     11  O3  non d ame     -10.271   9.185  68.831  0.00  0.00    -0.271 OA
ATOM     12  H10 non d ame     -10.091  10.142  71.831  0.00  0.00     0.163 HD
BRANCH  10  13
ATOM     13  C6  non d ame      -8.204   9.364  69.988  0.00  0.00     0.086 C 
ATOM     14  H6  non d ame      -7.741   8.809  69.172  0.00  0.00     0.086 H 
BRANCH  13  15
ATOM     15  N2  non d ame      -7.639  10.703  69.955  0.00  0.00    -0.343 N 
ATOM     16  C5  non d ame      -6.184  10.871  69.953  0.00  0.00     0.273 C 
ATOM     17  O2  non d ame      -5.478   9.924  69.981  0.00  0.00    -0.266 OA
ATOM     18  H5  non d ame      -8.250  11.507  69.934  0.00  0.00     0.163 HD
BRANCH  16  19
ATOM     19  C4  non d ame      -5.572  12.280  69.917  0.00  0.00     0.154 A 
ATOM     20  C1  non d ame      -5.982  13.421  70.678  0.00  0.00    -0.017 A 
ATOM     21  C2  non d ame      -5.107  14.456  70.281  0.00  0.00     0.077 A 
ATOM     22  H1  non d ame      -6.790  13.487  71.406  0.00  0.00     0.091 H 
ATOM     23  O1  non d ame      -4.293  13.958  69.397  0.00  0.00    -0.218 OA
ATOM     24  N1  non d ame      -4.545  12.690  69.167  0.00  0.00    -0.123 NA
BRANCH  21  25
ATOM     25  C3  non d ame      -5.115  15.890  70.794  0.00  0.00    -0.029 C 
ATOM     26  H2  non d ame      -6.134  16.277  70.775  0.00  0.00     0.036 H 
ATOM     27  H3  non d ame      -4.737  15.912  71.816  0.00  0.00     0.036 H 
ATOM     28  H4  non d ame      -4.480  16.508  70.158  0.00  0.00     0.036 H 
ENDBRANCH  21  25
ENDBRANCH  16  19
ENDBRANCH  13  15
BRANCH  13  29
ATOM     29  C8  non d ame      -7.862   8.691  71.292  0.00  0.00    -0.049 C 
ATOM     30  H7  non d ame      -8.738   8.688  71.941  0.00  0.00     0.030 H 
ATOM     31  H8  non d ame      -7.549   7.665  71.100  0.00  0.00     0.030 H 
ATOM     32  H9  non d ame      -7.052   9.233  71.779  0.00  0.00     0.030 H 
ENDBRANCH  13  29
ENDBRANCH  10  13
ENDBRANCH   7   9
BRANCH   7  33
ATOM     33  C11 non d ame     -12.681   9.134  71.940  0.00  0.00    -0.033 C 
ATOM     34  H12 non d ame     -12.941   9.799  72.764  0.00  0.00     0.042 H 
BRANCH  33  35
ATOM     35  C12 non d ame     -14.003   8.484  71.426  0.00  0.00    -0.071 C 
ATOM     36  H13 non d ame     -13.867   8.148  70.398  0.00  0.00     0.028 H 
ATOM     37  H14 non d ame     -14.258   7.632  72.056  0.00  0.00     0.028 H 
ATOM     38  H15 non d ame     -14.808   9.218  71.465  0.00  0.00     0.028 H 
ENDBRANCH  33  35
BRANCH  33  39
ATOM     39  C13 non d ame     -11.693   8.054  72.484  0.00  0.00    -0.071 C 
ATOM     40  H16 non d ame     -12.079   7.060  72.257  0.00  0.00     0.028 H 
ATOM     41  H17 non d ame     -10.718   8.181  72.011  0.00  0.00     0.028 H 
ATOM     42  H18 non d ame     -11.590   8.166  73.563  0.00  0.00     0.028 H 
ENDBRANCH  33  39
ENDBRANCH   7  33
ENDBRANCH   4   7
ENDBRANCH   1   3
BRANCH   1  43
ATOM     43  C15 non d ame     -11.920  14.629  68.860  0.00  0.00     0.240 C 
ATOM     44  O5  non d ame     -12.347  14.303  67.800  0.00  0.00    -0.271 OA
ATOM     45  N6  non d ame     -10.976  15.778  68.958  0.00  0.00    -0.355 N 
ATOM     46  H46 non d ame     -10.611  16.067  69.854  0.00  0.00     0.162 HD
BRANCH  45  47
ATOM     47  C20 non d ame     -10.571  16.501  67.733  0.00  0.00     0.013 C 
ATOM     48  H30 non d ame     -11.403  16.460  67.029  0.00  0.00     0.072 H 
BRANCH  47  49
ATOM     49  C21 non d ame      -9.356  15.829  67.135  0.00  0.00    -0.038 C 
ATOM     50  H31 non d ame      -9.737  15.169  66.355  0.00  0.00     0.036 H 
ATOM     51  H32 non d ame      -8.669  16.636  66.879  0.00  0.00     0.036 H 
BRANCH  49  52
ATOM     52  C22 non d ame      -8.612  14.928  68.145  0.00  0.00     0.018 C 
ATOM     53  H33 non d ame      -8.001  15.600  68.747  0.00  0.00     0.048 H 
ATOM     54  H34 non d ame      -9.382  14.318  68.619  0.00  0.00     0.048 H 
BRANCH  52  55
ATOM     55  C23 non d ame      -7.623  13.928  67.483  0.00  0.00     0.259 C 
ATOM     56  O7  non d ame      -6.585  14.307  67.046  0.00  0.00    -0.265 OA
BRANCH  55  57
ATOM     57  O8  non d ame      -7.978  12.554  67.392  0.00  0.00    -0.317 OA
BRANCH  57  58
ATOM     58  C29 non d ame      -9.386  12.311  67.455  0.00  0.00     0.052 C 
ATOM     59  H47 non d ame      -9.507  11.444  68.105  0.00  0.00     0.082 H 
ATOM     60  H48 non d ame      -9.839  13.264  67.727  0.00  0.00     0.082 H 
BRANCH  58  61
ATOM     61  C35 non d ame      -9.870  11.927  66.031  0.00  0.00    -0.034 A 
ATOM     62  C30 non d ame     -10.508  12.872  65.234  0.00  0.00    -0.075 A 
ATOM     63  C31 non d ame     -10.943  12.528  63.955  0.00  0.00    -0.082 A 
ATOM     64  H49 non d ame     -10.666  13.883  65.611  0.00  0.00     0.084 H 
ATOM     65  C32 non d ame     -10.741  11.231  63.475  0.00  0.00    -0.083 A 
ATOM     66  H50 non d ame     -11.440  13.272  63.332  0.00  0.00     0.083 H 
ATOM     67  C33 non d ame     -10.107  10.291  64.275  0.00  0.00    -0.082 A 
ATOM     68  H51 non d ame     -11.077  10.954  62.476  0.00  0.00     0.083 H 
ATOM     69  C34 non d ame      -9.669  10.631  65.553  0.00  0.00    -0.075 A 
ATOM     70  H52 non d ame      -9.952   9.279  63.898  0.00  0.00     0.083 H 
ATOM     71  H53 non d ame      -9.171   9.887  66.175  0.00  0.00     0.084 H 
ENDBRANCH  58  61
ENDBRANCH  57  58
ENDBRANCH  55  57
ENDBRANCH  52  55
ENDBRANCH  49  52
ENDBRANCH  47  49
BRANCH  47  72
ATOM     72  C24 non d ame     -10.236  17.951  68.075  0.00  0.00    -0.039 C 
ATOM     73  H35 non d ame     -11.119  18.526  67.794  0.00  0.00     0.036 H 
ATOM     74  H36 non d ame      -9.904  17.935  69.113  0.00  0.00     0.036 H 
BRANCH  72  75
ATOM     75  C25 non d ame      -9.015  18.500  67.196  0.00  0.00    -0.001 C 
ATOM     76  C26 non d ame      -7.777  18.953  68.179  0.00  0.00    -0.035 C 
ATOM     77  C27 non d ame      -7.396  20.211  67.849  0.00  0.00     0.085 C 
ATOM     78  H38 non d ame      -8.132  19.055  69.204  0.00  0.00     0.036 H 
ATOM     79  H39 non d ame      -6.891  18.355  67.965  0.00  0.00     0.036 H 
ATOM     80  N5  non d ame      -8.472  20.778  66.955  0.00  0.00    -0.049 N 
ATOM     81  H40 non d ame      -7.384  20.767  68.788  0.00  0.00     0.075 H 
ATOM     82  H41 non d ame      -6.479  20.095  67.272  0.00  0.00     0.075 H 
ATOM     83  C28 non d ame      -9.370  19.520  66.488  0.00  0.00     0.193 C 
ATOM     84  H42 non d ame      -9.039  21.380  67.535  0.00  0.00     0.280 HD
ATOM     85  H43 non d ame      -8.001  21.155  66.145  0.00  0.00     0.280 HD
ATOM     86  H44 non d ame      -9.267  19.109  65.483  0.00  0.00     0.129 H 
ATOM     87  H37 non d ame      -8.772  17.836  66.366  0.00  0.00     0.046 H 
BRANCH  83  88
ATOM     88  O6  non d ame     -10.758  19.823  66.637  0.00  0.00    -0.369 OA
ATOM     89  H45 non d ame     -10.886  20.772  66.575  0.00  0.00     0.212 HD
ENDBRANCH  83  88
ENDBRANCH  72  75
ENDBRANCH  47  72
ENDBRANCH  45  47
ENDBRANCH   1  43
BRANCH   1  90
ATOM     90  C16 non d ame     -11.673  14.461  71.356  0.00  0.00    -0.035 C 
ATOM     91  H21 non d ame     -11.405  13.612  71.986  0.00  0.00     0.037 H 
ATOM     92  H22 non d ame     -10.894  15.111  70.958  0.00  0.00     0.037 H 
BRANCH  90  93
ATOM     93  C17 non d ame     -12.609  15.369  72.216  0.00  0.00    -0.059 C 
ATOM     94  H23 non d ame     -12.359  16.406  71.992  0.00  0.00     0.038 H 
BRANCH  93  95
ATOM     95  C18 non d ame     -14.117  15.157  71.870  0.00  0.00    -0.073 C 
ATOM     96  H24 non d ame     -14.729  15.794  72.508  0.00  0.00     0.028 H 
ATOM     97  H25 non d ame     -14.290  15.415  70.825  0.00  0.00     0.028 H 
ATOM     98  H26 non d ame     -14.384  14.113  72.035  0.00  0.00     0.028 H 
ENDBRANCH  93  95
BRANCH  93  99
ATOM     99  C19 non d ame     -12.357  15.154  73.711  0.00  0.00    -0.073 C 
ATOM    100  H27 non d ame     -12.828  14.223  74.028  0.00  0.00     0.028 H 
ATOM    101  H28 non d ame     -11.284  15.098  73.894  0.00  0.00     0.028 H 
ATOM    102  H29 non d ame     -12.779  15.985  74.274  0.00  0.00     0.028 H 
ENDBRANCH  93  99
ENDBRANCH  90  93
ENDBRANCH   1  90
TORSDOF 26
ENDMDL
MODEL 17
REMARK VINA RESULT:      -6.2      2.713      7.388
REMARK  26 active torsions:
REMARK  status: ('A' for Active; 'I' for Inactive)
REMARK    1  A    between atoms: C2_2  and  C3_3 
REMARK    2  A    between atoms: C4_6  and  C5_7 
REMARK       I    between atoms: C5_7  and  N2_9 
REMARK    3  A    between atoms: N2_9  and  C6_10 
REMARK    4  A    between atoms: C6_10  and  C7_11 
REMARK    5  A    between atoms: C6_10  and  C8_13 
REMARK       I    between atoms: C7_11  and  N3_14 
REMARK    6  A    between atoms: N3_14  and  C9_15 
REMARK    7  A    between atoms: C9_15  and  C10_16 
REMARK    8  A    between atoms: C9_15  and  C11_18 
REMARK       I    between atoms: C10_16  and  N4_21 
REMARK    9  A    between atoms: C11_18  and  C12_19 
REMARK   10  A    between atoms: C11_18  and  C13_20 
REMARK   11  A    between atoms: N4_21  and  C14_22 
REMARK   12  A    between atoms: C14_22  and  C15_23 
REMARK   13  A    between atoms: C14_22  and  C16_25 
REMARK       I    between atoms: C15_23  and  N6_40 
REMARK   14  A    between atoms: C16_25  and  C17_26 
REMARK   15  A    between atoms: C17_26  and  C18_27 
REMARK   16  A    between atoms: C17_26  and  C19_28 
REMARK   17  A    between atoms: C20_29  and  C21_30 
REMARK   18  A    between atoms: C20_29  and  C24_33 
REMARK   19  A    between atoms: C20_29  and  N6_40 
REMARK   20  A    between atoms: C21_30  and  C22_31 
REMARK   21  A    between atoms: C22_31  and  C23_32 
REMARK   22  A    between atoms: C23_32  and  O8_43 
REMARK   23  A    between atoms: C24_33  and  C25_34 
REMARK   24  A    between atoms: C28_38  and  O6_39 
REMARK   25  A    between atoms: C29_42  and  O8_43 
REMARK   26  A    between atoms: C29_42  and  C35_49 
ROOT
ATOM      1  C14 non d ame      -7.401   9.686  65.236  0.00  0.00     0.089 C 
ATOM      2  H20 non d ame      -7.890   8.788  64.859  0.00  0.00     0.087 H 
ENDROOT
BRANCH   1   3
ATOM      3  N4  non d ame      -8.402  10.742  65.287  0.00  0.00    -0.346 N 
ATOM      4  C10 non d ame      -9.838  10.415  65.612  0.00  0.00     0.241 C 
ATOM      5  O4  non d ame     -10.165   9.294  65.826  0.00  0.00    -0.271 OA
ATOM      6  H19 non d ame      -8.104  11.689  65.100  0.00  0.00     0.163 HD
BRANCH   4   7
ATOM      7  C9  non d ame     -10.859  11.521  65.666  0.00  0.00     0.092 C 
ATOM      8  H11 non d ame     -11.854  11.085  65.763  0.00  0.00     0.088 H 
BRANCH   7   9
ATOM      9  N3  non d ame     -10.627  12.343  66.857  0.00  0.00    -0.346 N 
ATOM     10  C7  non d ame     -11.477  12.193  68.013  0.00  0.00     0.240 C 
ATOM     11  O3  non d ame     -12.353  11.416  68.001  0.00  0.00    -0.271 OA
ATOM     12  H10 non d ame      -9.877  13.018  66.882  0.00  0.00     0.163 HD
BRANCH  10  13
ATOM     13  C6  non d ame     -11.228  13.073  69.277  0.00  0.00     0.086 C 
ATOM     14  H6  non d ame     -10.223  12.953  69.682  0.00  0.00     0.086 H 
BRANCH  13  15
ATOM     15  N2  non d ame     -11.365  14.473  68.911  0.00  0.00    -0.343 N 
ATOM     16  C5  non d ame     -10.189  15.217  68.455  0.00  0.00     0.273 C 
ATOM     17  O2  non d ame      -9.137  14.682  68.389  0.00  0.00    -0.266 OA
ATOM     18  H5  non d ame     -12.267  14.923  68.973  0.00  0.00     0.163 HD
BRANCH  16  19
ATOM     19  C4  non d ame     -10.319  16.698  68.063  0.00  0.00     0.154 A 
ATOM     20  C1  non d ame     -10.294  17.248  66.743  0.00  0.00    -0.017 A 
ATOM     21  C2  non d ame     -10.452  18.640  66.926  0.00  0.00     0.077 A 
ATOM     22  H1  non d ame     -10.180  16.719  65.797  0.00  0.00     0.091 H 
ATOM     23  O1  non d ame     -10.556  18.853  68.205  0.00  0.00    -0.218 OA
ATOM     24  N1  non d ame     -10.481  17.735  68.890  0.00  0.00    -0.123 NA
BRANCH  21  25
ATOM     25  C3  non d ame     -10.494  19.695  65.828  0.00  0.00    -0.029 C 
ATOM     26  H2  non d ame      -9.499  19.810  65.396  0.00  0.00     0.036 H 
ATOM     27  H3  non d ame     -11.194  19.384  65.053  0.00  0.00     0.036 H 
ATOM     28  H4  non d ame     -10.819  20.646  66.250  0.00  0.00     0.036 H 
ENDBRANCH  21  25
ENDBRANCH  16  19
ENDBRANCH  13  15
BRANCH  13  29
ATOM     29  C8  non d ame     -12.230  12.718  70.346  0.00  0.00    -0.049 C 
ATOM     30  H7  non d ame     -12.639  11.728  70.146  0.00  0.00     0.030 H 
ATOM     31  H8  non d ame     -11.739  12.719  71.319  0.00  0.00     0.030 H 
ATOM     32  H9  non d ame     -13.037  13.450  70.344  0.00  0.00     0.030 H 
ENDBRANCH  13  29
ENDBRANCH  10  13
ENDBRANCH   7   9
BRANCH   7  33
ATOM     33  C11 non d ame     -10.730  12.408  64.394  0.00  0.00    -0.033 C 
ATOM     34  H12 non d ame      -9.688  12.378  64.076  0.00  0.00     0.042 H 
BRANCH  33  35
ATOM     35  C12 non d ame     -11.594  11.849  63.221  0.00  0.00    -0.071 C 
ATOM     36  H13 non d ame     -12.268  12.627  62.862  0.00  0.00     0.028 H 
ATOM     37  H14 non d ame     -10.941  11.532  62.408  0.00  0.00     0.028 H 
ATOM     38  H15 non d ame     -12.176  10.998  63.572  0.00  0.00     0.028 H 
ENDBRANCH  33  35
BRANCH  33  39
ATOM     39  C13 non d ame     -11.097  13.894  64.709  0.00  0.00    -0.071 C 
ATOM     40  H16 non d ame     -10.478  14.557  64.104  0.00  0.00     0.028 H 
ATOM     41  H17 non d ame     -12.148  14.066  64.476  0.00  0.00     0.028 H 
ATOM     42  H18 non d ame     -10.920  14.095  65.765  0.00  0.00     0.028 H 
ENDBRANCH  33  39
ENDBRANCH   7  33
ENDBRANCH   4   7
ENDBRANCH   1   3
BRANCH   1  43
ATOM     43  C15 non d ame      -6.823   9.483  66.666  0.00  0.00     0.240 C 
ATOM     44  O5  non d ame      -5.651   9.565  66.847  0.00  0.00    -0.271 OA
ATOM     45  N6  non d ame      -7.731   9.194  67.812  0.00  0.00    -0.355 N 
ATOM     46  H46 non d ame      -8.729   9.127  67.672  0.00  0.00     0.162 HD
BRANCH  45  47
ATOM     47  C20 non d ame      -7.166   9.005  69.166  0.00  0.00     0.013 C 
ATOM     48  H30 non d ame      -6.106   8.773  69.057  0.00  0.00     0.072 H 
BRANCH  47  49
ATOM     49  C21 non d ame      -7.878   7.859  69.849  0.00  0.00    -0.038 C 
ATOM     50  H31 non d ame      -7.094   7.171  70.165  0.00  0.00     0.036 H 
ATOM     51  H32 non d ame      -8.532   8.320  70.590  0.00  0.00     0.036 H 
BRANCH  49  52
ATOM     52  C22 non d ame      -8.795   7.067  68.891  0.00  0.00     0.018 C 
ATOM     53  H33 non d ame      -9.740   6.945  69.421  0.00  0.00     0.048 H 
ATOM     54  H34 non d ame      -8.766   7.605  67.943  0.00  0.00     0.048 H 
BRANCH  52  55
ATOM     55  C23 non d ame      -8.287   5.631  68.584  0.00  0.00     0.259 C 
ATOM     56  O7  non d ame      -7.718   5.001  69.416  0.00  0.00    -0.265 OA
BRANCH  55  57
ATOM     57  O8  non d ame      -8.499   5.079  67.291  0.00  0.00    -0.317 OA
BRANCH  57  58
ATOM     58  C29 non d ame      -8.840   6.046  66.294  0.00  0.00     0.052 C 
ATOM     59  H47 non d ame      -9.808   5.735  65.900  0.00  0.00     0.082 H 
ATOM     60  H48 non d ame      -8.735   7.017  66.776  0.00  0.00     0.082 H 
BRANCH  58  61
ATOM     61  C35 non d ame      -7.793   5.948  65.153  0.00  0.00    -0.034 A 
ATOM     62  C30 non d ame      -8.210   5.852  63.829  0.00  0.00    -0.075 A 
ATOM     63  C31 non d ame      -7.269   5.764  62.805  0.00  0.00    -0.082 A 
ATOM     64  H49 non d ame      -9.275   5.846  63.595  0.00  0.00     0.084 H 
ATOM     65  C32 non d ame      -5.905   5.770  63.108  0.00  0.00    -0.083 A 
ATOM     66  H50 non d ame      -7.600   5.692  61.769  0.00  0.00     0.083 H 
ATOM     67  C33 non d ame      -5.493   5.863  64.430  0.00  0.00    -0.082 A 
ATOM     68  H51 non d ame      -5.163   5.703  62.313  0.00  0.00     0.083 H 
ATOM     69  C34 non d ame      -6.430   5.953  65.457  0.00  0.00    -0.075 A 
ATOM     70  H52 non d ame      -4.428   5.865  64.664  0.00  0.00     0.083 H 
ATOM     71  H53 non d ame      -6.098   6.027  66.494  0.00  0.00     0.084 H 
ENDBRANCH  58  61
ENDBRANCH  57  58
ENDBRANCH  55  57
ENDBRANCH  52  55
ENDBRANCH  49  52
ENDBRANCH  47  49
BRANCH  47  72
ATOM     72  C24 non d ame      -7.349  10.281  69.985  0.00  0.00    -0.039 C 
ATOM     73  H35 non d ame      -8.299  10.702  69.657  0.00  0.00     0.036 H 
ATOM     74  H36 non d ame      -7.216   9.979  71.024  0.00  0.00     0.036 H 
BRANCH  72  75
ATOM     75  C25 non d ame      -6.213  11.363  69.658  0.00  0.00    -0.001 C 
ATOM     76  C26 non d ame      -5.558  11.926  71.057  0.00  0.00    -0.035 C 
ATOM     77  C27 non d ame      -5.582  13.280  71.035  0.00  0.00     0.085 C 
ATOM     78  H38 non d ame      -6.201  11.674  71.900  0.00  0.00     0.036 H 
ATOM     79  H39 non d ame      -4.494  11.691  71.093  0.00  0.00     0.036 H 
ATOM     80  N5  non d ame      -6.488  13.688  69.899  0.00  0.00    -0.049 N 
ATOM     81  H40 non d ame      -6.039  13.579  71.980  0.00  0.00     0.075 H 
ATOM     82  H41 non d ame      -4.562  13.586  70.803  0.00  0.00     0.075 H 
ATOM     83  C28 non d ame      -6.697  12.363  69.001  0.00  0.00     0.193 C 
ATOM     84  H42 non d ame      -7.374  13.938  70.315  0.00  0.00     0.280 HD
ATOM     85  H43 non d ame      -5.976  14.368  69.355  0.00  0.00     0.280 HD
ATOM     86  H44 non d ame      -6.172  12.249  68.052  0.00  0.00     0.129 H 
ATOM     87  H37 non d ame      -5.521  11.016  68.891  0.00  0.00     0.046 H 
BRANCH  83  88
ATOM     88  O6  non d ame      -8.081  12.189  68.694  0.00  0.00    -0.369 OA
ATOM     89  H45 non d ame      -8.168  11.726  67.858  0.00  0.00     0.212 HD
ENDBRANCH  83  88
ENDBRANCH  72  75
ENDBRANCH  47  72
ENDBRANCH  45  47
ENDBRANCH   1  43
BRANCH   1  90
ATOM     90  C16 non d ame      -6.288  10.104  64.289  0.00  0.00    -0.035 C 
ATOM     91  H21 non d ame      -6.597  11.069  63.888  0.00  0.00     0.037 H 
ATOM     92  H22 non d ame      -5.369  10.024  64.871  0.00  0.00     0.037 H 
BRANCH  90  93
ATOM     93  C17 non d ame      -6.118   9.151  63.063  0.00  0.00    -0.059 C 
ATOM     94  H23 non d ame      -6.386   8.145  63.387  0.00  0.00     0.038 H 
BRANCH  93  95
ATOM     95  C18 non d ame      -7.062   9.538  61.880  0.00  0.00    -0.073 C 
ATOM     96  H24 non d ame      -6.569   9.314  60.934  0.00  0.00     0.028 H 
ATOM     97  H25 non d ame      -7.988   8.967  61.953  0.00  0.00     0.028 H 
ATOM     98  H26 non d ame      -7.288  10.603  61.930  0.00  0.00     0.028 H 
ENDBRANCH  93  95
BRANCH  93  99
ATOM     99  C19 non d ame      -4.658   9.106  62.603  0.00  0.00    -0.073 C 
ATOM    100  H27 non d ame      -4.245  10.115  62.610  0.00  0.00     0.028 H 
ATOM    101  H28 non d ame      -4.084   8.473  63.280  0.00  0.00     0.028 H 
ATOM    102  H29 non d ame      -4.608   8.699  61.594  0.00  0.00     0.028 H 
ENDBRANCH  93  99
ENDBRANCH  90  93
ENDBRANCH   1  90
TORSDOF 26
ENDMDL
MODEL 18
REMARK VINA RESULT:      -6.2      3.142      6.921
REMARK  26 active torsions:
REMARK  status: ('A' for Active; 'I' for Inactive)
REMARK    1  A    between atoms: C2_2  and  C3_3 
REMARK    2  A    between atoms: C4_6  and  C5_7 
REMARK       I    between atoms: C5_7  and  N2_9 
REMARK    3  A    between atoms: N2_9  and  C6_10 
REMARK    4  A    between atoms: C6_10  and  C7_11 
REMARK    5  A    between atoms: C6_10  and  C8_13 
REMARK       I    between atoms: C7_11  and  N3_14 
REMARK    6  A    between atoms: N3_14  and  C9_15 
REMARK    7  A    between atoms: C9_15  and  C10_16 
REMARK    8  A    between atoms: C9_15  and  C11_18 
REMARK       I    between atoms: C10_16  and  N4_21 
REMARK    9  A    between atoms: C11_18  and  C12_19 
REMARK   10  A    between atoms: C11_18  and  C13_20 
REMARK   11  A    between atoms: N4_21  and  C14_22 
REMARK   12  A    between atoms: C14_22  and  C15_23 
REMARK   13  A    between atoms: C14_22  and  C16_25 
REMARK       I    between atoms: C15_23  and  N6_40 
REMARK   14  A    between atoms: C16_25  and  C17_26 
REMARK   15  A    between atoms: C17_26  and  C18_27 
REMARK   16  A    between atoms: C17_26  and  C19_28 
REMARK   17  A    between atoms: C20_29  and  C21_30 
REMARK   18  A    between atoms: C20_29  and  C24_33 
REMARK   19  A    between atoms: C20_29  and  N6_40 
REMARK   20  A    between atoms: C21_30  and  C22_31 
REMARK   21  A    between atoms: C22_31  and  C23_32 
REMARK   22  A    between atoms: C23_32  and  O8_43 
REMARK   23  A    between atoms: C24_33  and  C25_34 
REMARK   24  A    between atoms: C28_38  and  O6_39 
REMARK   25  A    between atoms: C29_42  and  O8_43 
REMARK   26  A    between atoms: C29_42  and  C35_49 
ROOT
ATOM      1  C14 non d ame     -10.789   8.886  69.607  0.00  0.00     0.089 C 
ATOM      2  H20 non d ame     -11.738   8.497  69.975  0.00  0.00     0.087 H 
ENDROOT
BRANCH   1   3
ATOM      3  N4  non d ame     -10.168   7.842  68.805  0.00  0.00    -0.346 N 
ATOM      4  C10 non d ame     -10.693   6.429  68.858  0.00  0.00     0.241 C 
ATOM      5  O4  non d ame     -11.613   6.156  69.555  0.00  0.00    -0.271 OA
ATOM      6  H19 non d ame      -9.384   8.094  68.220  0.00  0.00     0.163 HD
BRANCH   4   7
ATOM      7  C9  non d ame     -10.042   5.362  68.018  0.00  0.00     0.092 C 
ATOM      8  H11 non d ame     -10.789   4.918  67.360  0.00  0.00     0.088 H 
BRANCH   7   9
ATOM      9  N3  non d ame      -9.018   5.969  67.163  0.00  0.00    -0.346 N 
ATOM     10  C7  non d ame      -8.920   5.589  65.775  0.00  0.00     0.240 C 
ATOM     11  O3  non d ame      -9.656   4.795  65.330  0.00  0.00    -0.271 OA
ATOM     12  H10 non d ame      -8.374   6.654  67.533  0.00  0.00     0.163 HD
BRANCH  10  13
ATOM     13  C6  non d ame      -7.825   6.236  64.871  0.00  0.00     0.086 C 
ATOM     14  H6  non d ame      -7.445   5.551  64.113  0.00  0.00     0.086 H 
BRANCH  13  15
ATOM     15  N2  non d ame      -8.407   7.362  64.159  0.00  0.00    -0.343 N 
ATOM     16  C5  non d ame      -8.745   8.583  64.894  0.00  0.00     0.273 C 
ATOM     17  O2  non d ame      -8.548   8.648  66.058  0.00  0.00    -0.266 OA
ATOM     18  H5  non d ame      -8.575   7.297  63.165  0.00  0.00     0.163 HD
BRANCH  16  19
ATOM     19  C4  non d ame      -9.360   9.782  64.154  0.00  0.00     0.154 A 
ATOM     20  C1  non d ame     -10.388  10.656  64.629  0.00  0.00    -0.017 A 
ATOM     21  C2  non d ame     -10.590  11.582  63.582  0.00  0.00     0.077 A 
ATOM     22  H1  non d ame     -10.908  10.624  65.587  0.00  0.00     0.091 H 
ATOM     23  O1  non d ame      -9.768  11.268  62.624  0.00  0.00    -0.218 OA
ATOM     24  N1  non d ame      -9.040  10.221  62.934  0.00  0.00    -0.123 NA
BRANCH  21  25
ATOM     25  C3  non d ame     -11.585  12.735  63.577  0.00  0.00    -0.029 C 
ATOM     26  H2  non d ame     -12.426  12.488  62.929  0.00  0.00     0.036 H 
ATOM     27  H3  non d ame     -11.946  12.907  64.591  0.00  0.00     0.036 H 
ATOM     28  H4  non d ame     -11.095  13.637  63.209  0.00  0.00     0.036 H 
ENDBRANCH  21  25
ENDBRANCH  16  19
ENDBRANCH  13  15
BRANCH  13  29
ATOM     29  C8  non d ame      -6.675   6.704  65.726  0.00  0.00    -0.049 C 
ATOM     30  H7  non d ame      -6.369   7.701  65.409  0.00  0.00     0.030 H 
ATOM     31  H8  non d ame      -6.987   6.734  66.770  0.00  0.00     0.030 H 
ATOM     32  H9  non d ame      -5.838   6.016  65.616  0.00  0.00     0.030 H 
ENDBRANCH  13  29
ENDBRANCH  10  13
ENDBRANCH   7   9
BRANCH   7  33
ATOM     33  C11 non d ame      -9.378   4.303  68.947  0.00  0.00    -0.033 C 
ATOM     34  H12 non d ame      -9.985   4.231  69.849  0.00  0.00     0.042 H 
BRANCH  33  35
ATOM     35  C12 non d ame      -9.360   2.893  68.279  0.00  0.00    -0.071 C 
ATOM     36  H13 non d ame      -8.341   2.504  68.279  0.00  0.00     0.028 H 
ATOM     37  H14 non d ame     -10.006   2.218  68.841  0.00  0.00     0.028 H 
ATOM     38  H15 non d ame      -9.720   2.972  67.254  0.00  0.00     0.028 H 
ENDBRANCH  33  35
BRANCH  33  39
ATOM     39  C13 non d ame      -7.940   4.750  69.365  0.00  0.00    -0.071 C 
ATOM     40  H16 non d ame      -7.309   3.871  69.493  0.00  0.00     0.028 H 
ATOM     41  H17 non d ame      -7.518   5.391  68.590  0.00  0.00     0.028 H 
ATOM     42  H18 non d ame      -7.991   5.301  70.304  0.00  0.00     0.028 H 
ENDBRANCH  33  39
ENDBRANCH   7  33
ENDBRANCH   4   7
ENDBRANCH   1   3
BRANCH   1  43
ATOM     43  C15 non d ame     -10.976  10.148  68.716  0.00  0.00     0.240 C 
ATOM     44  O5  non d ame     -11.235  10.024  67.563  0.00  0.00    -0.271 OA
ATOM     45  N6  non d ame     -10.841  11.511  69.304  0.00  0.00    -0.355 N 
ATOM     46  H46 non d ame     -10.626  11.629  70.283  0.00  0.00     0.162 HD
BRANCH  45  47
ATOM     47  C20 non d ame     -11.024  12.701  68.444  0.00  0.00     0.013 C 
ATOM     48  H30 non d ame     -11.208  12.355  67.427  0.00  0.00     0.072 H 
BRANCH  47  49
ATOM     49  C21 non d ame      -9.769  13.544  68.485  0.00  0.00    -0.038 C 
ATOM     50  H31 non d ame      -9.989  14.367  69.165  0.00  0.00     0.036 H 
ATOM     51  H32 non d ame      -8.957  12.852  68.709  0.00  0.00     0.036 H 
BRANCH  49  52
ATOM     52  C22 non d ame      -9.434  14.184  67.120  0.00  0.00     0.018 C 
ATOM     53  H33 non d ame      -8.409  14.546  67.208  0.00  0.00     0.048 H 
ATOM     54  H34 non d ame      -9.683  13.432  66.371  0.00  0.00     0.048 H 
BRANCH  52  55
ATOM     55  C23 non d ame     -10.300  15.429  66.782  0.00  0.00     0.259 C 
ATOM     56  O7  non d ame     -11.119  15.379  65.922  0.00  0.00    -0.265 OA
BRANCH  55  57
ATOM     57  O8  non d ame     -10.096  16.637  67.505  0.00  0.00    -0.317 OA
BRANCH  57  58
ATOM     58  C29 non d ame      -8.780  16.776  68.048  0.00  0.00     0.052 C 
ATOM     59  H47 non d ame      -8.919  16.988  69.108  0.00  0.00     0.082 H 
ATOM     60  H48 non d ame      -8.237  15.883  67.738  0.00  0.00     0.082 H 
BRANCH  58  61
ATOM     61  C35 non d ame      -8.115  18.010  67.382  0.00  0.00    -0.034 A 
ATOM     62  C30 non d ame      -8.312  19.279  67.915  0.00  0.00    -0.075 A 
ATOM     63  C31 non d ame      -7.715  20.388  67.317  0.00  0.00    -0.082 A 
ATOM     64  H49 non d ame      -8.934  19.406  68.801  0.00  0.00     0.084 H 
ATOM     65  C32 non d ame      -6.919  20.224  66.180  0.00  0.00    -0.083 A 
ATOM     66  H50 non d ame      -7.869  21.382  67.739  0.00  0.00     0.083 H 
ATOM     67  C33 non d ame      -6.728  18.955  65.650  0.00  0.00    -0.082 A 
ATOM     68  H51 non d ame      -6.448  21.085  65.706  0.00  0.00     0.083 H 
ATOM     69  C34 non d ame      -7.321  17.844  66.245  0.00  0.00    -0.075 A 
ATOM     70  H52 non d ame      -6.109  18.831  64.761  0.00  0.00     0.083 H 
ATOM     71  H53 non d ame      -7.165  16.851  65.823  0.00  0.00     0.084 H 
ENDBRANCH  58  61
ENDBRANCH  57  58
ENDBRANCH  55  57
ENDBRANCH  52  55
ENDBRANCH  49  52
ENDBRANCH  47  49
BRANCH  47  72
ATOM     72  C24 non d ame     -12.208  13.525  68.947  0.00  0.00    -0.039 C 
ATOM     73  H35 non d ame     -12.240  14.407  68.308  0.00  0.00     0.036 H 
ATOM     74  H36 non d ame     -13.053  12.836  68.967  0.00  0.00     0.036 H 
BRANCH  72  75
ATOM     75  C25 non d ame     -11.980  14.036  70.448  0.00  0.00    -0.001 C 
ATOM     76  C26 non d ame     -13.020  13.270  71.465  0.00  0.00    -0.035 C 
ATOM     77  C27 non d ame     -13.666  14.199  72.209  0.00  0.00     0.085 C 
ATOM     78  H38 non d ame     -13.821  12.799  70.895  0.00  0.00     0.036 H 
ATOM     79  H39 non d ame     -12.464  12.693  72.204  0.00  0.00     0.036 H 
ATOM     80  N5  non d ame     -13.402  15.540  71.568  0.00  0.00    -0.049 N 
ATOM     81  H40 non d ame     -14.726  13.963  72.115  0.00  0.00     0.075 H 
ATOM     82  H41 non d ame     -13.186  14.173  73.187  0.00  0.00     0.075 H 
ATOM     83  C28 non d ame     -12.176  15.309  70.543  0.00  0.00     0.193 C 
ATOM     84  H42 non d ame     -14.228  15.770  71.035  0.00  0.00     0.280 HD
ATOM     85  H43 non d ame     -13.091  16.155  72.307  0.00  0.00     0.280 HD
ATOM     86  H44 non d ame     -11.171  15.646  70.797  0.00  0.00     0.129 H 
ATOM     87  H37 non d ame     -10.926  14.040  70.727  0.00  0.00     0.046 H 
BRANCH  83  88
ATOM     88  O6  non d ame     -12.472  15.904  69.279  0.00  0.00    -0.369 OA
ATOM     89  H45 non d ame     -12.623  16.845  69.396  0.00  0.00     0.212 HD
ENDBRANCH  83  88
ENDBRANCH  72  75
ENDBRANCH  47  72
ENDBRANCH  45  47
ENDBRANCH   1  43
BRANCH   1  90
ATOM     90  C16 non d ame      -9.879   9.218  70.779  0.00  0.00    -0.035 C 
ATOM     91  H21 non d ame      -8.916   8.769  70.534  0.00  0.00     0.037 H 
ATOM     92  H22 non d ame      -9.959  10.298  70.909  0.00  0.00     0.037 H 
BRANCH  90  93
ATOM     93  C17 non d ame     -10.336   8.576  72.128  0.00  0.00    -0.059 C 
ATOM     94  H23 non d ame     -10.030   9.245  72.932  0.00  0.00     0.038 H 
BRANCH  93  95
ATOM     95  C18 non d ame     -11.887   8.413  72.207  0.00  0.00    -0.073 C 
ATOM     96  H24 non d ame     -12.131   7.381  72.460  0.00  0.00     0.028 H 
ATOM     97  H25 non d ame     -12.284   9.079  72.974  0.00  0.00     0.028 H 
ATOM     98  H26 non d ame     -12.329   8.665  71.243  0.00  0.00     0.028 H 
ENDBRANCH  93  95
BRANCH  93  99
ATOM     99  C19 non d ame      -9.634   7.235  72.359  0.00  0.00    -0.073 C 
ATOM    100  H27 non d ame      -8.594   7.309  72.040  0.00  0.00     0.028 H 
ATOM    101  H28 non d ame      -9.672   6.984  73.420  0.00  0.00     0.028 H 
ATOM    102  H29 non d ame     -10.137   6.458  71.784  0.00  0.00     0.028 H 
ENDBRANCH  93  99
ENDBRANCH  90  93
ENDBRANCH   1  90
TORSDOF 26
ENDMDL
MODEL 19
REMARK VINA RESULT:      -6.2      2.522      7.309
REMARK  26 active torsions:
REMARK  status: ('A' for Active; 'I' for Inactive)
REMARK    1  A    between atoms: C2_2  and  C3_3 
REMARK    2  A    between atoms: C4_6  and  C5_7 
REMARK       I    between atoms: C5_7  and  N2_9 
REMARK    3  A    between atoms: N2_9  and  C6_10 
REMARK    4  A    between atoms: C6_10  and  C7_11 
REMARK    5  A    between atoms: C6_10  and  C8_13 
REMARK       I    between atoms: C7_11  and  N3_14 
REMARK    6  A    between atoms: N3_14  and  C9_15 
REMARK    7  A    between atoms: C9_15  and  C10_16 
REMARK    8  A    between atoms: C9_15  and  C11_18 
REMARK       I    between atoms: C10_16  and  N4_21 
REMARK    9  A    between atoms: C11_18  and  C12_19 
REMARK   10  A    between atoms: C11_18  and  C13_20 
REMARK   11  A    between atoms: N4_21  and  C14_22 
REMARK   12  A    between atoms: C14_22  and  C15_23 
REMARK   13  A    between atoms: C14_22  and  C16_25 
REMARK       I    between atoms: C15_23  and  N6_40 
REMARK   14  A    between atoms: C16_25  and  C17_26 
REMARK   15  A    between atoms: C17_26  and  C18_27 
REMARK   16  A    between atoms: C17_26  and  C19_28 
REMARK   17  A    between atoms: C20_29  and  C21_30 
REMARK   18  A    between atoms: C20_29  and  C24_33 
REMARK   19  A    between atoms: C20_29  and  N6_40 
REMARK   20  A    between atoms: C21_30  and  C22_31 
REMARK   21  A    between atoms: C22_31  and  C23_32 
REMARK   22  A    between atoms: C23_32  and  O8_43 
REMARK   23  A    between atoms: C24_33  and  C25_34 
REMARK   24  A    between atoms: C28_38  and  O6_39 
REMARK   25  A    between atoms: C29_42  and  O8_43 
REMARK   26  A    between atoms: C29_42  and  C35_49 
ROOT
ATOM      1  C14 non d ame      -6.500  13.803  67.404  0.00  0.00     0.089 C 
ATOM      2  H20 non d ame      -6.049  13.964  66.424  0.00  0.00     0.087 H 
ENDROOT
BRANCH   1   3
ATOM      3  N4  non d ame      -6.847  15.108  67.947  0.00  0.00    -0.346 N 
ATOM      4  C10 non d ame      -6.169  16.352  67.432  0.00  0.00     0.241 C 
ATOM      5  O4  non d ame      -5.343  16.278  66.582  0.00  0.00    -0.271 OA
ATOM      6  H19 non d ame      -7.550  15.149  68.671  0.00  0.00     0.163 HD
BRANCH   4   7
ATOM      7  C9  non d ame      -6.544  17.695  68.001  0.00  0.00     0.092 C 
ATOM      8  H11 non d ame      -6.221  18.478  67.316  0.00  0.00     0.088 H 
BRANCH   7   9
ATOM      9  N3  non d ame      -8.003  17.790  68.109  0.00  0.00    -0.346 N 
ATOM     10  C7  non d ame      -8.796  18.060  66.935  0.00  0.00     0.240 C 
ATOM     11  O3  non d ame      -8.277  18.206  65.896  0.00  0.00    -0.271 OA
ATOM     12  H10 non d ame      -8.466  17.668  68.998  0.00  0.00     0.163 HD
BRANCH  10  13
ATOM     13  C6  non d ame     -10.349  18.162  67.056  0.00  0.00     0.086 C 
ATOM     14  H6  non d ame     -10.870  17.589  66.290  0.00  0.00     0.086 H 
BRANCH  13  15
ATOM     15  N2  non d ame     -10.759  17.613  68.338  0.00  0.00    -0.343 N 
ATOM     16  C5  non d ame     -11.204  16.220  68.416  0.00  0.00     0.273 C 
ATOM     17  O2  non d ame     -11.231  15.551  67.442  0.00  0.00    -0.266 OA
ATOM     18  H5  non d ame     -10.734  18.193  69.164  0.00  0.00     0.163 HD
BRANCH  16  19
ATOM     19  C4  non d ame     -11.638  15.626  69.765  0.00  0.00     0.154 A 
ATOM     20  C1  non d ame     -11.633  16.277  71.039  0.00  0.00    -0.017 A 
ATOM     21  C2  non d ame     -12.121  15.309  71.945  0.00  0.00     0.077 A 
ATOM     22  H1  non d ame     -11.323  17.296  71.271  0.00  0.00     0.091 H 
ATOM     23  O1  non d ame     -12.375  14.232  71.260  0.00  0.00    -0.218 OA
ATOM     24  N1  non d ame     -12.101  14.392  69.986  0.00  0.00    -0.123 NA
BRANCH  21  25
ATOM     25  C3  non d ame     -12.314  15.493  73.444  0.00  0.00    -0.029 C 
ATOM     26  H2  non d ame     -12.409  16.555  73.671  0.00  0.00     0.036 H 
ATOM     27  H3  non d ame     -13.217  14.971  73.760  0.00  0.00     0.036 H 
ATOM     28  H4  non d ame     -11.453  15.084  73.975  0.00  0.00     0.036 H 
ENDBRANCH  21  25
ENDBRANCH  16  19
ENDBRANCH  13  15
BRANCH  13  29
ATOM     29  C8  non d ame     -10.769  19.607  66.955  0.00  0.00    -0.049 C 
ATOM     30  H7  non d ame     -10.928  19.866  65.908  0.00  0.00     0.030 H 
ATOM     31  H8  non d ame     -11.694  19.756  67.511  0.00  0.00     0.030 H 
ATOM     32  H9  non d ame      -9.988  20.242  67.371  0.00  0.00     0.030 H 
ENDBRANCH  13  29
ENDBRANCH  10  13
ENDBRANCH   7   9
BRANCH   7  33
ATOM     33  C11 non d ame      -5.911  17.855  69.414  0.00  0.00    -0.033 C 
ATOM     34  H12 non d ame      -6.436  17.178  70.088  0.00  0.00     0.042 H 
BRANCH  33  35
ATOM     35  C12 non d ame      -4.406  17.442  69.413  0.00  0.00    -0.071 C 
ATOM     36  H13 non d ame      -4.328  16.355  69.442  0.00  0.00     0.028 H 
ATOM     37  H14 non d ame      -3.928  17.816  68.508  0.00  0.00     0.028 H 
ATOM     38  H15 non d ame      -3.913  17.866  70.287  0.00  0.00     0.028 H 
ENDBRANCH  33  35
BRANCH  33  39
ATOM     39  C13 non d ame      -6.099  19.311  69.950  0.00  0.00    -0.071 C 
ATOM     40  H16 non d ame      -5.658  20.016  69.247  0.00  0.00     0.028 H 
ATOM     41  H17 non d ame      -7.163  19.524  70.059  0.00  0.00     0.028 H 
ATOM     42  H18 non d ame      -5.608  19.407  70.918  0.00  0.00     0.028 H 
ENDBRANCH  33  39
ENDBRANCH   7  33
ENDBRANCH   4   7
ENDBRANCH   1   3
BRANCH   1  43
ATOM     43  C15 non d ame      -7.792  12.941  67.321  0.00  0.00     0.240 C 
ATOM     44  O5  non d ame      -8.778  13.299  67.879  0.00  0.00    -0.271 OA
ATOM     45  N6  non d ame      -7.802  11.672  66.539  0.00  0.00    -0.355 N 
ATOM     46  H46 non d ame      -6.972  11.360  66.057  0.00  0.00     0.162 HD
BRANCH  45  47
ATOM     47  C20 non d ame      -9.039  10.864  66.469  0.00  0.00     0.013 C 
ATOM     48  H30 non d ame      -9.797  11.358  67.078  0.00  0.00     0.072 H 
BRANCH  47  49
ATOM     49  C21 non d ame      -8.763   9.480  67.011  0.00  0.00    -0.038 C 
ATOM     50  H31 non d ame      -9.696   9.151  67.469  0.00  0.00     0.036 H 
ATOM     51  H32 non d ame      -8.337   8.918  66.179  0.00  0.00     0.036 H 
BRANCH  49  52
ATOM     52  C22 non d ame      -7.700   9.475  68.131  0.00  0.00     0.018 C 
ATOM     53  H33 non d ame      -7.347  10.504  68.207  0.00  0.00     0.048 H 
ATOM     54  H34 non d ame      -8.176   8.997  68.987  0.00  0.00     0.048 H 
BRANCH  52  55
ATOM     55  C23 non d ame      -6.448   8.616  67.802  0.00  0.00     0.259 C 
ATOM     56  O7  non d ame      -5.532   8.571  68.558  0.00  0.00    -0.265 OA
BRANCH  55  57
ATOM     57  O8  non d ame      -6.401   7.891  66.579  0.00  0.00    -0.317 OA
BRANCH  57  58
ATOM     58  C29 non d ame      -5.478   8.421  65.623  0.00  0.00     0.052 C 
ATOM     59  H47 non d ame      -5.138   9.370  66.037  0.00  0.00     0.082 H 
ATOM     60  H48 non d ame      -4.762   7.622  65.431  0.00  0.00     0.082 H 
BRANCH  58  61
ATOM     61  C35 non d ame      -6.257   8.707  64.312  0.00  0.00    -0.034 A 
ATOM     62  C30 non d ame      -6.061   9.905  63.633  0.00  0.00    -0.075 A 
ATOM     63  C31 non d ame      -6.761  10.162  62.455  0.00  0.00    -0.082 A 
ATOM     64  H49 non d ame      -5.360  10.642  64.023  0.00  0.00     0.084 H 
ATOM     65  C32 non d ame      -7.662   9.216  61.958  0.00  0.00    -0.083 A 
ATOM     66  H50 non d ame      -6.604  11.101  61.924  0.00  0.00     0.083 H 
ATOM     67  C33 non d ame      -7.856   8.023  62.641  0.00  0.00    -0.082 A 
ATOM     68  H51 non d ame      -8.213   9.409  61.037  0.00  0.00     0.083 H 
ATOM     69  C34 non d ame      -7.157   7.761  63.817  0.00  0.00    -0.075 A 
ATOM     70  H52 non d ame      -8.561   7.288  62.251  0.00  0.00     0.083 H 
ATOM     71  H53 non d ame      -7.314   6.821  64.347  0.00  0.00     0.084 H 
ENDBRANCH  58  61
ENDBRANCH  57  58
ENDBRANCH  55  57
ENDBRANCH  52  55
ENDBRANCH  49  52
ENDBRANCH  47  49
BRANCH  47  72
ATOM     72  C24 non d ame      -9.507  10.761  65.019  0.00  0.00    -0.039 C 
ATOM     73  H35 non d ame      -8.598  10.645  64.428  0.00  0.00     0.036 H 
ATOM     74  H36 non d ame     -10.264   9.976  65.014  0.00  0.00     0.036 H 
BRANCH  72  75
ATOM     75  C25 non d ame     -10.221  12.109  64.529  0.00  0.00    -0.001 C 
ATOM     76  C26 non d ame     -11.386  12.548  65.603  0.00  0.00    -0.035 C 
ATOM     77  C27 non d ame     -12.541  12.764  64.930  0.00  0.00     0.085 C 
ATOM     78  H38 non d ame     -11.625  11.711  66.258  0.00  0.00     0.036 H 
ATOM     79  H39 non d ame     -11.153  13.524  66.029  0.00  0.00     0.036 H 
ATOM     80  N5  non d ame     -12.356  12.197  63.543  0.00  0.00    -0.049 N 
ATOM     81  H40 non d ame     -13.298  12.180  65.454  0.00  0.00     0.075 H 
ATOM     82  H41 non d ame     -12.640  13.847  64.860  0.00  0.00     0.075 H 
ATOM     83  C28 non d ame     -10.770  11.953  63.371  0.00  0.00     0.193 C 
ATOM     84  H42 non d ame     -12.822  11.301  63.535  0.00  0.00     0.280 HD
ATOM     85  H43 non d ame     -12.642  12.920  62.898  0.00  0.00     0.280 HD
ATOM     86  H44 non d ame     -10.166  12.635  62.772  0.00  0.00     0.129 H 
ATOM     87  H37 non d ame      -9.502  12.874  64.237  0.00  0.00     0.046 H 
BRANCH  83  88
ATOM     88  O6  non d ame     -10.527  10.653  62.830  0.00  0.00    -0.369 OA
ATOM     89  H45 non d ame     -11.364  10.220  62.650  0.00  0.00     0.212 HD
ENDBRANCH  83  88
ENDBRANCH  72  75
ENDBRANCH  47  72
ENDBRANCH  45  47
ENDBRANCH   1  43
BRANCH   1  90
ATOM     90  C16 non d ame      -5.496  13.133  68.328  0.00  0.00    -0.035 C 
ATOM     91  H21 non d ame      -5.430  12.101  67.983  0.00  0.00     0.037 H 
ATOM     92  H22 non d ame      -4.613  13.771  68.307  0.00  0.00     0.037 H 
BRANCH  90  93
ATOM     93  C17 non d ame      -5.960  13.070  69.818  0.00  0.00    -0.059 C 
ATOM     94  H23 non d ame      -6.978  13.457  69.864  0.00  0.00     0.038 H 
BRANCH  93  95
ATOM     95  C18 non d ame      -5.981  11.608  70.368  0.00  0.00    -0.073 C 
ATOM     96  H24 non d ame      -5.349  11.545  71.254  0.00  0.00     0.028 H 
ATOM     97  H25 non d ame      -7.002  11.333  70.630  0.00  0.00     0.028 H 
ATOM     98  H26 non d ame      -5.605  10.927  69.604  0.00  0.00     0.028 H 
ENDBRANCH  93  95
BRANCH  93  99
ATOM     99  C19 non d ame      -5.092  13.972  70.699  0.00  0.00    -0.073 C 
ATOM    100  H27 non d ame      -5.180  13.657  71.740  0.00  0.00     0.028 H 
ATOM    101  H28 non d ame      -4.051  13.895  70.383  0.00  0.00     0.028 H 
ATOM    102  H29 non d ame      -5.426  15.005  70.603  0.00  0.00     0.028 H 
ENDBRANCH  93  99
ENDBRANCH  90  93
ENDBRANCH   1  90
TORSDOF 26
ENDMDL
MODEL 20
REMARK VINA RESULT:      -6.1      2.442      5.207
REMARK  26 active torsions:
REMARK  status: ('A' for Active; 'I' for Inactive)
REMARK    1  A    between atoms: C2_2  and  C3_3 
REMARK    2  A    between atoms: C4_6  and  C5_7 
REMARK       I    between atoms: C5_7  and  N2_9 
REMARK    3  A    between atoms: N2_9  and  C6_10 
REMARK    4  A    between atoms: C6_10  and  C7_11 
REMARK    5  A    between atoms: C6_10  and  C8_13 
REMARK       I    between atoms: C7_11  and  N3_14 
REMARK    6  A    between atoms: N3_14  and  C9_15 
REMARK    7  A    between atoms: C9_15  and  C10_16 
REMARK    8  A    between atoms: C9_15  and  C11_18 
REMARK       I    between atoms: C10_16  and  N4_21 
REMARK    9  A    between atoms: C11_18  and  C12_19 
REMARK   10  A    between atoms: C11_18  and  C13_20 
REMARK   11  A    between atoms: N4_21  and  C14_22 
REMARK   12  A    between atoms: C14_22  and  C15_23 
REMARK   13  A    between atoms: C14_22  and  C16_25 
REMARK       I    between atoms: C15_23  and  N6_40 
REMARK   14  A    between atoms: C16_25  and  C17_26 
REMARK   15  A    between atoms: C17_26  and  C18_27 
REMARK   16  A    between atoms: C17_26  and  C19_28 
REMARK   17  A    between atoms: C20_29  and  C21_30 
REMARK   18  A    between atoms: C20_29  and  C24_33 
REMARK   19  A    between atoms: C20_29  and  N6_40 
REMARK   20  A    between atoms: C21_30  and  C22_31 
REMARK   21  A    between atoms: C22_31  and  C23_32 
REMARK   22  A    between atoms: C23_32  and  O8_43 
REMARK   23  A    between atoms: C24_33  and  C25_34 
REMARK   24  A    between atoms: C28_38  and  O6_39 
REMARK   25  A    between atoms: C29_42  and  O8_43 
REMARK   26  A    between atoms: C29_42  and  C35_49 
ROOT
ATOM      1  C14 non d ame     -10.841   9.770  68.607  0.00  0.00     0.089 C 
ATOM      2  H20 non d ame     -11.701   9.134  68.397  0.00  0.00     0.087 H 
ENDROOT
BRANCH   1   3
ATOM      3  N4  non d ame      -9.692   9.193  67.925  0.00  0.00    -0.346 N 
ATOM      4  C10 non d ame      -9.835   7.909  67.146  0.00  0.00     0.241 C 
ATOM      5  O4  non d ame     -10.884   7.358  67.085  0.00  0.00    -0.271 OA
ATOM      6  H19 non d ame      -8.808   9.676  67.991  0.00  0.00     0.163 HD
BRANCH   4   7
ATOM      7  C9  non d ame      -8.637   7.329  66.441  0.00  0.00     0.092 C 
ATOM      8  H11 non d ame      -8.963   6.845  65.520  0.00  0.00     0.088 H 
BRANCH   7   9
ATOM      9  N3  non d ame      -7.722   8.410  66.062  0.00  0.00    -0.346 N 
ATOM     10  C7  non d ame      -7.874   9.070  64.788  0.00  0.00     0.240 C 
ATOM     11  O3  non d ame      -8.727   8.743  64.056  0.00  0.00    -0.271 OA
ATOM     12  H10 non d ame      -6.980   8.701  66.682  0.00  0.00     0.163 HD
BRANCH  10  13
ATOM     13  C6  non d ame      -6.895  10.217  64.389  0.00  0.00     0.086 C 
ATOM     14  H6  non d ame      -7.413  11.117  64.058  0.00  0.00     0.086 H 
BRANCH  13  15
ATOM     15  N2  non d ame      -6.111  10.594  65.553  0.00  0.00    -0.343 N 
ATOM     16  C5  non d ame      -6.747  11.339  66.642  0.00  0.00     0.273 C 
ATOM     17  O2  non d ame      -7.890  11.632  66.570  0.00  0.00    -0.266 OA
ATOM     18  H5  non d ame      -5.134  10.341  65.605  0.00  0.00     0.163 HD
BRANCH  16  19
ATOM     19  C4  non d ame      -5.930  11.742  67.879  0.00  0.00     0.154 A 
ATOM     20  C1  non d ame      -6.404  11.873  69.223  0.00  0.00    -0.017 A 
ATOM     21  C2  non d ame      -5.271  12.260  69.972  0.00  0.00     0.077 A 
ATOM     22  H1  non d ame      -7.415  11.711  69.598  0.00  0.00     0.091 H 
ATOM     23  O1  non d ame      -4.269  12.339  69.146  0.00  0.00    -0.218 OA
ATOM     24  N1  non d ame      -4.629  12.041  67.919  0.00  0.00    -0.123 NA
BRANCH  21  25
ATOM     25  C3  non d ame      -5.230  12.534  71.470  0.00  0.00    -0.029 C 
ATOM     26  H2  non d ame      -4.613  13.412  71.662  0.00  0.00     0.036 H 
ATOM     27  H3  non d ame      -6.242  12.714  71.833  0.00  0.00     0.036 H 
ATOM     28  H4  non d ame      -4.807  11.672  71.986  0.00  0.00     0.036 H 
ENDBRANCH  21  25
ENDBRANCH  16  19
ENDBRANCH  13  15
BRANCH  13  29
ATOM     29  C8  non d ame      -5.985   9.743  63.284  0.00  0.00    -0.049 C 
ATOM     30  H7  non d ame      -6.568   9.194  62.544  0.00  0.00     0.030 H 
ATOM     31  H8  non d ame      -5.512  10.603  62.810  0.00  0.00     0.030 H 
ATOM     32  H9  non d ame      -5.219   9.090  63.700  0.00  0.00     0.030 H 
ENDBRANCH  13  29
ENDBRANCH  10  13
ENDBRANCH   7   9
BRANCH   7  33
ATOM     33  C11 non d ame      -7.902   6.341  67.394  0.00  0.00    -0.033 C 
ATOM     34  H12 non d ame      -8.652   5.899  68.050  0.00  0.00     0.042 H 
BRANCH  33  35
ATOM     35  C12 non d ame      -7.231   5.178  66.599  0.00  0.00    -0.071 C 
ATOM     36  H13 non d ame      -6.237   4.987  67.006  0.00  0.00     0.028 H 
ATOM     37  H14 non d ame      -7.838   4.278  66.690  0.00  0.00     0.028 H 
ATOM     38  H15 non d ame      -7.147   5.457  65.549  0.00  0.00     0.028 H 
ENDBRANCH  33  35
BRANCH  33  39
ATOM     39  C13 non d ame      -6.862   7.093  68.285  0.00  0.00    -0.071 C 
ATOM     40  H16 non d ame      -6.285   7.781  67.668  0.00  0.00     0.028 H 
ATOM     41  H17 non d ame      -7.386   7.653  69.061  0.00  0.00     0.028 H 
ATOM     42  H18 non d ame      -6.192   6.370  68.749  0.00  0.00     0.028 H 
ENDBRANCH  33  39
ENDBRANCH   7  33
ENDBRANCH   4   7
ENDBRANCH   1   3
BRANCH   1  43
ATOM     43  C15 non d ame     -11.044  11.223  68.091  0.00  0.00     0.240 C 
ATOM     44  O5  non d ame     -11.883  11.450  67.281  0.00  0.00    -0.271 OA
ATOM     45  N6  non d ame     -10.199  12.334  68.615  0.00  0.00    -0.355 N 
ATOM     46  H46 non d ame      -9.487  12.154  69.307  0.00  0.00     0.162 HD
BRANCH  45  47
ATOM     47  C20 non d ame     -10.406  13.710  68.115  0.00  0.00     0.013 C 
ATOM     48  H30 non d ame     -10.452  13.669  67.027  0.00  0.00     0.072 H 
BRANCH  47  49
ATOM     49  C21 non d ame      -9.248  14.580  68.551  0.00  0.00    -0.038 C 
ATOM     50  H31 non d ame      -9.675  15.322  69.226  0.00  0.00     0.036 H 
ATOM     51  H32 non d ame      -8.483  13.892  68.911  0.00  0.00     0.036 H 
BRANCH  49  52
ATOM     52  C22 non d ame      -8.615  15.365  67.382  0.00  0.00     0.018 C 
ATOM     53  H33 non d ame      -7.921  16.070  67.841  0.00  0.00     0.048 H 
ATOM     54  H34 non d ame      -8.246  14.611  66.686  0.00  0.00     0.048 H 
BRANCH  52  55
ATOM     55  C23 non d ame      -9.632  16.225  66.582  0.00  0.00     0.259 C 
ATOM     56  O7  non d ame     -10.177  17.148  67.095  0.00  0.00    -0.265 OA
BRANCH  55  57
ATOM     57  O8  non d ame      -9.917  15.890  65.229  0.00  0.00    -0.317 OA
BRANCH  57  58
ATOM     58  C29 non d ame     -11.275  15.508  64.997  0.00  0.00     0.052 C 
ATOM     59  H47 non d ame     -11.762  15.541  65.972  0.00  0.00     0.082 H 
ATOM     60  H48 non d ame     -11.629  16.151  64.191  0.00  0.00     0.082 H 
BRANCH  58  61
ATOM     61  C35 non d ame     -11.281  14.040  64.493  0.00  0.00    -0.034 A 
ATOM     62  C30 non d ame     -10.106  13.296  64.501  0.00  0.00    -0.075 A 
ATOM     63  C31 non d ame     -10.111  11.978  64.049  0.00  0.00    -0.082 A 
ATOM     64  H49 non d ame      -9.181  13.746  64.862  0.00  0.00     0.084 H 
ATOM     65  C32 non d ame     -11.298  11.404  63.584  0.00  0.00    -0.083 A 
ATOM     66  H50 non d ame      -9.189  11.397  64.058  0.00  0.00     0.083 H 
ATOM     67  C33 non d ame     -12.467  12.151  63.576  0.00  0.00    -0.082 A 
ATOM     68  H51 non d ame     -11.310  10.373  63.229  0.00  0.00     0.083 H 
ATOM     69  C34 non d ame     -12.467  13.469  64.029  0.00  0.00    -0.075 A 
ATOM     70  H52 non d ame     -13.391  11.701  63.211  0.00  0.00     0.083 H 
ATOM     71  H53 non d ame     -13.391  14.049  64.020  0.00  0.00     0.084 H 
ENDBRANCH  58  61
ENDBRANCH  57  58
ENDBRANCH  55  57
ENDBRANCH  52  55
ENDBRANCH  49  52
ENDBRANCH  47  49
BRANCH  47  72
ATOM     72  C24 non d ame     -11.708  14.274  68.680  0.00  0.00    -0.039 C 
ATOM     73  H35 non d ame     -11.843  15.240  68.191  0.00  0.00     0.036 H 
ATOM     74  H36 non d ame     -12.449  13.487  68.543  0.00  0.00     0.036 H 
BRANCH  72  75
ATOM     75  C25 non d ame     -11.600  14.553  70.254  0.00  0.00    -0.001 C 
ATOM     76  C26 non d ame     -12.727  13.666  71.059  0.00  0.00    -0.035 C 
ATOM     77  C27 non d ame     -13.424  14.487  71.879  0.00  0.00     0.085 C 
ATOM     78  H38 non d ame     -13.481  13.300  70.363  0.00  0.00     0.036 H 
ATOM     79  H39 non d ame     -12.238  12.975  71.745  0.00  0.00     0.036 H 
ATOM     80  N5  non d ame     -13.098  15.903  71.469  0.00  0.00    -0.049 N 
ATOM     81  H40 non d ame     -14.475  14.288  71.667  0.00  0.00     0.075 H 
ATOM     82  H41 non d ame     -13.027  14.307  72.878  0.00  0.00     0.075 H 
ATOM     83  C28 non d ame     -11.794  15.801  70.522  0.00  0.00     0.193 C 
ATOM     84  H42 non d ame     -13.876  16.225  70.911  0.00  0.00     0.280 HD
ATOM     85  H43 non d ame     -12.844  16.395  72.314  0.00  0.00     0.280 HD
ATOM     86  H44 non d ame     -10.811  16.078  70.903  0.00  0.00     0.129 H 
ATOM     87  H37 non d ame     -10.573  14.495  70.614  0.00  0.00     0.046 H 
BRANCH  83  88
ATOM     88  O6  non d ame     -11.981  16.584  69.341  0.00  0.00    -0.369 OA
ATOM     89  H45 non d ame     -12.631  16.160  68.777  0.00  0.00     0.212 HD
ENDBRANCH  83  88
ENDBRANCH  72  75
ENDBRANCH  47  72
ENDBRANCH  45  47
ENDBRANCH   1  43
BRANCH   1  90
ATOM     90  C16 non d ame     -10.569   9.792  70.103  0.00  0.00    -0.035 C 
ATOM     91  H21 non d ame      -9.644   9.231  70.237  0.00  0.00     0.037 H 
ATOM     92  H22 non d ame     -10.616  10.843  70.389  0.00  0.00     0.037 H 
BRANCH  90  93
ATOM     93  C17 non d ame     -11.657   9.055  70.948  0.00  0.00    -0.059 C 
ATOM     94  H23 non d ame     -12.138   8.322  70.301  0.00  0.00     0.038 H 
BRANCH  93  95
ATOM     95  C18 non d ame     -11.041   8.289  72.162  0.00  0.00    -0.073 C 
ATOM     96  H24 non d ame     -10.104   8.762  72.453  0.00  0.00     0.028 H 
ATOM     97  H25 non d ame     -11.738   8.316  73.000  0.00  0.00     0.028 H 
ATOM     98  H26 non d ame     -10.853   7.252  71.880  0.00  0.00     0.028 H 
ENDBRANCH  93  95
BRANCH  93  99
ATOM     99  C19 non d ame     -12.741  10.031  71.413  0.00  0.00    -0.073 C 
ATOM    100  H27 non d ame     -13.628   9.473  71.713  0.00  0.00     0.028 H 
ATOM    101  H28 non d ame     -12.371  10.607  72.261  0.00  0.00     0.028 H 
ATOM    102  H29 non d ame     -12.995  10.708  70.598  0.00  0.00     0.028 H 
ENDBRANCH  93  99
ENDBRANCH  90  93
ENDBRANCH   1  90
TORSDOF 26
ENDMDL
