MODEL 1
REMARK VINA RESULT:      -7.4      0.000      0.000
REMARK  26 active torsions:
REMARK  status: ('A' for Active; 'I' for Inactive)
REMARK    1  A    between atoms: C2_2  and  C3_3 
REMARK    2  A    between atoms: C4_6  and  C5_7 
REMARK       I    between atoms: C5_7  and  N2_9 
REMARK    3  A    between atoms: N2_9  and  C6_10 
REMARK    4  A    between atoms: C6_10  and  C7_11 
REMARK    5  A    between atoms: C6_10  and  C8_13 
REMARK       I    between atoms: C7_11  and  N3_14 
REMARK    6  A    between atoms: N3_14  and  C9_15 
REMARK    7  A    between atoms: C9_15  and  C10_16 
REMARK    8  A    between atoms: C9_15  and  C11_18 
REMARK       I    between atoms: C10_16  and  N4_21 
REMARK    9  A    between atoms: C11_18  and  C12_19 
REMARK   10  A    between atoms: C11_18  and  C13_20 
REMARK   11  A    between atoms: N4_21  and  C14_22 
REMARK   12  A    between atoms: C14_22  and  C15_23 
REMARK   13  A    between atoms: C14_22  and  C16_25 
REMARK       I    between atoms: C15_23  and  N6_40 
REMARK   14  A    between atoms: C16_25  and  C17_26 
REMARK   15  A    between atoms: C17_26  and  C18_27 
REMARK   16  A    between atoms: C17_26  and  C19_28 
REMARK   17  A    between atoms: C20_29  and  C21_30 
REMARK   18  A    between atoms: C20_29  and  C24_33 
REMARK   19  A    between atoms: C20_29  and  N6_40 
REMARK   20  A    between atoms: C21_30  and  C22_31 
REMARK   21  A    between atoms: C22_31  and  C23_32 
REMARK   22  A    between atoms: C23_32  and  O8_43 
REMARK   23  A    between atoms: C24_33  and  C25_34 
REMARK   24  A    between atoms: C28_38  and  O6_39 
REMARK   25  A    between atoms: C29_42  and  O8_43 
REMARK   26  A    between atoms: C29_42  and  C35_49 
ROOT
ATOM      1  C14 non d ame     -11.847  14.418  70.233  0.00  0.00     0.089 C 
ATOM      2  H20 non d ame     -12.895  14.599  69.994  0.00  0.00     0.087 H 
ENDROOT
BRANCH   1   3
ATOM      3  N4  non d ame     -11.580  13.008  69.990  0.00  0.00    -0.346 N 
ATOM      4  C10 non d ame     -12.361  11.948  70.725  0.00  0.00     0.241 C 
ATOM      5  O4  non d ame     -13.198  12.254  71.509  0.00  0.00    -0.271 OA
ATOM      6  H19 non d ame     -10.862  12.768  69.321  0.00  0.00     0.163 HD
BRANCH   4   7
ATOM      7  C9  non d ame     -12.075  10.493  70.458  0.00  0.00     0.092 C 
ATOM      8  H11 non d ame     -12.678  10.158  69.614  0.00  0.00     0.088 H 
BRANCH   7   9
ATOM      9  N3  non d ame     -10.669  10.333  70.076  0.00  0.00    -0.346 N 
ATOM     10  C7  non d ame     -10.326   9.985  68.719  0.00  0.00     0.240 C 
ATOM     11  O3  non d ame     -11.169   9.829  67.922  0.00  0.00    -0.271 OA
ATOM     12  H10 non d ame      -9.931  10.463  70.753  0.00  0.00     0.163 HD
BRANCH  10  13
ATOM     13  C6  non d ame      -8.827   9.813  68.319  0.00  0.00     0.086 C 
ATOM     14  H6  non d ame      -8.443   8.819  68.543  0.00  0.00     0.086 H 
BRANCH  13  15
ATOM     15  N2  non d ame      -8.699   9.995  66.883  0.00  0.00    -0.343 N 
ATOM     16  C5  non d ame      -8.477   8.829  66.025  0.00  0.00     0.273 C 
ATOM     17  O2  non d ame      -8.401   7.749  66.501  0.00  0.00    -0.266 OA
ATOM     18  H5  non d ame      -8.762  10.921  66.485  0.00  0.00     0.163 HD
BRANCH  16  19
ATOM     19  C4  non d ame      -8.341   9.006  64.505  0.00  0.00     0.154 A 
ATOM     20  C1  non d ame      -8.141  10.230  63.791  0.00  0.00    -0.017 A 
ATOM     21  C2  non d ame      -8.082   9.853  62.431  0.00  0.00     0.077 A 
ATOM     22  H1  non d ame      -8.053  11.238  64.198  0.00  0.00     0.091 H 
ATOM     23  O1  non d ame      -8.230   8.561  62.381  0.00  0.00    -0.218 OA
ATOM     24  N1  non d ame      -8.383   8.044  63.578  0.00  0.00    -0.123 NA
BRANCH  21  25
ATOM     25  C3  non d ame      -7.882  10.786  61.245  0.00  0.00    -0.029 C 
ATOM     26  H2  non d ame      -6.877  10.653  60.843  0.00  0.00     0.036 H 
ATOM     27  H3  non d ame      -8.615  10.554  60.472  0.00  0.00     0.036 H 
ATOM     28  H4  non d ame      -8.010  11.819  61.569  0.00  0.00     0.036 H 
ENDBRANCH  21  25
ENDBRANCH  16  19
ENDBRANCH  13  15
BRANCH  13  29
ATOM     29  C8  non d ame      -7.990  10.835  69.046  0.00  0.00    -0.049 C 
ATOM     30  H7  non d ame      -7.342  11.347  68.334  0.00  0.00     0.030 H 
ATOM     31  H8  non d ame      -8.643  11.561  69.531  0.00  0.00     0.030 H 
ATOM     32  H9  non d ame      -7.380  10.335  69.798  0.00  0.00     0.030 H 
ENDBRANCH  13  29
ENDBRANCH  10  13
ENDBRANCH   7   9
BRANCH   7  33
ATOM     33  C11 non d ame     -12.358   9.664  71.745  0.00  0.00    -0.033 C 
ATOM     34  H12 non d ame     -12.437  10.365  72.576  0.00  0.00     0.042 H 
BRANCH  33  35
ATOM     35  C12 non d ame     -13.716   8.901  71.643  0.00  0.00    -0.071 C 
ATOM     36  H13 non d ame     -13.548   7.920  71.199  0.00  0.00     0.028 H 
ATOM     37  H14 non d ame     -14.140   8.781  72.639  0.00  0.00     0.028 H 
ATOM     38  H15 non d ame     -14.405   9.470  71.019  0.00  0.00     0.028 H 
ENDBRANCH  33  35
BRANCH  33  39
ATOM     39  C13 non d ame     -11.179   8.685  72.049  0.00  0.00    -0.071 C 
ATOM     40  H16 non d ame     -10.585   8.539  71.147  0.00  0.00     0.028 H 
ATOM     41  H17 non d ame     -10.551   9.106  72.834  0.00  0.00     0.028 H 
ATOM     42  H18 non d ame     -11.580   7.726  72.379  0.00  0.00     0.028 H 
ENDBRANCH  33  39
ENDBRANCH   7  33
ENDBRANCH   4   7
ENDBRANCH   1   3
BRANCH   1  43
ATOM     43  C15 non d ame     -10.888  15.263  69.346  0.00  0.00     0.240 C 
ATOM     44  O5  non d ame      -9.870  15.675  69.802  0.00  0.00    -0.271 OA
ATOM     45  N6  non d ame     -11.234  15.552  67.925  0.00  0.00    -0.355 N 
ATOM     46  H46 non d ame     -12.093  15.204  67.525  0.00  0.00     0.162 HD
BRANCH  45  47
ATOM     47  C20 non d ame     -10.310  16.356  67.095  0.00  0.00     0.013 C 
ATOM     48  H30 non d ame      -9.322  16.310  67.553  0.00  0.00     0.072 H 
BRANCH  47  49
ATOM     49  C21 non d ame     -10.795  17.787  67.053  0.00  0.00    -0.038 C 
ATOM     50  H31 non d ame     -11.709  17.772  66.459  0.00  0.00     0.036 H 
ATOM     51  H32 non d ame     -10.824  18.119  68.091  0.00  0.00     0.036 H 
BRANCH  49  52
ATOM     52  C22 non d ame      -9.815  18.730  66.321  0.00  0.00     0.018 C 
ATOM     53  H33 non d ame      -8.923  18.135  66.124  0.00  0.00     0.048 H 
ATOM     54  H34 non d ame     -10.380  19.156  65.491  0.00  0.00     0.048 H 
BRANCH  52  55
ATOM     55  C23 non d ame      -9.344  19.935  67.182  0.00  0.00     0.259 C 
ATOM     56  O7  non d ame     -10.091  20.462  67.941  0.00  0.00    -0.265 OA
BRANCH  55  57
ATOM     57  O8  non d ame      -8.012  20.412  67.043  0.00  0.00    -0.317 OA
BRANCH  57  58
ATOM     58  C29 non d ame      -7.152  20.062  68.131  0.00  0.00     0.052 C 
ATOM     59  H47 non d ame      -6.268  20.691  68.022  0.00  0.00     0.082 H 
ATOM     60  H48 non d ame      -7.766  20.136  69.028  0.00  0.00     0.082 H 
BRANCH  58  61
ATOM     61  C35 non d ame      -6.726  18.581  67.948  0.00  0.00    -0.034 A 
ATOM     62  C30 non d ame      -6.983  17.654  68.953  0.00  0.00    -0.075 A 
ATOM     63  C31 non d ame      -6.601  16.323  68.789  0.00  0.00    -0.082 A 
ATOM     64  H49 non d ame      -7.484  17.969  69.868  0.00  0.00     0.084 H 
ATOM     65  C32 non d ame      -5.957  15.921  67.615  0.00  0.00    -0.083 A 
ATOM     66  H50 non d ame      -6.806  15.598  69.577  0.00  0.00     0.083 H 
ATOM     67  C33 non d ame      -5.700  16.851  66.617  0.00  0.00    -0.082 A 
ATOM     68  H51 non d ame      -5.655  14.883  67.479  0.00  0.00     0.083 H 
ATOM     69  C34 non d ame      -6.082  18.182  66.776  0.00  0.00    -0.075 A 
ATOM     70  H52 non d ame      -5.195  16.535  65.704  0.00  0.00     0.083 H 
ATOM     71  H53 non d ame      -5.877  18.906  65.987  0.00  0.00     0.084 H 
ENDBRANCH  58  61
ENDBRANCH  57  58
ENDBRANCH  55  57
ENDBRANCH  52  55
ENDBRANCH  49  52
ENDBRANCH  47  49
BRANCH  47  72
ATOM     72  C24 non d ame     -10.265  15.790  65.677  0.00  0.00    -0.039 C 
ATOM     73  H35 non d ame     -10.456  16.639  65.020  0.00  0.00     0.036 H 
ATOM     74  H36 non d ame      -9.321  15.251  65.610  0.00  0.00     0.036 H 
BRANCH  72  75
ATOM     75  C25 non d ame     -11.436  14.726  65.426  0.00  0.00    -0.001 C 
ATOM     76  C26 non d ame     -10.793  13.231  65.190  0.00  0.00    -0.035 C 
ATOM     77  C27 non d ame     -11.309  12.709  64.052  0.00  0.00     0.085 C 
ATOM     78  H38 non d ame      -9.728  13.312  64.974  0.00  0.00     0.036 H 
ATOM     79  H39 non d ame     -11.142  12.548  65.965  0.00  0.00     0.036 H 
ATOM     80  N5  non d ame     -11.992  13.837  63.318  0.00  0.00    -0.049 N 
ATOM     81  H40 non d ame     -10.449  12.375  63.469  0.00  0.00     0.075 H 
ATOM     82  H41 non d ame     -12.060  11.990  64.376  0.00  0.00     0.075 H 
ATOM     83  C28 non d ame     -12.137  15.038  64.387  0.00  0.00     0.193 C 
ATOM     84  H42 non d ame     -11.358  14.131  62.589  0.00  0.00     0.280 HD
ATOM     85  H43 non d ame     -12.916  13.506  63.081  0.00  0.00     0.280 HD
ATOM     86  H44 non d ame     -13.099  15.251  64.854  0.00  0.00     0.129 H 
ATOM     87  H37 non d ame     -12.236  14.811  66.161  0.00  0.00     0.046 H 
BRANCH  83  88
ATOM     88  O6  non d ame     -11.714  16.272  63.803  0.00  0.00    -0.369 OA
ATOM     89  H45 non d ame     -12.290  16.491  63.067  0.00  0.00     0.212 HD
ENDBRANCH  83  88
ENDBRANCH  72  75
ENDBRANCH  47  72
ENDBRANCH  45  47
ENDBRANCH   1  43
BRANCH   1  90
ATOM     90  C16 non d ame     -11.592  14.726  71.699  0.00  0.00    -0.035 C 
ATOM     91  H21 non d ame     -11.712  13.775  72.219  0.00  0.00     0.037 H 
ATOM     92  H22 non d ame     -10.632  15.243  71.723  0.00  0.00     0.037 H 
BRANCH  90  93
ATOM     93  C17 non d ame     -12.636  15.706  72.324  0.00  0.00    -0.059 C 
ATOM     94  H23 non d ame     -12.343  16.719  72.051  0.00  0.00     0.038 H 
BRANCH  93  95
ATOM     95  C18 non d ame     -14.077  15.461  71.772  0.00  0.00    -0.073 C 
ATOM     96  H24 non d ame     -14.590  16.417  71.660  0.00  0.00     0.028 H 
ATOM     97  H25 non d ame     -14.016  14.965  70.803  0.00  0.00     0.028 H 
ATOM     98  H26 non d ame     -14.631  14.831  72.468  0.00  0.00     0.028 H 
ENDBRANCH  93  95
BRANCH  93  99
ATOM     99  C19 non d ame     -12.617  15.622  73.853  0.00  0.00    -0.073 C 
ATOM    100  H27 non d ame     -13.341  14.878  74.185  0.00  0.00     0.028 H 
ATOM    101  H28 non d ame     -11.620  15.336  74.188  0.00  0.00     0.028 H 
ATOM    102  H29 non d ame     -12.876  16.594  74.273  0.00  0.00     0.028 H 
ENDBRANCH  93  99
ENDBRANCH  90  93
ENDBRANCH   1  90
TORSDOF 26
ENDMDL
MODEL 2
REMARK VINA RESULT:      -7.2      2.152      3.226
REMARK  26 active torsions:
REMARK  status: ('A' for Active; 'I' for Inactive)
REMARK    1  A    between atoms: C2_2  and  C3_3 
REMARK    2  A    between atoms: C4_6  and  C5_7 
REMARK       I    between atoms: C5_7  and  N2_9 
REMARK    3  A    between atoms: N2_9  and  C6_10 
REMARK    4  A    between atoms: C6_10  and  C7_11 
REMARK    5  A    between atoms: C6_10  and  C8_13 
REMARK       I    between atoms: C7_11  and  N3_14 
REMARK    6  A    between atoms: N3_14  and  C9_15 
REMARK    7  A    between atoms: C9_15  and  C10_16 
REMARK    8  A    between atoms: C9_15  and  C11_18 
REMARK       I    between atoms: C10_16  and  N4_21 
REMARK    9  A    between atoms: C11_18  and  C12_19 
REMARK   10  A    between atoms: C11_18  and  C13_20 
REMARK   11  A    between atoms: N4_21  and  C14_22 
REMARK   12  A    between atoms: C14_22  and  C15_23 
REMARK   13  A    between atoms: C14_22  and  C16_25 
REMARK       I    between atoms: C15_23  and  N6_40 
REMARK   14  A    between atoms: C16_25  and  C17_26 
REMARK   15  A    between atoms: C17_26  and  C18_27 
REMARK   16  A    between atoms: C17_26  and  C19_28 
REMARK   17  A    between atoms: C20_29  and  C21_30 
REMARK   18  A    between atoms: C20_29  and  C24_33 
REMARK   19  A    between atoms: C20_29  and  N6_40 
REMARK   20  A    between atoms: C21_30  and  C22_31 
REMARK   21  A    between atoms: C22_31  and  C23_32 
REMARK   22  A    between atoms: C23_32  and  O8_43 
REMARK   23  A    between atoms: C24_33  and  C25_34 
REMARK   24  A    between atoms: C28_38  and  O6_39 
REMARK   25  A    between atoms: C29_42  and  O8_43 
REMARK   26  A    between atoms: C29_42  and  C35_49 
ROOT
ATOM      1  C14 non d ame     -12.128  13.983  70.237  0.00  0.00     0.089 C 
ATOM      2  H20 non d ame     -13.141  14.114  69.854  0.00  0.00     0.087 H 
ENDROOT
BRANCH   1   3
ATOM      3  N4  non d ame     -11.792  12.572  70.113  0.00  0.00    -0.346 N 
ATOM      4  C10 non d ame     -12.492  11.544  70.966  0.00  0.00     0.241 C 
ATOM      5  O4  non d ame     -13.321  11.877  71.747  0.00  0.00    -0.271 OA
ATOM      6  H19 non d ame     -11.082  12.310  69.444  0.00  0.00     0.163 HD
BRANCH   4   7
ATOM      7  C9  non d ame     -12.135  10.088  70.820  0.00  0.00     0.092 C 
ATOM      8  H11 non d ame     -12.526   9.717  69.873  0.00  0.00     0.088 H 
BRANCH   7   9
ATOM      9  N3  non d ame     -10.677   9.944  70.774  0.00  0.00    -0.346 N 
ATOM     10  C7  non d ame     -10.002   9.853  69.503  0.00  0.00     0.240 C 
ATOM     11  O3  non d ame     -10.617   9.893  68.507  0.00  0.00    -0.271 OA
ATOM     12  H10 non d ame     -10.134   9.907  71.624  0.00  0.00     0.163 HD
BRANCH  10  13
ATOM     13  C6  non d ame      -8.450   9.697  69.460  0.00  0.00     0.086 C 
ATOM     14  H6  non d ame      -8.095   9.275  68.520  0.00  0.00     0.086 H 
BRANCH  13  15
ATOM     15  N2  non d ame      -7.841  11.011  69.582  0.00  0.00    -0.343 N 
ATOM     16  C5  non d ame      -7.645  11.829  68.384  0.00  0.00     0.273 C 
ATOM     17  O2  non d ame      -7.978  11.421  67.326  0.00  0.00    -0.266 OA
ATOM     18  H5  non d ame      -7.556  11.351  70.490  0.00  0.00     0.163 HD
BRANCH  16  19
ATOM     19  C4  non d ame      -7.003  13.221  68.499  0.00  0.00     0.154 A 
ATOM     20  C1  non d ame      -6.841  14.187  67.455  0.00  0.00    -0.017 A 
ATOM     21  C2  non d ame      -6.202  15.285  68.073  0.00  0.00     0.077 A 
ATOM     22  H1  non d ame      -7.140  14.104  66.411  0.00  0.00     0.091 H 
ATOM     23  O1  non d ame      -6.024  14.976  69.324  0.00  0.00    -0.218 OA
ATOM     24  N1  non d ame      -6.483  13.777  69.597  0.00  0.00    -0.123 NA
BRANCH  21  25
ATOM     25  C3  non d ame      -5.797  16.589  67.398  0.00  0.00    -0.029 C 
ATOM     26  H2  non d ame      -6.244  17.429  67.932  0.00  0.00     0.036 H 
ATOM     27  H3  non d ame      -4.712  16.685  67.414  0.00  0.00     0.036 H 
ATOM     28  H4  non d ame      -6.147  16.588  66.366  0.00  0.00     0.036 H 
ENDBRANCH  21  25
ENDBRANCH  16  19
ENDBRANCH  13  15
BRANCH  13  29
ATOM     29  C8  non d ame      -8.000   8.811  70.594  0.00  0.00    -0.049 C 
ATOM     30  H7  non d ame      -8.035   7.769  70.277  0.00  0.00     0.030 H 
ATOM     31  H8  non d ame      -6.980   9.071  70.875  0.00  0.00     0.030 H 
ATOM     32  H9  non d ame      -8.661   8.952  71.449  0.00  0.00     0.030 H 
ENDBRANCH  13  29
ENDBRANCH  10  13
ENDBRANCH   7   9
BRANCH   7  33
ATOM     33  C11 non d ame     -12.694   9.294  72.037  0.00  0.00    -0.033 C 
ATOM     34  H12 non d ame     -12.866  10.006  72.844  0.00  0.00     0.042 H 
BRANCH  33  35
ATOM     35  C12 non d ame     -14.064   8.627  71.699  0.00  0.00    -0.071 C 
ATOM     36  H13 non d ame     -14.598   9.240  70.973  0.00  0.00     0.028 H 
ATOM     37  H14 non d ame     -13.892   7.636  71.280  0.00  0.00     0.028 H 
ATOM     38  H15 non d ame     -14.659   8.539  72.608  0.00  0.00     0.028 H 
ENDBRANCH  33  35
BRANCH  33  39
ATOM     39  C13 non d ame     -11.658   8.237  72.538  0.00  0.00    -0.071 C 
ATOM     40  H16 non d ame     -10.677   8.704  72.628  0.00  0.00     0.028 H 
ATOM     41  H17 non d ame     -11.969   7.855  73.511  0.00  0.00     0.028 H 
ATOM     42  H18 non d ame     -11.605   7.414  71.825  0.00  0.00     0.028 H 
ENDBRANCH  33  39
ENDBRANCH   7  33
ENDBRANCH   4   7
ENDBRANCH   1   3
BRANCH   1  43
ATOM     43  C15 non d ame     -11.086  14.813  69.435  0.00  0.00     0.240 C 
ATOM     44  O5  non d ame     -10.171  15.318  70.001  0.00  0.00    -0.271 OA
ATOM     45  N6  non d ame     -11.223  14.971  67.959  0.00  0.00    -0.355 N 
ATOM     46  H46 non d ame     -11.993  14.543  67.467  0.00  0.00     0.162 HD
BRANCH  45  47
ATOM     47  C20 non d ame     -10.222  15.762  67.211  0.00  0.00     0.013 C 
ATOM     48  H30 non d ame      -9.241  15.551  67.636  0.00  0.00     0.072 H 
BRANCH  47  49
ATOM     49  C21 non d ame     -10.540  17.234  67.354  0.00  0.00    -0.038 C 
ATOM     50  H31 non d ame     -11.601  17.330  67.122  0.00  0.00     0.036 H 
ATOM     51  H32 non d ame     -10.169  17.521  68.338  0.00  0.00     0.036 H 
BRANCH  49  52
ATOM     52  C22 non d ame      -9.788  18.112  66.330  0.00  0.00     0.018 C 
ATOM     53  H33 non d ame      -8.822  17.629  66.179  0.00  0.00     0.048 H 
ATOM     54  H34 non d ame     -10.472  18.236  65.490  0.00  0.00     0.048 H 
BRANCH  52  55
ATOM     55  C23 non d ame      -9.476  19.544  66.844  0.00  0.00     0.259 C 
ATOM     56  O7  non d ame     -10.320  20.381  66.850  0.00  0.00    -0.265 OA
BRANCH  55  57
ATOM     57  O8  non d ame      -8.162  19.851  67.296  0.00  0.00    -0.317 OA
BRANCH  57  58
ATOM     58  C29 non d ame      -7.928  19.526  68.669  0.00  0.00     0.052 C 
ATOM     59  H47 non d ame      -8.505  20.248  69.246  0.00  0.00     0.082 H 
ATOM     60  H48 non d ame      -8.141  18.461  68.760  0.00  0.00     0.082 H 
BRANCH  58  61
ATOM     61  C35 non d ame      -6.421  19.752  68.964  0.00  0.00    -0.034 A 
ATOM     62  C30 non d ame      -5.851  19.226  70.119  0.00  0.00    -0.075 A 
ATOM     63  C31 non d ame      -4.498  19.429  70.385  0.00  0.00    -0.082 A 
ATOM     64  H49 non d ame      -6.464  18.653  70.815  0.00  0.00     0.084 H 
ATOM     65  C32 non d ame      -3.714  20.165  69.492  0.00  0.00    -0.083 A 
ATOM     66  H50 non d ame      -4.054  19.013  71.289  0.00  0.00     0.083 H 
ATOM     67  C33 non d ame      -4.289  20.691  68.343  0.00  0.00    -0.082 A 
ATOM     68  H51 non d ame      -2.655  20.328  69.692  0.00  0.00     0.083 H 
ATOM     69  C34 non d ame      -5.640  20.489  68.072  0.00  0.00    -0.075 A 
ATOM     70  H52 non d ame      -3.675  21.267  67.649  0.00  0.00     0.083 H 
ATOM     71  H53 non d ame      -6.083  20.904  67.167  0.00  0.00     0.084 H 
ENDBRANCH  58  61
ENDBRANCH  57  58
ENDBRANCH  55  57
ENDBRANCH  52  55
ENDBRANCH  49  52
ENDBRANCH  47  49
BRANCH  47  72
ATOM     72  C24 non d ame     -10.256  15.374  65.734  0.00  0.00    -0.039 C 
ATOM     73  H35 non d ame     -10.366  16.313  65.190  0.00  0.00     0.036 H 
ATOM     74  H36 non d ame      -9.374  14.754  65.577  0.00  0.00     0.036 H 
BRANCH  72  75
ATOM     75  C25 non d ame     -11.535  14.474  65.387  0.00  0.00    -0.001 C 
ATOM     76  C26 non d ame     -11.060  12.941  65.027  0.00  0.00    -0.035 C 
ATOM     77  C27 non d ame     -11.614  12.579  63.846  0.00  0.00     0.085 C 
ATOM     78  H38 non d ame      -9.990  12.920  64.824  0.00  0.00     0.036 H 
ATOM     79  H39 non d ame     -11.494  12.238  65.739  0.00  0.00     0.036 H 
ATOM     80  N5  non d ame     -12.157  13.835  63.208  0.00  0.00    -0.049 N 
ATOM     81  H40 non d ame     -10.789  12.201  63.240  0.00  0.00     0.075 H 
ATOM     82  H41 non d ame     -12.446  11.924  64.103  0.00  0.00     0.075 H 
ATOM     83  C28 non d ame     -12.181  14.950  64.376  0.00  0.00     0.193 C 
ATOM     84  H42 non d ame     -11.483  14.116  62.510  0.00  0.00     0.280 HD
ATOM     85  H43 non d ame     -13.109  13.632  62.939  0.00  0.00     0.280 HD
ATOM     86  H44 non d ame     -13.120  15.230  64.855  0.00  0.00     0.129 H 
ATOM     87  H37 non d ame     -12.331  14.586  66.123  0.00  0.00     0.046 H 
BRANCH  83  88
ATOM     88  O6  non d ame     -11.615  16.173  63.902  0.00  0.00    -0.369 OA
ATOM     89  H45 non d ame     -12.123  16.913  64.241  0.00  0.00     0.212 HD
ENDBRANCH  83  88
ENDBRANCH  72  75
ENDBRANCH  47  72
ENDBRANCH  45  47
ENDBRANCH   1  43
BRANCH   1  90
ATOM     90  C16 non d ame     -12.077  14.378  71.704  0.00  0.00    -0.035 C 
ATOM     91  H21 non d ame     -12.409  13.496  72.253  0.00  0.00     0.037 H 
ATOM     92  H22 non d ame     -11.073  14.772  71.862  0.00  0.00     0.037 H 
BRANCH  90  93
ATOM     93  C17 non d ame     -13.066  15.528  72.078  0.00  0.00    -0.059 C 
ATOM     94  H23 non d ame     -12.788  16.406  71.496  0.00  0.00     0.038 H 
BRANCH  93  95
ATOM     95  C18 non d ame     -14.546  15.171  71.725  0.00  0.00    -0.073 C 
ATOM     96  H24 non d ame     -15.203  15.523  72.519  0.00  0.00     0.028 H 
ATOM     97  H25 non d ame     -14.820  15.650  70.785  0.00  0.00     0.028 H 
ATOM     98  H26 non d ame     -14.644  14.090  71.624  0.00  0.00     0.028 H 
ENDBRANCH  93  95
BRANCH  93  99
ATOM     99  C19 non d ame     -12.934  15.903  73.557  0.00  0.00    -0.073 C 
ATOM    100  H27 non d ame     -13.654  15.330  74.143  0.00  0.00     0.028 H 
ATOM    101  H28 non d ame     -11.924  15.677  73.900  0.00  0.00     0.028 H 
ATOM    102  H29 non d ame     -13.130  16.967  73.681  0.00  0.00     0.028 H 
ENDBRANCH  93  99
ENDBRANCH  90  93
ENDBRANCH   1  90
TORSDOF 26
ENDMDL
MODEL 3
REMARK VINA RESULT:      -7.1      2.389      6.929
REMARK  26 active torsions:
REMARK  status: ('A' for Active; 'I' for Inactive)
REMARK    1  A    between atoms: C2_2  and  C3_3 
REMARK    2  A    between atoms: C4_6  and  C5_7 
REMARK       I    between atoms: C5_7  and  N2_9 
REMARK    3  A    between atoms: N2_9  and  C6_10 
REMARK    4  A    between atoms: C6_10  and  C7_11 
REMARK    5  A    between atoms: C6_10  and  C8_13 
REMARK       I    between atoms: C7_11  and  N3_14 
REMARK    6  A    between atoms: N3_14  and  C9_15 
REMARK    7  A    between atoms: C9_15  and  C10_16 
REMARK    8  A    between atoms: C9_15  and  C11_18 
REMARK       I    between atoms: C10_16  and  N4_21 
REMARK    9  A    between atoms: C11_18  and  C12_19 
REMARK   10  A    between atoms: C11_18  and  C13_20 
REMARK   11  A    between atoms: N4_21  and  C14_22 
REMARK   12  A    between atoms: C14_22  and  C15_23 
REMARK   13  A    between atoms: C14_22  and  C16_25 
REMARK       I    between atoms: C15_23  and  N6_40 
REMARK   14  A    between atoms: C16_25  and  C17_26 
REMARK   15  A    between atoms: C17_26  and  C18_27 
REMARK   16  A    between atoms: C17_26  and  C19_28 
REMARK   17  A    between atoms: C20_29  and  C21_30 
REMARK   18  A    between atoms: C20_29  and  C24_33 
REMARK   19  A    between atoms: C20_29  and  N6_40 
REMARK   20  A    between atoms: C21_30  and  C22_31 
REMARK   21  A    between atoms: C22_31  and  C23_32 
REMARK   22  A    between atoms: C23_32  and  O8_43 
REMARK   23  A    between atoms: C24_33  and  C25_34 
REMARK   24  A    between atoms: C28_38  and  O6_39 
REMARK   25  A    between atoms: C29_42  and  O8_43 
REMARK   26  A    between atoms: C29_42  and  C35_49 
ROOT
ATOM      1  C14 non d ame      -9.902  12.042  65.478  0.00  0.00     0.089 C 
ATOM      2  H20 non d ame      -9.873  12.417  64.455  0.00  0.00     0.087 H 
ENDROOT
BRANCH   1   3
ATOM      3  N4  non d ame      -9.134  10.807  65.515  0.00  0.00    -0.346 N 
ATOM      4  C10 non d ame      -9.101   9.895  64.315  0.00  0.00     0.241 C 
ATOM      5  O4  non d ame      -9.703  10.175  63.331  0.00  0.00    -0.271 OA
ATOM      6  H19 non d ame      -8.631  10.585  66.362  0.00  0.00     0.163 HD
BRANCH   4   7
ATOM      7  C9  non d ame      -8.297   8.622  64.368  0.00  0.00     0.092 C 
ATOM      8  H11 non d ame      -7.357   8.814  64.885  0.00  0.00     0.088 H 
BRANCH   7   9
ATOM      9  N3  non d ame      -9.024   7.617  65.149  0.00  0.00    -0.346 N 
ATOM     10  C7  non d ame      -8.715   7.427  66.545  0.00  0.00     0.240 C 
ATOM     11  O3  non d ame      -7.884   8.074  67.055  0.00  0.00    -0.271 OA
ATOM     12  H10 non d ame      -9.742   7.050  64.722  0.00  0.00     0.163 HD
BRANCH  10  13
ATOM     13  C6  non d ame      -9.490   6.353  67.370  0.00  0.00     0.086 C 
ATOM     14  H6  non d ame      -8.846   5.802  68.055  0.00  0.00     0.086 H 
BRANCH  13  15
ATOM     15  N2  non d ame     -10.493   7.018  68.185  0.00  0.00    -0.343 N 
ATOM     16  C5  non d ame     -10.210   7.292  69.596  0.00  0.00     0.273 C 
ATOM     17  O2  non d ame      -9.173   6.971  70.065  0.00  0.00    -0.266 OA
ATOM     18  H5  non d ame     -11.377   7.286  67.776  0.00  0.00     0.163 HD
BRANCH  16  19
ATOM     19  C4  non d ame     -11.260   7.996  70.469  0.00  0.00     0.154 A 
ATOM     20  C1  non d ame     -11.520   9.401  70.546  0.00  0.00    -0.017 A 
ATOM     21  C2  non d ame     -12.569   9.526  71.483  0.00  0.00     0.077 A 
ATOM     22  H1  non d ame     -11.023  10.207  70.004  0.00  0.00     0.091 H 
ATOM     23  O1  non d ame     -12.870   8.328  71.890  0.00  0.00    -0.218 OA
ATOM     24  N1  non d ame     -12.120   7.418  71.312  0.00  0.00    -0.123 NA
BRANCH  21  25
ATOM     25  C3  non d ame     -13.227  10.824  71.933  0.00  0.00    -0.029 C 
ATOM     26  H2  non d ame     -13.333  10.821  73.018  0.00  0.00     0.036 H 
ATOM     27  H3  non d ame     -12.607  11.669  71.631  0.00  0.00     0.036 H 
ATOM     28  H4  non d ame     -14.211  10.913  71.471  0.00  0.00     0.036 H 
ENDBRANCH  21  25
ENDBRANCH  16  19
ENDBRANCH  13  15
BRANCH  13  29
ATOM     29  C8  non d ame     -10.152   5.376  66.432  0.00  0.00    -0.049 C 
ATOM     30  H7  non d ame     -11.209   5.290  66.683  0.00  0.00     0.030 H 
ATOM     31  H8  non d ame     -10.050   5.731  65.406  0.00  0.00     0.030 H 
ATOM     32  H9  non d ame      -9.676   4.401  66.529  0.00  0.00     0.030 H 
ENDBRANCH  13  29
ENDBRANCH  10  13
ENDBRANCH   7   9
BRANCH   7  33
ATOM     33  C11 non d ame      -8.072   8.090  62.923  0.00  0.00    -0.033 C 
ATOM     34  H12 non d ame      -8.937   8.381  62.327  0.00  0.00     0.042 H 
BRANCH  33  35
ATOM     35  C12 non d ame      -6.812   8.737  62.268  0.00  0.00    -0.071 C 
ATOM     36  H13 non d ame      -6.887   8.661  61.183  0.00  0.00     0.028 H 
ATOM     37  H14 non d ame      -6.752   9.786  62.555  0.00  0.00     0.028 H 
ATOM     38  H15 non d ame      -5.918   8.215  62.608  0.00  0.00     0.028 H 
ENDBRANCH  33  35
BRANCH  33  39
ATOM     39  C13 non d ame      -7.980   6.530  62.909  0.00  0.00    -0.071 C 
ATOM     40  H16 non d ame      -7.377   6.209  62.060  0.00  0.00     0.028 H 
ATOM     41  H17 non d ame      -7.517   6.185  63.835  0.00  0.00     0.028 H 
ATOM     42  H18 non d ame      -8.981   6.108  62.825  0.00  0.00     0.028 H 
ENDBRANCH  33  39
ENDBRANCH   7  33
ENDBRANCH   4   7
ENDBRANCH   1   3
BRANCH   1  43
ATOM     43  C15 non d ame      -9.274  13.046  66.488  0.00  0.00     0.240 C 
ATOM     44  O5  non d ame      -9.156  12.739  67.630  0.00  0.00    -0.271 OA
ATOM     45  N6  non d ame      -8.812  14.387  66.029  0.00  0.00    -0.355 N 
ATOM     46  H46 non d ame      -8.903  14.657  65.061  0.00  0.00     0.162 HD
BRANCH  45  47
ATOM     47  C20 non d ame      -8.216  15.328  67.001  0.00  0.00     0.013 C 
ATOM     48  H30 non d ame      -8.950  15.510  67.786  0.00  0.00     0.072 H 
BRANCH  47  49
ATOM     49  C21 non d ame      -7.879  16.624  66.299  0.00  0.00    -0.038 C 
ATOM     50  H31 non d ame      -6.807  16.765  66.439  0.00  0.00     0.036 H 
ATOM     51  H32 non d ame      -8.290  16.530  65.294  0.00  0.00     0.036 H 
BRANCH  49  52
ATOM     52  C22 non d ame      -8.567  17.849  66.939  0.00  0.00     0.018 C 
ATOM     53  H33 non d ame      -8.425  17.740  68.015  0.00  0.00     0.048 H 
ATOM     54  H34 non d ame      -8.162  18.720  66.422  0.00  0.00     0.048 H 
BRANCH  52  55
ATOM     55  C23 non d ame     -10.104  17.894  66.712  0.00  0.00     0.259 C 
ATOM     56  O7  non d ame     -10.549  18.007  65.616  0.00  0.00    -0.265 OA
BRANCH  55  57
ATOM     57  O8  non d ame     -10.976  17.811  67.833  0.00  0.00    -0.317 OA
BRANCH  57  58
ATOM     58  C29 non d ame     -10.332  17.406  69.044  0.00  0.00     0.052 C 
ATOM     59  H47 non d ame      -9.335  17.078  68.752  0.00  0.00     0.082 H 
ATOM     60  H48 non d ame     -10.450  18.241  69.734  0.00  0.00     0.082 H 
BRANCH  58  61
ATOM     61  C35 non d ame     -11.104  16.186  69.612  0.00  0.00    -0.034 A 
ATOM     62  C30 non d ame     -11.409  15.108  68.786  0.00  0.00    -0.075 A 
ATOM     63  C31 non d ame     -12.103  14.012  69.297  0.00  0.00    -0.082 A 
ATOM     64  H49 non d ame     -11.104  15.123  67.740  0.00  0.00     0.084 H 
ATOM     65  C32 non d ame     -12.495  13.997  70.638  0.00  0.00    -0.083 A 
ATOM     66  H50 non d ame     -12.338  13.169  68.648  0.00  0.00     0.083 H 
ATOM     67  C33 non d ame     -12.191  15.076  71.457  0.00  0.00    -0.082 A 
ATOM     68  H51 non d ame     -13.037  13.144  71.045  0.00  0.00     0.083 H 
ATOM     69  C34 non d ame     -11.496  16.172  70.952  0.00  0.00    -0.075 A 
ATOM     70  H52 non d ame     -12.500  15.062  72.503  0.00  0.00     0.083 H 
ATOM     71  H53 non d ame     -11.260  17.016  71.602  0.00  0.00     0.084 H 
ENDBRANCH  58  61
ENDBRANCH  57  58
ENDBRANCH  55  57
ENDBRANCH  52  55
ENDBRANCH  49  52
ENDBRANCH  47  49
BRANCH  47  72
ATOM     72  C24 non d ame      -6.945  14.724  67.594  0.00  0.00    -0.039 C 
ATOM     73  H35 non d ame      -7.186  13.679  67.794  0.00  0.00     0.036 H 
ATOM     74  H36 non d ame      -6.150  14.974  66.892  0.00  0.00     0.036 H 
BRANCH  72  75
ATOM     75  C25 non d ame      -6.566  15.398  68.997  0.00  0.00    -0.001 C 
ATOM     76  C26 non d ame      -5.072  16.078  68.906  0.00  0.00    -0.035 C 
ATOM     77  C27 non d ame      -4.327  15.635  69.948  0.00  0.00     0.085 C 
ATOM     78  H38 non d ame      -4.541  15.697  68.034  0.00  0.00     0.036 H 
ATOM     79  H39 non d ame      -5.138  17.152  69.079  0.00  0.00     0.036 H 
ATOM     80  N5  non d ame      -5.066  14.467  70.554  0.00  0.00    -0.049 N 
ATOM     81  H40 non d ame      -3.395  15.277  69.509  0.00  0.00     0.075 H 
ATOM     82  H41 non d ame      -4.312  16.456  70.664  0.00  0.00     0.075 H 
ATOM     83  C28 non d ame      -6.562  14.525  69.949  0.00  0.00     0.193 C 
ATOM     84  H42 non d ame      -4.613  13.632  70.212  0.00  0.00     0.280 HD
ATOM     85  H43 non d ame      -5.115  14.644  71.548  0.00  0.00     0.280 HD
ATOM     86  H44 non d ame      -7.391  14.890  70.555  0.00  0.00     0.129 H 
ATOM     87  H37 non d ame      -7.372  16.021  69.386  0.00  0.00     0.046 H 
BRANCH  83  88
ATOM     88  O6  non d ame      -6.960  13.230  69.495  0.00  0.00    -0.369 OA
ATOM     89  H45 non d ame      -7.909  13.220  69.350  0.00  0.00     0.212 HD
ENDBRANCH  83  88
ENDBRANCH  72  75
ENDBRANCH  47  72
ENDBRANCH  45  47
ENDBRANCH   1  43
BRANCH   1  90
ATOM     90  C16 non d ame     -11.338  11.746  65.878  0.00  0.00    -0.035 C 
ATOM     91  H21 non d ame     -11.485  10.687  65.665  0.00  0.00     0.037 H 
ATOM     92  H22 non d ame     -11.436  12.115  66.899  0.00  0.00     0.037 H 
BRANCH  90  93
ATOM     93  C17 non d ame     -12.397  12.517  65.027  0.00  0.00    -0.059 C 
ATOM     94  H23 non d ame     -13.330  11.956  65.072  0.00  0.00     0.038 H 
BRANCH  93  95
ATOM     95  C18 non d ame     -12.676  13.949  65.589  0.00  0.00    -0.073 C 
ATOM     96  H24 non d ame     -13.450  13.894  66.353  0.00  0.00     0.028 H 
ATOM     97  H25 non d ame     -11.761  14.352  66.025  0.00  0.00     0.028 H 
ATOM     98  H26 non d ame     -13.008  14.598  64.779  0.00  0.00     0.028 H 
ENDBRANCH  93  95
BRANCH  93  99
ATOM     99  C19 non d ame     -11.975  12.582  63.557  0.00  0.00    -0.073 C 
ATOM    100  H27 non d ame     -12.453  13.437  63.079  0.00  0.00     0.028 H 
ATOM    101  H28 non d ame     -10.892  12.688  63.494  0.00  0.00     0.028 H 
ATOM    102  H29 non d ame     -12.279  11.666  63.051  0.00  0.00     0.028 H 
ENDBRANCH  93  99
ENDBRANCH  90  93
ENDBRANCH   1  90
TORSDOF 26
ENDMDL
MODEL 4
REMARK VINA RESULT:      -7.0      2.545      7.926
REMARK  26 active torsions:
REMARK  status: ('A' for Active; 'I' for Inactive)
REMARK    1  A    between atoms: C2_2  and  C3_3 
REMARK    2  A    between atoms: C4_6  and  C5_7 
REMARK       I    between atoms: C5_7  and  N2_9 
REMARK    3  A    between atoms: N2_9  and  C6_10 
REMARK    4  A    between atoms: C6_10  and  C7_11 
REMARK    5  A    between atoms: C6_10  and  C8_13 
REMARK       I    between atoms: C7_11  and  N3_14 
REMARK    6  A    between atoms: N3_14  and  C9_15 
REMARK    7  A    between atoms: C9_15  and  C10_16 
REMARK    8  A    between atoms: C9_15  and  C11_18 
REMARK       I    between atoms: C10_16  and  N4_21 
REMARK    9  A    between atoms: C11_18  and  C12_19 
REMARK   10  A    between atoms: C11_18  and  C13_20 
REMARK   11  A    between atoms: N4_21  and  C14_22 
REMARK   12  A    between atoms: C14_22  and  C15_23 
REMARK   13  A    between atoms: C14_22  and  C16_25 
REMARK       I    between atoms: C15_23  and  N6_40 
REMARK   14  A    between atoms: C16_25  and  C17_26 
REMARK   15  A    between atoms: C17_26  and  C18_27 
REMARK   16  A    between atoms: C17_26  and  C19_28 
REMARK   17  A    between atoms: C20_29  and  C21_30 
REMARK   18  A    between atoms: C20_29  and  C24_33 
REMARK   19  A    between atoms: C20_29  and  N6_40 
REMARK   20  A    between atoms: C21_30  and  C22_31 
REMARK   21  A    between atoms: C22_31  and  C23_32 
REMARK   22  A    between atoms: C23_32  and  O8_43 
REMARK   23  A    between atoms: C24_33  and  C25_34 
REMARK   24  A    between atoms: C28_38  and  O6_39 
REMARK   25  A    between atoms: C29_42  and  O8_43 
REMARK   26  A    between atoms: C29_42  and  C35_49 
ROOT
ATOM      1  C14 non d ame      -5.575  13.895  69.000  0.00  0.00     0.089 C 
ATOM      2  H20 non d ame      -4.526  13.874  68.703  0.00  0.00     0.087 H 
ENDROOT
BRANCH   1   3
ATOM      3  N4  non d ame      -6.077  15.236  68.740  0.00  0.00    -0.346 N 
ATOM      4  C10 non d ame      -5.327  16.165  67.820  0.00  0.00     0.241 C 
ATOM      5  O4  non d ame      -4.319  15.813  67.302  0.00  0.00    -0.271 OA
ATOM      6  H19 non d ame      -6.936  15.517  69.192  0.00  0.00     0.163 HD
BRANCH   4   7
ATOM      7  C9  non d ame      -5.865  17.548  67.558  0.00  0.00     0.092 C 
ATOM      8  H11 non d ame      -5.585  17.856  66.551  0.00  0.00     0.088 H 
BRANCH   7   9
ATOM      9  N3  non d ame      -7.329  17.521  67.613  0.00  0.00    -0.346 N 
ATOM     10  C7  non d ame      -8.101  17.933  66.466  0.00  0.00     0.240 C 
ATOM     11  O3  non d ame      -7.559  18.290  65.492  0.00  0.00    -0.271 OA
ATOM     12  H10 non d ame      -7.811  17.218  68.447  0.00  0.00     0.163 HD
BRANCH  10  13
ATOM     13  C6  non d ame      -9.659  17.906  66.531  0.00  0.00     0.086 C 
ATOM     14  H6  non d ame     -10.125  18.483  65.733  0.00  0.00     0.086 H 
BRANCH  13  15
ATOM     15  N2  non d ame     -10.114  16.535  66.373  0.00  0.00    -0.343 N 
ATOM     16  C5  non d ame     -10.879  16.162  65.181  0.00  0.00     0.273 C 
ATOM     17  O2  non d ame     -11.126  16.973  64.357  0.00  0.00    -0.266 OA
ATOM     18  H5  non d ame      -9.901  15.849  67.083  0.00  0.00     0.163 HD
BRANCH  16  19
ATOM     19  C4  non d ame     -11.364  14.715  64.999  0.00  0.00     0.154 A 
ATOM     20  C1  non d ame     -10.655  13.636  64.383  0.00  0.00    -0.017 A 
ATOM     21  C2  non d ame     -11.529  12.529  64.470  0.00  0.00     0.077 A 
ATOM     22  H1  non d ame      -9.659  13.653  63.940  0.00  0.00     0.091 H 
ATOM     23  O1  non d ame     -12.610  12.936  65.070  0.00  0.00    -0.218 OA
ATOM     24  N1  non d ame     -12.538  14.208  65.388  0.00  0.00    -0.123 NA
BRANCH  21  25
ATOM     25  C3  non d ame     -11.256  11.121  63.958  0.00  0.00    -0.029 C 
ATOM     26  H2  non d ame     -10.612  11.172  63.080  0.00  0.00     0.036 H 
ATOM     27  H3  non d ame     -10.761  10.541  64.738  0.00  0.00     0.036 H 
ATOM     28  H4  non d ame     -12.198  10.642  63.691  0.00  0.00     0.036 H 
ENDBRANCH  21  25
ENDBRANCH  16  19
ENDBRANCH  13  15
BRANCH  13  29
ATOM     29  C8  non d ame     -10.119  18.452  67.859  0.00  0.00    -0.049 C 
ATOM     30  H7  non d ame      -9.704  17.846  68.665  0.00  0.00     0.030 H 
ATOM     31  H8  non d ame      -9.778  19.482  67.966  0.00  0.00     0.030 H 
ATOM     32  H9  non d ame     -11.207  18.423  67.907  0.00  0.00     0.030 H 
ENDBRANCH  13  29
ENDBRANCH  10  13
ENDBRANCH   7   9
BRANCH   7  33
ATOM     33  C11 non d ame      -5.325  18.528  68.641  0.00  0.00    -0.033 C 
ATOM     34  H12 non d ame      -4.238  18.458  68.635  0.00  0.00     0.042 H 
BRANCH  33  35
ATOM     35  C12 non d ame      -5.702  20.005  68.309  0.00  0.00    -0.071 C 
ATOM     36  H13 non d ame      -6.753  20.174  68.546  0.00  0.00     0.028 H 
ATOM     37  H14 non d ame      -5.084  20.679  68.901  0.00  0.00     0.028 H 
ATOM     38  H15 non d ame      -5.534  20.193  67.249  0.00  0.00     0.028 H 
ENDBRANCH  33  35
BRANCH  33  39
ATOM     39  C13 non d ame      -5.828  18.121  70.063  0.00  0.00    -0.071 C 
ATOM     40  H16 non d ame      -6.765  17.573  69.975  0.00  0.00     0.028 H 
ATOM     41  H17 non d ame      -5.082  17.488  70.545  0.00  0.00     0.028 H 
ATOM     42  H18 non d ame      -5.986  19.017  70.663  0.00  0.00     0.028 H 
ENDBRANCH  33  39
ENDBRANCH   7  33
ENDBRANCH   4   7
ENDBRANCH   1   3
BRANCH   1  43
ATOM     43  C15 non d ame      -6.434  12.879  68.193  0.00  0.00     0.240 C 
ATOM     44  O5  non d ame      -6.165  12.647  67.059  0.00  0.00    -0.271 OA
ATOM     45  N6  non d ame      -7.587  12.188  68.838  0.00  0.00    -0.355 N 
ATOM     46  H46 non d ame      -7.822  12.374  69.802  0.00  0.00     0.162 HD
BRANCH  45  47
ATOM     47  C20 non d ame      -8.393  11.224  68.057  0.00  0.00     0.013 C 
ATOM     48  H30 non d ame      -7.749  10.792  67.291  0.00  0.00     0.072 H 
BRANCH  47  49
ATOM     49  C21 non d ame      -9.551  11.950  67.410  0.00  0.00    -0.038 C 
ATOM     50  H31 non d ame      -9.175  12.309  66.452  0.00  0.00     0.036 H 
ATOM     51  H32 non d ame     -10.389  11.252  67.441  0.00  0.00     0.036 H 
BRANCH  49  52
ATOM     52  C22 non d ame      -9.993  13.199  68.202  0.00  0.00     0.018 C 
ATOM     53  H33 non d ame      -9.291  13.287  69.031  0.00  0.00     0.048 H 
ATOM     54  H34 non d ame     -10.073  14.001  67.468  0.00  0.00     0.048 H 
BRANCH  52  55
ATOM     55  C23 non d ame     -11.401  13.067  68.846  0.00  0.00     0.259 C 
ATOM     56  O7  non d ame     -11.686  12.105  69.482  0.00  0.00    -0.265 OA
BRANCH  55  57
ATOM     57  O8  non d ame     -12.355  14.105  68.655  0.00  0.00    -0.317 OA
BRANCH  57  58
ATOM     58  C29 non d ame     -11.934  15.380  69.149  0.00  0.00     0.052 C 
ATOM     59  H47 non d ame     -10.845  15.339  69.181  0.00  0.00     0.082 H 
ATOM     60  H48 non d ame     -12.433  16.119  68.523  0.00  0.00     0.082 H 
BRANCH  58  61
ATOM     61  C35 non d ame     -12.462  15.530  70.601  0.00  0.00    -0.034 A 
ATOM     62  C30 non d ame     -13.754  15.122  70.917  0.00  0.00    -0.075 A 
ATOM     63  C31 non d ame     -14.229  15.257  72.221  0.00  0.00    -0.082 A 
ATOM     64  H49 non d ame     -14.394  14.697  70.144  0.00  0.00     0.084 H 
ATOM     65  C32 non d ame     -13.407  15.804  73.210  0.00  0.00    -0.083 A 
ATOM     66  H50 non d ame     -15.241  14.934  72.466  0.00  0.00     0.083 H 
ATOM     67  C33 non d ame     -12.120  16.213  72.888  0.00  0.00    -0.082 A 
ATOM     68  H51 non d ame     -13.770  15.913  74.232  0.00  0.00     0.083 H 
ATOM     69  C34 non d ame     -11.640  16.078  71.587  0.00  0.00    -0.075 A 
ATOM     70  H52 non d ame     -11.482  16.642  73.662  0.00  0.00     0.083 H 
ATOM     71  H53 non d ame     -10.628  16.400  71.343  0.00  0.00     0.084 H 
ENDBRANCH  58  61
ENDBRANCH  57  58
ENDBRANCH  55  57
ENDBRANCH  52  55
ENDBRANCH  49  52
ENDBRANCH  47  49
BRANCH  47  72
ATOM     72  C24 non d ame      -8.927  10.131  68.981  0.00  0.00    -0.039 C 
ATOM     73  H35 non d ame      -8.215  10.074  69.805  0.00  0.00     0.036 H 
ATOM     74  H36 non d ame      -9.966  10.399  69.176  0.00  0.00     0.036 H 
BRANCH  72  75
ATOM     75  C25 non d ame      -8.934   8.700  68.262  0.00  0.00    -0.001 C 
ATOM     76  C26 non d ame      -8.172   8.799  66.808  0.00  0.00    -0.035 C 
ATOM     77  C27 non d ame      -8.978   8.271  65.856  0.00  0.00     0.085 C 
ATOM     78  H38 non d ame      -8.073   9.842  66.509  0.00  0.00     0.036 H 
ATOM     79  H39 non d ame      -7.301   8.143  66.797  0.00  0.00     0.036 H 
ATOM     80  N5  non d ame     -10.348   8.120  66.472  0.00  0.00    -0.049 N 
ATOM     81  H40 non d ame      -9.025   9.021  65.065  0.00  0.00     0.075 H 
ATOM     82  H41 non d ame      -8.572   7.282  65.647  0.00  0.00     0.075 H 
ATOM     83  C28 non d ame     -10.140   8.281  68.065  0.00  0.00     0.193 C 
ATOM     84  H42 non d ame     -10.899   8.898  66.139  0.00  0.00     0.280 HD
ATOM     85  H43 non d ame     -10.645   7.173  66.281  0.00  0.00     0.280 HD
ATOM     86  H44 non d ame     -10.156   7.408  68.717  0.00  0.00     0.129 H 
ATOM     87  H37 non d ame      -8.620   7.900  68.933  0.00  0.00     0.046 H 
BRANCH  83  88
ATOM     88  O6  non d ame     -11.115   9.177  68.601  0.00  0.00    -0.369 OA
ATOM     89  H45 non d ame     -10.746   9.636  69.359  0.00  0.00     0.212 HD
ENDBRANCH  83  88
ENDBRANCH  72  75
ENDBRANCH  47  72
ENDBRANCH  45  47
ENDBRANCH   1  43
BRANCH   1  90
ATOM     90  C16 non d ame      -5.696  13.599  70.486  0.00  0.00    -0.035 C 
ATOM     91  H21 non d ame      -5.896  14.562  70.957  0.00  0.00     0.037 H 
ATOM     92  H22 non d ame      -6.426  12.793  70.562  0.00  0.00     0.037 H 
BRANCH  90  93
ATOM     93  C17 non d ame      -4.377  13.061  71.127  0.00  0.00    -0.059 C 
ATOM     94  H23 non d ame      -4.152  13.682  71.994  0.00  0.00     0.038 H 
BRANCH  93  95
ATOM     95  C18 non d ame      -4.522  11.586  71.623  0.00  0.00    -0.073 C 
ATOM     96  H24 non d ame      -3.879  11.430  72.489  0.00  0.00     0.028 H 
ATOM     97  H25 non d ame      -5.559  11.397  71.901  0.00  0.00     0.028 H 
ATOM     98  H26 non d ame      -4.229  10.904  70.824  0.00  0.00     0.028 H 
ENDBRANCH  93  95
BRANCH  93  99
ATOM     99  C19 non d ame      -3.202  13.195  70.155  0.00  0.00    -0.073 C 
ATOM    100  H27 non d ame      -2.426  13.814  70.606  0.00  0.00     0.028 H 
ATOM    101  H28 non d ame      -2.797  12.207  69.935  0.00  0.00     0.028 H 
ATOM    102  H29 non d ame      -3.546  13.660  69.231  0.00  0.00     0.028 H 
ENDBRANCH  93  99
ENDBRANCH  90  93
ENDBRANCH   1  90
TORSDOF 26
ENDMDL
MODEL 5
REMARK VINA RESULT:      -7.0      2.517      9.014
REMARK  26 active torsions:
REMARK  status: ('A' for Active; 'I' for Inactive)
REMARK    1  A    between atoms: C2_2  and  C3_3 
REMARK    2  A    between atoms: C4_6  and  C5_7 
REMARK       I    between atoms: C5_7  and  N2_9 
REMARK    3  A    between atoms: N2_9  and  C6_10 
REMARK    4  A    between atoms: C6_10  and  C7_11 
REMARK    5  A    between atoms: C6_10  and  C8_13 
REMARK       I    between atoms: C7_11  and  N3_14 
REMARK    6  A    between atoms: N3_14  and  C9_15 
REMARK    7  A    between atoms: C9_15  and  C10_16 
REMARK    8  A    between atoms: C9_15  and  C11_18 
REMARK       I    between atoms: C10_16  and  N4_21 
REMARK    9  A    between atoms: C11_18  and  C12_19 
REMARK   10  A    between atoms: C11_18  and  C13_20 
REMARK   11  A    between atoms: N4_21  and  C14_22 
REMARK   12  A    between atoms: C14_22  and  C15_23 
REMARK   13  A    between atoms: C14_22  and  C16_25 
REMARK       I    between atoms: C15_23  and  N6_40 
REMARK   14  A    between atoms: C16_25  and  C17_26 
REMARK   15  A    between atoms: C17_26  and  C18_27 
REMARK   16  A    between atoms: C17_26  and  C19_28 
REMARK   17  A    between atoms: C20_29  and  C21_30 
REMARK   18  A    between atoms: C20_29  and  C24_33 
REMARK   19  A    between atoms: C20_29  and  N6_40 
REMARK   20  A    between atoms: C21_30  and  C22_31 
REMARK   21  A    between atoms: C22_31  and  C23_32 
REMARK   22  A    between atoms: C23_32  and  O8_43 
REMARK   23  A    between atoms: C24_33  and  C25_34 
REMARK   24  A    between atoms: C28_38  and  O6_39 
REMARK   25  A    between atoms: C29_42  and  O8_43 
REMARK   26  A    between atoms: C29_42  and  C35_49 
ROOT
ATOM      1  C14 non d ame      -9.367   7.278  67.079  0.00  0.00     0.089 C 
ATOM      2  H20 non d ame      -9.858   6.730  66.275  0.00  0.00     0.087 H 
ENDROOT
BRANCH   1   3
ATOM      3  N4  non d ame      -9.010   8.590  66.561  0.00  0.00    -0.346 N 
ATOM      4  C10 non d ame      -8.249   8.717  65.266  0.00  0.00     0.241 C 
ATOM      5  O4  non d ame      -7.932   7.747  64.659  0.00  0.00    -0.271 OA
ATOM      6  H19 non d ame      -9.287   9.403  67.094  0.00  0.00     0.163 HD
BRANCH   4   7
ATOM      7  C9  non d ame      -7.893  10.083  64.742  0.00  0.00     0.092 C 
ATOM      8  H11 non d ame      -7.828  10.044  63.654  0.00  0.00     0.088 H 
BRANCH   7   9
ATOM      9  N3  non d ame      -8.960  11.030  65.079  0.00  0.00    -0.346 N 
ATOM     10  C7  non d ame     -10.044  11.253  64.153  0.00  0.00     0.240 C 
ATOM     11  O3  non d ame     -10.072  10.680  63.133  0.00  0.00    -0.271 OA
ATOM     12  H10 non d ame      -8.949  11.532  65.955  0.00  0.00     0.163 HD
BRANCH  10  13
ATOM     13  C6  non d ame     -11.176  12.264  64.516  0.00  0.00     0.086 C 
ATOM     14  H6  non d ame     -11.766  11.945  65.375  0.00  0.00     0.086 H 
BRANCH  13  15
ATOM     15  N2  non d ame     -10.573  13.537  64.875  0.00  0.00    -0.343 N 
ATOM     16  C5  non d ame     -11.330  14.488  65.692  0.00  0.00     0.273 C 
ATOM     17  O2  non d ame     -12.424  14.221  66.052  0.00  0.00    -0.266 OA
ATOM     18  H5  non d ame      -9.639  13.758  64.561  0.00  0.00     0.163 HD
BRANCH  16  19
ATOM     19  C4  non d ame     -10.705  15.837  66.081  0.00  0.00     0.154 A 
ATOM     20  C1  non d ame     -10.667  16.429  67.383  0.00  0.00    -0.017 A 
ATOM     21  C2  non d ame      -9.987  17.655  67.205  0.00  0.00     0.077 A 
ATOM     22  H1  non d ame     -11.070  16.031  68.314  0.00  0.00     0.091 H 
ATOM     23  O1  non d ame      -9.675  17.746  65.945  0.00  0.00    -0.218 OA
ATOM     24  N1  non d ame     -10.084  16.697  65.269  0.00  0.00    -0.123 NA
BRANCH  21  25
ATOM     25  C3  non d ame      -9.677  18.679  68.288  0.00  0.00    -0.029 C 
ATOM     26  H2  non d ame     -10.433  19.465  68.273  0.00  0.00     0.036 H 
ATOM     27  H3  non d ame      -9.681  18.190  69.262  0.00  0.00     0.036 H 
ATOM     28  H4  non d ame      -8.695  19.117  68.105  0.00  0.00     0.036 H 
ENDBRANCH  21  25
ENDBRANCH  16  19
ENDBRANCH  13  15
BRANCH  13  29
ATOM     29  C8  non d ame     -12.093  12.442  63.333  0.00  0.00    -0.049 C 
ATOM     30  H7  non d ame     -12.157  11.505  62.779  0.00  0.00     0.030 H 
ATOM     31  H8  non d ame     -13.085  12.727  63.682  0.00  0.00     0.030 H 
ATOM     32  H9  non d ame     -11.698  13.222  62.682  0.00  0.00     0.030 H 
ENDBRANCH  13  29
ENDBRANCH  10  13
ENDBRANCH   7   9
BRANCH   7  33
ATOM     33  C11 non d ame      -6.559  10.556  65.392  0.00  0.00    -0.033 C 
ATOM     34  H12 non d ame      -6.607  11.641  65.488  0.00  0.00     0.042 H 
BRANCH  33  35
ATOM     35  C12 non d ame      -6.385   9.966  66.825  0.00  0.00    -0.071 C 
ATOM     36  H13 non d ame      -6.880   8.996  66.882  0.00  0.00     0.028 H 
ATOM     37  H14 non d ame      -5.324   9.844  67.041  0.00  0.00     0.028 H 
ATOM     38  H15 non d ame      -6.828  10.644  67.554  0.00  0.00     0.028 H 
ENDBRANCH  33  35
BRANCH  33  39
ATOM     39  C13 non d ame      -5.338  10.206  64.482  0.00  0.00    -0.071 C 
ATOM     40  H16 non d ame      -5.003  11.102  63.962  0.00  0.00     0.028 H 
ATOM     41  H17 non d ame      -4.526   9.818  65.097  0.00  0.00     0.028 H 
ATOM     42  H18 non d ame      -5.634   9.451  63.753  0.00  0.00     0.028 H 
ENDBRANCH  33  39
ENDBRANCH   7  33
ENDBRANCH   4   7
ENDBRANCH   1   3
BRANCH   1  43
ATOM     43  C15 non d ame     -10.295   7.468  68.313  0.00  0.00     0.240 C 
ATOM     44  O5  non d ame     -11.173   6.693  68.517  0.00  0.00    -0.271 OA
ATOM     45  N6  non d ame     -10.084   8.612  69.245  0.00  0.00    -0.355 N 
ATOM     46  H46 non d ame      -9.339   9.274  69.085  0.00  0.00     0.162 HD
BRANCH  45  47
ATOM     47  C20 non d ame     -10.975   8.778  70.414  0.00  0.00     0.013 C 
ATOM     48  H30 non d ame     -11.790   8.060  70.320  0.00  0.00     0.072 H 
BRANCH  47  49
ATOM     49  C21 non d ame     -11.525  10.186  70.428  0.00  0.00    -0.038 C 
ATOM     50  H31 non d ame     -12.519  10.110  70.870  0.00  0.00     0.036 H 
ATOM     51  H32 non d ame     -10.760  10.796  70.907  0.00  0.00     0.036 H 
BRANCH  49  52
ATOM     52  C22 non d ame     -11.722  10.765  69.010  0.00  0.00     0.018 C 
ATOM     53  H33 non d ame     -11.599   9.924  68.327  0.00  0.00     0.048 H 
ATOM     54  H34 non d ame     -12.667  11.309  69.042  0.00  0.00     0.048 H 
BRANCH  52  55
ATOM     55  C23 non d ame     -10.643  11.807  68.604  0.00  0.00     0.259 C 
ATOM     56  O7  non d ame      -9.708  11.483  67.946  0.00  0.00    -0.265 OA
BRANCH  55  57
ATOM     57  O8  non d ame     -10.776  13.155  69.040  0.00  0.00    -0.317 OA
BRANCH  57  58
ATOM     58  C29 non d ame     -12.132  13.598  69.154  0.00  0.00     0.052 C 
ATOM     59  H47 non d ame     -12.251  14.378  68.401  0.00  0.00     0.082 H 
ATOM     60  H48 non d ame     -12.742  12.697  69.106  0.00  0.00     0.082 H 
BRANCH  58  61
ATOM     61  C35 non d ame     -12.310  14.237  70.557  0.00  0.00    -0.034 A 
ATOM     62  C30 non d ame     -11.749  15.480  70.832  0.00  0.00    -0.075 A 
ATOM     63  C31 non d ame     -11.909  16.055  72.092  0.00  0.00    -0.082 A 
ATOM     64  H49 non d ame     -11.185  16.005  70.061  0.00  0.00     0.084 H 
ATOM     65  C32 non d ame     -12.632  15.380  73.080  0.00  0.00    -0.083 A 
ATOM     66  H50 non d ame     -11.471  17.030  72.304  0.00  0.00     0.083 H 
ATOM     67  C33 non d ame     -13.187  14.138  72.801  0.00  0.00    -0.082 A 
ATOM     68  H51 non d ame     -12.762  15.822  74.068  0.00  0.00     0.083 H 
ATOM     69  C34 non d ame     -13.031  13.562  71.543  0.00  0.00    -0.075 A 
ATOM     70  H52 non d ame     -13.748  13.613  73.575  0.00  0.00     0.083 H 
ATOM     71  H53 non d ame     -13.471  12.587  71.331  0.00  0.00     0.084 H 
ENDBRANCH  58  61
ENDBRANCH  57  58
ENDBRANCH  55  57
ENDBRANCH  52  55
ENDBRANCH  49  52
ENDBRANCH  47  49
BRANCH  47  72
ATOM     72  C24 non d ame     -10.191   8.524  71.701  0.00  0.00    -0.039 C 
ATOM     73  H35 non d ame      -9.224   9.004  71.550  0.00  0.00     0.036 H 
ATOM     74  H36 non d ame     -10.844   8.856  72.508  0.00  0.00     0.036 H 
BRANCH  72  75
ATOM     75  C25 non d ame      -9.914   6.963  71.928  0.00  0.00    -0.001 C 
ATOM     76  C26 non d ame     -11.334   6.133  71.902  0.00  0.00    -0.035 C 
ATOM     77  C27 non d ame     -11.406   5.356  73.009  0.00  0.00     0.085 C 
ATOM     78  H38 non d ame     -12.171   6.820  72.018  0.00  0.00     0.036 H 
ATOM     79  H39 non d ame     -11.330   5.412  71.084  0.00  0.00     0.036 H 
ATOM     80  N5  non d ame     -10.320   5.824  73.948  0.00  0.00    -0.049 N 
ATOM     81  H40 non d ame     -12.378   5.571  73.454  0.00  0.00     0.075 H 
ATOM     82  H41 non d ame     -11.172   4.346  72.672  0.00  0.00     0.075 H 
ATOM     83  C28 non d ame      -9.338   6.751  73.064  0.00  0.00     0.193 C 
ATOM     84  H42 non d ame     -10.772   6.403  74.641  0.00  0.00     0.280 HD
ATOM     85  H43 non d ame      -9.813   4.998  74.233  0.00  0.00     0.280 HD
ATOM     86  H44 non d ame      -8.372   6.372  72.728  0.00  0.00     0.129 H 
ATOM     87  H37 non d ame      -9.109   6.589  71.295  0.00  0.00     0.046 H 
BRANCH  83  88
ATOM     88  O6  non d ame      -9.051   7.967  73.758  0.00  0.00    -0.369 OA
ATOM     89  H45 non d ame      -9.836   8.262  74.223  0.00  0.00     0.212 HD
ENDBRANCH  83  88
ENDBRANCH  72  75
ENDBRANCH  47  72
ENDBRANCH  45  47
ENDBRANCH   1  43
BRANCH   1  90
ATOM     90  C16 non d ame      -8.100   6.549  67.500  0.00  0.00    -0.035 C 
ATOM     91  H21 non d ame      -7.283   7.095  67.028  0.00  0.00     0.037 H 
ATOM     92  H22 non d ame      -8.154   6.481  68.587  0.00  0.00     0.037 H 
BRANCH  90  93
ATOM     93  C17 non d ame      -8.016   5.083  66.969  0.00  0.00    -0.059 C 
ATOM     94  H23 non d ame      -8.079   4.416  67.829  0.00  0.00     0.038 H 
BRANCH  93  95
ATOM     95  C18 non d ame      -9.197   4.735  66.008  0.00  0.00    -0.073 C 
ATOM     96  H24 non d ame     -10.111   4.608  66.587  0.00  0.00     0.028 H 
ATOM     97  H25 non d ame      -9.331   5.544  65.289  0.00  0.00     0.028 H 
ATOM     98  H26 non d ame      -8.972   3.810  65.476  0.00  0.00     0.028 H 
ENDBRANCH  93  95
BRANCH  93  99
ATOM     99  C19 non d ame      -6.667   4.824  66.292  0.00  0.00    -0.073 C 
ATOM    100  H27 non d ame      -6.833   4.379  65.310  0.00  0.00     0.028 H 
ATOM    101  H28 non d ame      -6.131   5.766  66.178  0.00  0.00     0.028 H 
ATOM    102  H29 non d ame      -6.078   4.142  66.905  0.00  0.00     0.028 H 
ENDBRANCH  93  99
ENDBRANCH  90  93
ENDBRANCH   1  90
TORSDOF 26
ENDMDL
MODEL 6
REMARK VINA RESULT:      -6.9      1.689      2.024
REMARK  26 active torsions:
REMARK  status: ('A' for Active; 'I' for Inactive)
REMARK    1  A    between atoms: C2_2  and  C3_3 
REMARK    2  A    between atoms: C4_6  and  C5_7 
REMARK       I    between atoms: C5_7  and  N2_9 
REMARK    3  A    between atoms: N2_9  and  C6_10 
REMARK    4  A    between atoms: C6_10  and  C7_11 
REMARK    5  A    between atoms: C6_10  and  C8_13 
REMARK       I    between atoms: C7_11  and  N3_14 
REMARK    6  A    between atoms: N3_14  and  C9_15 
REMARK    7  A    between atoms: C9_15  and  C10_16 
REMARK    8  A    between atoms: C9_15  and  C11_18 
REMARK       I    between atoms: C10_16  and  N4_21 
REMARK    9  A    between atoms: C11_18  and  C12_19 
REMARK   10  A    between atoms: C11_18  and  C13_20 
REMARK   11  A    between atoms: N4_21  and  C14_22 
REMARK   12  A    between atoms: C14_22  and  C15_23 
REMARK   13  A    between atoms: C14_22  and  C16_25 
REMARK       I    between atoms: C15_23  and  N6_40 
REMARK   14  A    between atoms: C16_25  and  C17_26 
REMARK   15  A    between atoms: C17_26  and  C18_27 
REMARK   16  A    between atoms: C17_26  and  C19_28 
REMARK   17  A    between atoms: C20_29  and  C21_30 
REMARK   18  A    between atoms: C20_29  and  C24_33 
REMARK   19  A    between atoms: C20_29  and  N6_40 
REMARK   20  A    between atoms: C21_30  and  C22_31 
REMARK   21  A    between atoms: C22_31  and  C23_32 
REMARK   22  A    between atoms: C23_32  and  O8_43 
REMARK   23  A    between atoms: C24_33  and  C25_34 
REMARK   24  A    between atoms: C28_38  and  O6_39 
REMARK   25  A    between atoms: C29_42  and  O8_43 
REMARK   26  A    between atoms: C29_42  and  C35_49 
ROOT
ATOM      1  C14 non d ame     -12.344  14.334  70.057  0.00  0.00     0.089 C 
ATOM      2  H20 non d ame     -13.419  14.508  70.017  0.00  0.00     0.087 H 
ENDROOT
BRANCH   1   3
ATOM      3  N4  non d ame     -12.121  12.915  69.818  0.00  0.00    -0.346 N 
ATOM      4  C10 non d ame     -12.635  11.889  70.795  0.00  0.00     0.241 C 
ATOM      5  O4  non d ame     -13.223  12.228  71.769  0.00  0.00    -0.271 OA
ATOM      6  H19 non d ame     -11.616  12.647  68.985  0.00  0.00     0.163 HD
BRANCH   4   7
ATOM      7  C9  non d ame     -12.400  10.425  70.529  0.00  0.00     0.092 C 
ATOM      8  H11 non d ame     -13.054  10.097  69.721  0.00  0.00     0.088 H 
BRANCH   7   9
ATOM      9  N3  non d ame     -11.020  10.225  70.077  0.00  0.00    -0.346 N 
ATOM     10  C7  non d ame     -10.713  10.246  68.668  0.00  0.00     0.240 C 
ATOM     11  O3  non d ame     -11.565  10.420  67.884  0.00  0.00    -0.271 OA
ATOM     12  H10 non d ame     -10.275  10.072  70.741  0.00  0.00     0.163 HD
BRANCH  10  13
ATOM     13  C6  non d ame      -9.243  10.030  68.192  0.00  0.00     0.086 C 
ATOM     14  H6  non d ame      -8.597   9.645  68.981  0.00  0.00     0.086 H 
BRANCH  13  15
ATOM     15  N2  non d ame      -9.233   9.041  67.127  0.00  0.00    -0.343 N 
ATOM     16  C5  non d ame      -8.247   7.958  67.157  0.00  0.00     0.273 C 
ATOM     17  O2  non d ame      -7.465   7.893  68.041  0.00  0.00    -0.266 OA
ATOM     18  H5  non d ame      -9.903   9.107  66.373  0.00  0.00     0.163 HD
BRANCH  16  19
ATOM     19  C4  non d ame      -8.226   6.906  66.038  0.00  0.00     0.154 A 
ATOM     20  C1  non d ame      -8.033   7.135  64.638  0.00  0.00    -0.017 A 
ATOM     21  C2  non d ame      -8.099   5.854  64.047  0.00  0.00     0.077 A 
ATOM     22  H1  non d ame      -7.869   8.085  64.130  0.00  0.00     0.091 H 
ATOM     23  O1  non d ame      -8.305   4.996  65.004  0.00  0.00    -0.218 OA
ATOM     24  N1  non d ame      -8.383   5.586  66.174  0.00  0.00    -0.123 NA
BRANCH  21  25
ATOM     25  C3  non d ame      -7.955   5.536  62.565  0.00  0.00    -0.029 C 
ATOM     26  H2  non d ame      -6.910   5.642  62.270  0.00  0.00     0.036 H 
ATOM     27  H3  non d ame      -8.283   4.513  62.379  0.00  0.00     0.036 H 
ATOM     28  H4  non d ame      -8.568   6.225  61.984  0.00  0.00     0.036 H 
ENDBRANCH  21  25
ENDBRANCH  16  19
ENDBRANCH  13  15
BRANCH  13  29
ATOM     29  C8  non d ame      -8.677  11.334  67.692  0.00  0.00    -0.049 C 
ATOM     30  H7  non d ame      -7.592  11.254  67.615  0.00  0.00     0.030 H 
ATOM     31  H8  non d ame      -9.096  11.560  66.712  0.00  0.00     0.030 H 
ATOM     32  H9  non d ame      -8.932  12.132  68.390  0.00  0.00     0.030 H 
ENDBRANCH  13  29
ENDBRANCH  10  13
ENDBRANCH   7   9
BRANCH   7  33
ATOM     33  C11 non d ame     -12.636   9.616  71.838  0.00  0.00    -0.033 C 
ATOM     34  H12 non d ame     -12.712  10.331  72.658  0.00  0.00     0.042 H 
BRANCH  33  35
ATOM     35  C12 non d ame     -13.978   8.822  71.782  0.00  0.00    -0.071 C 
ATOM     36  H13 non d ame     -14.086   8.225  72.688  0.00  0.00     0.028 H 
ATOM     37  H14 non d ame     -14.811   9.521  71.707  0.00  0.00     0.028 H 
ATOM     38  H15 non d ame     -13.975   8.165  70.912  0.00  0.00     0.028 H 
ENDBRANCH  33  35
BRANCH  33  39
ATOM     39  C13 non d ame     -11.430   8.668  72.135  0.00  0.00    -0.071 C 
ATOM     40  H16 non d ame     -11.759   7.631  72.074  0.00  0.00     0.028 H 
ATOM     41  H17 non d ame     -10.641   8.843  71.403  0.00  0.00     0.028 H 
ATOM     42  H18 non d ame     -11.048   8.869  73.136  0.00  0.00     0.028 H 
ENDBRANCH  33  39
ENDBRANCH   7  33
ENDBRANCH   4   7
ENDBRANCH   1   3
BRANCH   1  43
ATOM     43  C15 non d ame     -11.577  15.145  68.973  0.00  0.00     0.240 C 
ATOM     44  O5  non d ame     -11.778  16.310  68.855  0.00  0.00    -0.271 OA
ATOM     45  N6  non d ame     -10.585  14.470  68.088  0.00  0.00    -0.355 N 
ATOM     46  H46 non d ame     -10.402  13.482  68.183  0.00  0.00     0.162 HD
BRANCH  45  47
ATOM     47  C20 non d ame      -9.863  15.256  67.064  0.00  0.00     0.013 C 
ATOM     48  H30 non d ame      -8.959  14.709  66.798  0.00  0.00     0.072 H 
BRANCH  47  49
ATOM     49  C21 non d ame      -9.500  16.608  67.636  0.00  0.00    -0.038 C 
ATOM     50  H31 non d ame     -10.284  16.843  68.356  0.00  0.00     0.036 H 
ATOM     51  H32 non d ame      -8.465  16.519  67.965  0.00  0.00     0.036 H 
BRANCH  49  52
ATOM     52  C22 non d ame      -9.527  17.732  66.578  0.00  0.00     0.018 C 
ATOM     53  H33 non d ame      -8.490  17.873  66.270  0.00  0.00     0.048 H 
ATOM     54  H34 non d ame     -10.276  17.431  65.845  0.00  0.00     0.048 H 
BRANCH  52  55
ATOM     55  C23 non d ame      -9.999  19.104  67.134  0.00  0.00     0.259 C 
ATOM     56  O7  non d ame     -11.144  19.288  67.393  0.00  0.00    -0.265 OA
BRANCH  55  57
ATOM     57  O8  non d ame      -9.048  20.146  67.319  0.00  0.00    -0.317 OA
BRANCH  57  58
ATOM     58  C29 non d ame      -7.741  19.835  66.827  0.00  0.00     0.052 C 
ATOM     59  H47 non d ame      -7.806  18.817  66.441  0.00  0.00     0.082 H 
ATOM     60  H48 non d ame      -7.474  20.654  66.160  0.00  0.00     0.082 H 
BRANCH  58  61
ATOM     61  C35 non d ame      -6.762  19.843  68.030  0.00  0.00    -0.034 A 
ATOM     62  C30 non d ame      -6.738  18.771  68.917  0.00  0.00    -0.075 A 
ATOM     63  C31 non d ame      -5.859  18.778  69.998  0.00  0.00    -0.082 A 
ATOM     64  H49 non d ame      -7.409  17.925  68.764  0.00  0.00     0.084 H 
ATOM     65  C32 non d ame      -5.002  19.864  70.193  0.00  0.00    -0.083 A 
ATOM     66  H50 non d ame      -5.841  17.935  70.689  0.00  0.00     0.083 H 
ATOM     67  C33 non d ame      -5.031  20.933  69.308  0.00  0.00    -0.082 A 
ATOM     68  H51 non d ame      -4.310  19.877  71.036  0.00  0.00     0.083 H 
ATOM     69  C34 non d ame      -5.907  20.929  68.225  0.00  0.00    -0.075 A 
ATOM     70  H52 non d ame      -4.362  21.780  69.465  0.00  0.00     0.083 H 
ATOM     71  H53 non d ame      -5.923  21.772  67.533  0.00  0.00     0.084 H 
ENDBRANCH  58  61
ENDBRANCH  57  58
ENDBRANCH  55  57
ENDBRANCH  52  55
ENDBRANCH  49  52
ENDBRANCH  47  49
BRANCH  47  72
ATOM     72  C24 non d ame     -10.751  15.443  65.836  0.00  0.00    -0.039 C 
ATOM     73  H35 non d ame     -11.506  16.172  66.132  0.00  0.00     0.036 H 
ATOM     74  H36 non d ame     -10.069  15.667  65.016  0.00  0.00     0.036 H 
BRANCH  72  75
ATOM     75  C25 non d ame     -11.524  14.093  65.452  0.00  0.00    -0.001 C 
ATOM     76  C26 non d ame     -10.439  12.915  65.074  0.00  0.00    -0.035 C 
ATOM     77  C27 non d ame     -10.778  12.379  63.877  0.00  0.00     0.085 C 
ATOM     78  H38 non d ame      -9.460  13.355  64.889  0.00  0.00     0.036 H 
ATOM     79  H39 non d ame     -10.540  12.079  65.766  0.00  0.00     0.036 H 
ATOM     80  N5  non d ame     -11.797  13.300  63.252  0.00  0.00    -0.049 N 
ATOM     81  H40 non d ame      -9.865  12.400  63.280  0.00  0.00     0.075 H 
ATOM     82  H41 non d ame     -11.255  11.427  64.110  0.00  0.00     0.075 H 
ATOM     83  C28 non d ame     -12.303  14.272  64.438  0.00  0.00     0.193 C 
ATOM     84  H42 non d ame     -11.301  13.856  62.571  0.00  0.00     0.280 HD
ATOM     85  H43 non d ame     -12.570  12.718  62.963  0.00  0.00     0.280 HD
ATOM     86  H44 non d ame     -13.275  14.116  64.905  0.00  0.00     0.129 H 
ATOM     87  H37 non d ame     -12.298  13.840  66.176  0.00  0.00     0.046 H 
BRANCH  83  88
ATOM     88  O6  non d ame     -12.306  15.630  63.994  0.00  0.00    -0.369 OA
ATOM     89  H45 non d ame     -11.656  15.740  63.297  0.00  0.00     0.212 HD
ENDBRANCH  83  88
ENDBRANCH  72  75
ENDBRANCH  47  72
ENDBRANCH  45  47
ENDBRANCH   1  43
BRANCH   1  90
ATOM     90  C16 non d ame     -11.814  14.694  71.435  0.00  0.00    -0.035 C 
ATOM     91  H21 non d ame     -11.777  13.753  71.985  0.00  0.00     0.037 H 
ATOM     92  H22 non d ame     -10.897  15.256  71.255  0.00  0.00     0.037 H 
BRANCH  90  93
ATOM     93  C17 non d ame     -12.759  15.640  72.242  0.00  0.00    -0.059 C 
ATOM     94  H23 non d ame     -12.517  16.666  71.964  0.00  0.00     0.038 H 
BRANCH  93  95
ATOM     95  C18 non d ame     -14.265  15.398  71.903  0.00  0.00    -0.073 C 
ATOM     96  H24 non d ame     -14.717  14.779  72.678  0.00  0.00     0.028 H 
ATOM     97  H25 non d ame     -14.785  16.355  71.853  0.00  0.00     0.028 H 
ATOM     98  H26 non d ame     -14.343  14.891  70.941  0.00  0.00     0.028 H 
ENDBRANCH  93  95
BRANCH  93  99
ATOM     99  C19 non d ame     -12.512  15.506  73.747  0.00  0.00    -0.073 C 
ATOM    100  H27 non d ame     -12.595  14.458  74.037  0.00  0.00     0.028 H 
ATOM    101  H28 non d ame     -11.513  15.871  73.985  0.00  0.00     0.028 H 
ATOM    102  H29 non d ame     -13.252  16.094  74.291  0.00  0.00     0.028 H 
ENDBRANCH  93  99
ENDBRANCH  90  93
ENDBRANCH   1  90
TORSDOF 26
ENDMDL
MODEL 7
REMARK VINA RESULT:      -6.9      2.644      9.977
REMARK  26 active torsions:
REMARK  status: ('A' for Active; 'I' for Inactive)
REMARK    1  A    between atoms: C2_2  and  C3_3 
REMARK    2  A    between atoms: C4_6  and  C5_7 
REMARK       I    between atoms: C5_7  and  N2_9 
REMARK    3  A    between atoms: N2_9  and  C6_10 
REMARK    4  A    between atoms: C6_10  and  C7_11 
REMARK    5  A    between atoms: C6_10  and  C8_13 
REMARK       I    between atoms: C7_11  and  N3_14 
REMARK    6  A    between atoms: N3_14  and  C9_15 
REMARK    7  A    between atoms: C9_15  and  C10_16 
REMARK    8  A    between atoms: C9_15  and  C11_18 
REMARK       I    between atoms: C10_16  and  N4_21 
REMARK    9  A    between atoms: C11_18  and  C12_19 
REMARK   10  A    between atoms: C11_18  and  C13_20 
REMARK   11  A    between atoms: N4_21  and  C14_22 
REMARK   12  A    between atoms: C14_22  and  C15_23 
REMARK   13  A    between atoms: C14_22  and  C16_25 
REMARK       I    between atoms: C15_23  and  N6_40 
REMARK   14  A    between atoms: C16_25  and  C17_26 
REMARK   15  A    between atoms: C17_26  and  C18_27 
REMARK   16  A    between atoms: C17_26  and  C19_28 
REMARK   17  A    between atoms: C20_29  and  C21_30 
REMARK   18  A    between atoms: C20_29  and  C24_33 
REMARK   19  A    between atoms: C20_29  and  N6_40 
REMARK   20  A    between atoms: C21_30  and  C22_31 
REMARK   21  A    between atoms: C22_31  and  C23_32 
REMARK   22  A    between atoms: C23_32  and  O8_43 
REMARK   23  A    between atoms: C24_33  and  C25_34 
REMARK   24  A    between atoms: C28_38  and  O6_39 
REMARK   25  A    between atoms: C29_42  and  O8_43 
REMARK   26  A    between atoms: C29_42  and  C35_49 
ROOT
ATOM      1  C14 non d ame      -9.983   9.351  66.790  0.00  0.00     0.089 C 
ATOM      2  H20 non d ame     -10.990   8.935  66.834  0.00  0.00     0.087 H 
ENDROOT
BRANCH   1   3
ATOM      3  N4  non d ame     -10.105  10.755  66.427  0.00  0.00    -0.346 N 
ATOM      4  C10 non d ame     -11.231  11.590  66.981  0.00  0.00     0.241 C 
ATOM      5  O4  non d ame     -12.030  11.109  67.715  0.00  0.00    -0.271 OA
ATOM      6  H19 non d ame      -9.416  11.144  65.799  0.00  0.00     0.163 HD
BRANCH   4   7
ATOM      7  C9  non d ame     -11.339  13.043  66.599  0.00  0.00     0.092 C 
ATOM      8  H11 non d ame     -12.384  13.350  66.645  0.00  0.00     0.088 H 
BRANCH   7   9
ATOM      9  N3  non d ame     -10.604  13.860  67.571  0.00  0.00    -0.346 N 
ATOM     10  C7  non d ame     -11.301  14.453  68.685  0.00  0.00     0.240 C 
ATOM     11  O3  non d ame     -12.452  14.285  68.815  0.00  0.00    -0.271 OA
ATOM     12  H10 non d ame      -9.612  14.015  67.471  0.00  0.00     0.163 HD
BRANCH  10  13
ATOM     13  C6  non d ame     -10.515  15.324  69.714  0.00  0.00     0.086 C 
ATOM     14  H6  non d ame      -9.613  14.833  70.079  0.00  0.00     0.086 H 
BRANCH  13  15
ATOM     15  N2  non d ame     -10.088  16.551  69.064  0.00  0.00    -0.343 N 
ATOM     16  C5  non d ame      -8.760  16.618  68.450  0.00  0.00     0.273 C 
ATOM     17  O2  non d ame      -8.042  15.679  68.487  0.00  0.00    -0.266 OA
ATOM     18  H5  non d ame     -10.707  17.349  69.040  0.00  0.00     0.163 HD
BRANCH  16  19
ATOM     19  C4  non d ame      -8.296  17.909  67.758  0.00  0.00     0.154 A 
ATOM     20  C1  non d ame      -7.669  18.026  66.477  0.00  0.00    -0.017 A 
ATOM     21  C2  non d ame      -7.446  19.410  66.306  0.00  0.00     0.077 A 
ATOM     22  H1  non d ame      -7.414  17.228  65.778  0.00  0.00     0.091 H 
ATOM     23  O1  non d ame      -7.897  20.009  67.369  0.00  0.00    -0.218 OA
ATOM     24  N1  non d ame      -8.398  19.154  68.231  0.00  0.00    -0.123 NA
BRANCH  21  25
ATOM     25  C3  non d ame      -6.798  20.077  65.100  0.00  0.00    -0.029 C 
ATOM     26  H2  non d ame      -7.281  19.727  64.187  0.00  0.00     0.036 H 
ATOM     27  H3  non d ame      -6.911  21.158  65.179  0.00  0.00     0.036 H 
ATOM     28  H4  non d ame      -5.738  19.824  65.070  0.00  0.00     0.036 H 
ENDBRANCH  21  25
ENDBRANCH  16  19
ENDBRANCH  13  15
BRANCH  13  29
ATOM     29  C8  non d ame     -11.404  15.644  70.889  0.00  0.00    -0.049 C 
ATOM     30  H7  non d ame     -12.405  15.254  70.704  0.00  0.00     0.030 H 
ATOM     31  H8  non d ame     -10.996  15.185  71.790  0.00  0.00     0.030 H 
ATOM     32  H9  non d ame     -11.455  16.724  71.022  0.00  0.00     0.030 H 
ENDBRANCH  13  29
ENDBRANCH  10  13
ENDBRANCH   7   9
BRANCH   7  33
ATOM     33  C11 non d ame     -10.728  13.253  65.183  0.00  0.00    -0.033 C 
ATOM     34  H12 non d ame      -9.891  12.563  65.080  0.00  0.00     0.042 H 
BRANCH  33  35
ATOM     35  C12 non d ame     -11.759  12.911  64.063  0.00  0.00    -0.071 C 
ATOM     36  H13 non d ame     -11.519  11.939  63.632  0.00  0.00     0.028 H 
ATOM     37  H14 non d ame     -12.762  12.881  64.489  0.00  0.00     0.028 H 
ATOM     38  H15 non d ame     -11.717  13.674  63.285  0.00  0.00     0.028 H 
ENDBRANCH  33  35
BRANCH  33  39
ATOM     39  C13 non d ame     -10.177  14.707  65.021  0.00  0.00    -0.071 C 
ATOM     40  H16 non d ame     -10.322  15.038  63.993  0.00  0.00     0.028 H 
ATOM     41  H17 non d ame     -10.712  15.375  65.697  0.00  0.00     0.028 H 
ATOM     42  H18 non d ame      -9.114  14.721  65.261  0.00  0.00     0.028 H 
ENDBRANCH  33  39
ENDBRANCH   7  33
ENDBRANCH   4   7
ENDBRANCH   1   3
BRANCH   1  43
ATOM     43  C15 non d ame      -9.247   9.254  68.157  0.00  0.00     0.240 C 
ATOM     44  O5  non d ame      -8.196   9.790  68.302  0.00  0.00    -0.271 OA
ATOM     45  N6  non d ame      -9.857   8.501  69.289  0.00  0.00    -0.355 N 
ATOM     46  H46 non d ame     -10.751   8.045  69.180  0.00  0.00     0.162 HD
BRANCH  45  47
ATOM     47  C20 non d ame      -9.145   8.420  70.583  0.00  0.00     0.013 C 
ATOM     48  H30 non d ame      -8.382   9.198  70.596  0.00  0.00     0.072 H 
BRANCH  47  49
ATOM     49  C21 non d ame      -8.498   7.059  70.713  0.00  0.00    -0.038 C 
ATOM     50  H31 non d ame      -7.994   6.881  69.764  0.00  0.00     0.036 H 
ATOM     51  H32 non d ame      -7.923   7.094  71.639  0.00  0.00     0.036 H 
BRANCH  49  52
ATOM     52  C22 non d ame      -9.527   5.920  70.882  0.00  0.00     0.018 C 
ATOM     53  H33 non d ame      -9.169   5.319  71.718  0.00  0.00     0.048 H 
ATOM     54  H34 non d ame     -10.501   6.408  70.939  0.00  0.00     0.048 H 
BRANCH  52  55
ATOM     55  C23 non d ame      -9.601   4.958  69.664  0.00  0.00     0.259 C 
ATOM     56  O7  non d ame      -9.953   3.831  69.806  0.00  0.00    -0.265 OA
BRANCH  55  57
ATOM     57  O8  non d ame      -9.230   5.434  68.376  0.00  0.00    -0.317 OA
BRANCH  57  58
ATOM     58  C29 non d ame      -9.141   4.411  67.380  0.00  0.00     0.052 C 
ATOM     59  H47 non d ame      -8.555   3.610  67.832  0.00  0.00     0.082 H 
ATOM     60  H48 non d ame     -10.165   4.222  67.059  0.00  0.00     0.082 H 
BRANCH  58  61
ATOM     61  C35 non d ame      -8.345   4.982  66.177  0.00  0.00    -0.034 A 
ATOM     62  C30 non d ame      -8.908   4.978  64.905  0.00  0.00    -0.075 A 
ATOM     63  C31 non d ame      -8.194   5.491  63.823  0.00  0.00    -0.082 A 
ATOM     64  H49 non d ame      -9.909   4.573  64.755  0.00  0.00     0.084 H 
ATOM     65  C32 non d ame      -6.910   6.008  64.017  0.00  0.00    -0.083 A 
ATOM     66  H50 non d ame      -8.639   5.489  62.828  0.00  0.00     0.083 H 
ATOM     67  C33 non d ame      -6.351   6.007  65.288  0.00  0.00    -0.082 A 
ATOM     68  H51 non d ame      -6.345   6.411  63.177  0.00  0.00     0.083 H 
ATOM     69  C34 non d ame      -7.062   5.497  66.372  0.00  0.00    -0.075 A 
ATOM     70  H52 non d ame      -5.348   6.408  65.435  0.00  0.00     0.083 H 
ATOM     71  H53 non d ame      -6.617   5.500  67.367  0.00  0.00     0.084 H 
ENDBRANCH  58  61
ENDBRANCH  57  58
ENDBRANCH  55  57
ENDBRANCH  52  55
ENDBRANCH  49  52
ENDBRANCH  47  49
BRANCH  47  72
ATOM     72  C24 non d ame     -10.133   8.627  71.730  0.00  0.00    -0.039 C 
ATOM     73  H35 non d ame     -10.122   7.694  72.294  0.00  0.00     0.036 H 
ATOM     74  H36 non d ame      -9.829   9.557  72.210  0.00  0.00     0.036 H 
BRANCH  72  75
ATOM     75  C25 non d ame     -11.628   8.837  71.194  0.00  0.00    -0.001 C 
ATOM     76  C26 non d ame     -11.956  10.443  71.065  0.00  0.00    -0.035 C 
ATOM     77  C27 non d ame     -13.118  10.704  71.711  0.00  0.00     0.085 C 
ATOM     78  H38 non d ame     -11.219  11.021  71.623  0.00  0.00     0.036 H 
ATOM     79  H39 non d ame     -12.178  10.697  70.029  0.00  0.00     0.036 H 
ATOM     80  N5  non d ame     -13.442   9.487  72.545  0.00  0.00    -0.049 N 
ATOM     81  H40 non d ame     -12.900  11.542  72.375  0.00  0.00     0.075 H 
ATOM     82  H41 non d ame     -13.869  10.809  70.929  0.00  0.00     0.075 H 
ATOM     83  C28 non d ame     -12.490   8.305  71.995  0.00  0.00     0.193 C 
ATOM     84  H42 non d ame     -13.168   9.707  73.491  0.00  0.00     0.280 HD
ATOM     85  H43 non d ame     -14.402   9.248  72.340  0.00  0.00     0.280 HD
ATOM     86  H44 non d ame     -12.895   7.520  71.356  0.00  0.00     0.129 H 
ATOM     87  H37 non d ame     -11.846   8.215  70.326  0.00  0.00     0.046 H 
BRANCH  83  88
ATOM     88  O6  non d ame     -11.866   7.627  73.086  0.00  0.00    -0.369 OA
ATOM     89  H45 non d ame     -11.893   8.185  73.867  0.00  0.00     0.212 HD
ENDBRANCH  83  88
ENDBRANCH  72  75
ENDBRANCH  47  72
ENDBRANCH  45  47
ENDBRANCH   1  43
BRANCH   1  90
ATOM     90  C16 non d ame      -9.175   8.630  65.722  0.00  0.00    -0.035 C 
ATOM     91  H21 non d ame      -8.394   8.096  66.263  0.00  0.00     0.037 H 
ATOM     92  H22 non d ame      -9.906   8.076  65.132  0.00  0.00     0.037 H 
BRANCH  90  93
ATOM     93  C17 non d ame      -8.447   9.593  64.732  0.00  0.00    -0.059 C 
ATOM     94  H23 non d ame      -8.873  10.588  64.863  0.00  0.00     0.038 H 
BRANCH  93  95
ATOM     95  C18 non d ame      -6.915   9.689  65.022  0.00  0.00    -0.073 C 
ATOM     96  H24 non d ame      -6.371   9.062  64.317  0.00  0.00     0.028 H 
ATOM     97  H25 non d ame      -6.589  10.724  64.915  0.00  0.00     0.028 H 
ATOM     98  H26 non d ame      -6.716   9.350  66.039  0.00  0.00     0.028 H 
ENDBRANCH  93  95
BRANCH  93  99
ATOM     99  C19 non d ame      -8.701   9.179  63.280  0.00  0.00    -0.073 C 
ATOM    100  H27 non d ame      -8.287   9.932  62.609  0.00  0.00     0.028 H 
ATOM    101  H28 non d ame      -8.222   8.218  63.088  0.00  0.00     0.028 H 
ATOM    102  H29 non d ame      -9.773   9.090  63.110  0.00  0.00     0.028 H 
ENDBRANCH  93  99
ENDBRANCH  90  93
ENDBRANCH   1  90
TORSDOF 26
ENDMDL
MODEL 8
REMARK VINA RESULT:      -6.8      2.443      8.294
REMARK  26 active torsions:
REMARK  status: ('A' for Active; 'I' for Inactive)
REMARK    1  A    between atoms: C2_2  and  C3_3 
REMARK    2  A    between atoms: C4_6  and  C5_7 
REMARK       I    between atoms: C5_7  and  N2_9 
REMARK    3  A    between atoms: N2_9  and  C6_10 
REMARK    4  A    between atoms: C6_10  and  C7_11 
REMARK    5  A    between atoms: C6_10  and  C8_13 
REMARK       I    between atoms: C7_11  and  N3_14 
REMARK    6  A    between atoms: N3_14  and  C9_15 
REMARK    7  A    between atoms: C9_15  and  C10_16 
REMARK    8  A    between atoms: C9_15  and  C11_18 
REMARK       I    between atoms: C10_16  and  N4_21 
REMARK    9  A    between atoms: C11_18  and  C12_19 
REMARK   10  A    between atoms: C11_18  and  C13_20 
REMARK   11  A    between atoms: N4_21  and  C14_22 
REMARK   12  A    between atoms: C14_22  and  C15_23 
REMARK   13  A    between atoms: C14_22  and  C16_25 
REMARK       I    between atoms: C15_23  and  N6_40 
REMARK   14  A    between atoms: C16_25  and  C17_26 
REMARK   15  A    between atoms: C17_26  and  C18_27 
REMARK   16  A    between atoms: C17_26  and  C19_28 
REMARK   17  A    between atoms: C20_29  and  C21_30 
REMARK   18  A    between atoms: C20_29  and  C24_33 
REMARK   19  A    between atoms: C20_29  and  N6_40 
REMARK   20  A    between atoms: C21_30  and  C22_31 
REMARK   21  A    between atoms: C22_31  and  C23_32 
REMARK   22  A    between atoms: C23_32  and  O8_43 
REMARK   23  A    between atoms: C24_33  and  C25_34 
REMARK   24  A    between atoms: C28_38  and  O6_39 
REMARK   25  A    between atoms: C29_42  and  O8_43 
REMARK   26  A    between atoms: C29_42  and  C35_49 
ROOT
ATOM      1  C14 non d ame      -5.683  12.950  68.260  0.00  0.00     0.089 C 
ATOM      2  H20 non d ame      -4.595  12.948  68.328  0.00  0.00     0.087 H 
ENDROOT
BRANCH   1   3
ATOM      3  N4  non d ame      -6.105  14.321  68.015  0.00  0.00    -0.346 N 
ATOM      4  C10 non d ame      -5.117  15.343  67.512  0.00  0.00     0.241 C 
ATOM      5  O4  non d ame      -3.986  15.039  67.315  0.00  0.00    -0.271 OA
ATOM      6  H19 non d ame      -7.070  14.560  68.191  0.00  0.00     0.163 HD
BRANCH   4   7
ATOM      7  C9  non d ame      -5.572  16.756  67.258  0.00  0.00     0.092 C 
ATOM      8  H11 non d ame      -5.471  16.980  66.196  0.00  0.00     0.088 H 
BRANCH   7   9
ATOM      9  N3  non d ame      -6.993  16.880  67.593  0.00  0.00    -0.346 N 
ATOM     10  C7  non d ame      -7.913  17.444  66.636  0.00  0.00     0.240 C 
ATOM     11  O3  non d ame      -7.526  17.804  65.592  0.00  0.00    -0.271 OA
ATOM     12  H10 non d ame      -7.342  16.575  68.491  0.00  0.00     0.163 HD
BRANCH  10  13
ATOM     13  C6  non d ame      -9.425  17.576  67.000  0.00  0.00     0.086 C 
ATOM     14  H6  non d ame      -9.942  18.316  66.390  0.00  0.00     0.086 H 
BRANCH  13  15
ATOM     15  N2  non d ame     -10.081  16.303  66.755  0.00  0.00    -0.343 N 
ATOM     16  C5  non d ame     -10.820  16.100  65.507  0.00  0.00     0.273 C 
ATOM     17  O2  non d ame     -10.882  16.968  64.707  0.00  0.00    -0.266 OA
ATOM     18  H5  non d ame     -10.025  15.567  67.446  0.00  0.00     0.163 HD
BRANCH  16  19
ATOM     19  C4  non d ame     -11.517  14.758  65.235  0.00  0.00     0.154 A 
ATOM     20  C1  non d ame     -11.353  13.914  64.090  0.00  0.00    -0.017 A 
ATOM     21  C2  non d ame     -12.208  12.814  64.324  0.00  0.00     0.077 A 
ATOM     22  H1  non d ame     -10.712  14.076  63.223  0.00  0.00     0.091 H 
ATOM     23  O1  non d ame     -12.789  13.012  65.471  0.00  0.00    -0.218 OA
ATOM     24  N1  non d ame     -12.402  14.139  66.022  0.00  0.00    -0.123 NA
BRANCH  21  25
ATOM     25  C3  non d ame     -12.410  11.618  63.403  0.00  0.00    -0.029 C 
ATOM     26  H2  non d ame     -11.444  11.283  63.025  0.00  0.00     0.036 H 
ATOM     27  H3  non d ame     -12.883  10.808  63.959  0.00  0.00     0.036 H 
ATOM     28  H4  non d ame     -13.048  11.906  62.567  0.00  0.00     0.036 H 
ENDBRANCH  21  25
ENDBRANCH  16  19
ENDBRANCH  13  15
BRANCH  13  29
ATOM     29  C8  non d ame      -9.563  17.958  68.451  0.00  0.00    -0.049 C 
ATOM     30  H7  non d ame      -9.702  19.037  68.532  0.00  0.00     0.030 H 
ATOM     31  H8  non d ame     -10.425  17.448  68.881  0.00  0.00     0.030 H 
ATOM     32  H9  non d ame      -8.662  17.668  68.991  0.00  0.00     0.030 H 
ENDBRANCH  13  29
ENDBRANCH  10  13
ENDBRANCH   7   9
BRANCH   7  33
ATOM     33  C11 non d ame      -4.746  17.735  68.144  0.00  0.00    -0.033 C 
ATOM     34  H12 non d ame      -4.042  17.138  68.724  0.00  0.00     0.042 H 
BRANCH  33  35
ATOM     35  C12 non d ame      -3.913  18.725  67.272  0.00  0.00    -0.071 C 
ATOM     36  H13 non d ame      -3.848  18.346  66.252  0.00  0.00     0.028 H 
ATOM     37  H14 non d ame      -4.399  19.700  67.266  0.00  0.00     0.028 H 
ATOM     38  H15 non d ame      -2.911  18.821  67.688  0.00  0.00     0.028 H 
ENDBRANCH  33  35
BRANCH  33  39
ATOM     39  C13 non d ame      -5.670  18.500  69.144  0.00  0.00    -0.071 C 
ATOM     40  H16 non d ame      -6.472  17.840  69.475  0.00  0.00     0.028 H 
ATOM     41  H17 non d ame      -5.085  18.822  70.006  0.00  0.00     0.028 H 
ATOM     42  H18 non d ame      -6.098  19.372  68.649  0.00  0.00     0.028 H 
ENDBRANCH  33  39
ENDBRANCH   7  33
ENDBRANCH   4   7
ENDBRANCH   1   3
BRANCH   1  43
ATOM     43  C15 non d ame      -6.200  12.057  67.096  0.00  0.00     0.240 C 
ATOM     44  O5  non d ame      -5.489  11.818  66.174  0.00  0.00    -0.271 OA
ATOM     45  N6  non d ame      -7.579  11.491  67.136  0.00  0.00    -0.355 N 
ATOM     46  H46 non d ame      -8.190  11.683  67.916  0.00  0.00     0.162 HD
BRANCH  45  47
ATOM     47  C20 non d ame      -8.055  10.643  66.022  0.00  0.00     0.013 C 
ATOM     48  H30 non d ame      -7.524  10.944  65.120  0.00  0.00     0.072 H 
BRANCH  47  49
ATOM     49  C21 non d ame      -9.542  10.847  65.839  0.00  0.00    -0.038 C 
ATOM     50  H31 non d ame      -9.642  11.585  65.043  0.00  0.00     0.036 H 
ATOM     51  H32 non d ame      -9.962   9.849  65.713  0.00  0.00     0.036 H 
BRANCH  49  52
ATOM     52  C22 non d ame     -10.222  11.453  67.086  0.00  0.00     0.018 C 
ATOM     53  H33 non d ame      -9.414  11.675  67.784  0.00  0.00     0.048 H 
ATOM     54  H34 non d ame     -10.857  12.258  66.714  0.00  0.00     0.048 H 
BRANCH  52  55
ATOM     55  C23 non d ame     -11.169  10.467  67.825  0.00  0.00     0.259 C 
ATOM     56  O7  non d ame     -11.041   9.293  67.690  0.00  0.00    -0.265 OA
BRANCH  55  57
ATOM     57  O8  non d ame     -12.201  10.983  68.656  0.00  0.00    -0.317 OA
BRANCH  57  58
ATOM     58  C29 non d ame     -11.874  11.001  70.048  0.00  0.00     0.052 C 
ATOM     59  H47 non d ame     -12.437  10.180  70.493  0.00  0.00     0.082 H 
ATOM     60  H48 non d ame     -10.785  11.003  70.095  0.00  0.00     0.082 H 
BRANCH  58  61
ATOM     61  C35 non d ame     -12.394  12.335  70.646  0.00  0.00    -0.034 A 
ATOM     62  C30 non d ame     -13.197  12.323  71.782  0.00  0.00    -0.075 A 
ATOM     63  C31 non d ame     -13.665  13.522  72.319  0.00  0.00    -0.082 A 
ATOM     64  H49 non d ame     -13.459  11.375  72.252  0.00  0.00     0.084 H 
ATOM     65  C32 non d ame     -13.329  14.736  71.713  0.00  0.00    -0.083 A 
ATOM     66  H50 non d ame     -14.291  13.509  73.211  0.00  0.00     0.083 H 
ATOM     67  C33 non d ame     -12.531  14.742  70.578  0.00  0.00    -0.082 A 
ATOM     68  H51 non d ame     -13.690  15.677  72.127  0.00  0.00     0.083 H 
ATOM     69  C34 non d ame     -12.059  13.547  70.039  0.00  0.00    -0.075 A 
ATOM     70  H52 non d ame     -12.272  15.691  70.106  0.00  0.00     0.083 H 
ATOM     71  H53 non d ame     -11.432  13.560  69.147  0.00  0.00     0.084 H 
ENDBRANCH  58  61
ENDBRANCH  57  58
ENDBRANCH  55  57
ENDBRANCH  52  55
ENDBRANCH  49  52
ENDBRANCH  47  49
BRANCH  47  72
ATOM     72  C24 non d ame      -7.776   9.174  66.336  0.00  0.00    -0.039 C 
ATOM     73  H35 non d ame      -6.969   9.182  67.069  0.00  0.00     0.036 H 
ATOM     74  H36 non d ame      -8.744   8.745  66.596  0.00  0.00     0.036 H 
BRANCH  72  75
ATOM     75  C25 non d ame      -7.239   8.385  65.050  0.00  0.00    -0.001 C 
ATOM     76  C26 non d ame      -7.005   9.435  63.806  0.00  0.00    -0.035 C 
ATOM     77  C27 non d ame      -7.640   8.959  62.709  0.00  0.00     0.085 C 
ATOM     78  H38 non d ame      -7.517  10.375  64.009  0.00  0.00     0.036 H 
ATOM     79  H39 non d ame      -5.955   9.438  63.512  0.00  0.00     0.036 H 
ATOM     80  N5  non d ame      -8.556   7.852  63.173  0.00  0.00    -0.049 N 
ATOM     81  H40 non d ame      -8.245   9.788  62.339  0.00  0.00     0.075 H 
ATOM     82  H41 non d ame      -6.858   8.533  62.081  0.00  0.00     0.075 H 
ATOM     83  C28 non d ame      -8.079   7.481  64.671  0.00  0.00     0.193 C 
ATOM     84  H42 non d ame      -9.483   8.248  63.220  0.00  0.00     0.280 HD
ATOM     85  H43 non d ame      -8.374   7.060  62.573  0.00  0.00     0.280 HD
ATOM     86  H44 non d ame      -7.499   6.578  64.860  0.00  0.00     0.129 H 
ATOM     87  H37 non d ame      -6.416   7.712  65.293  0.00  0.00     0.046 H 
BRANCH  83  88
ATOM     88  O6  non d ame      -9.210   7.397  65.541  0.00  0.00    -0.369 OA
ATOM     89  H45 non d ame      -9.359   6.481  65.783  0.00  0.00     0.212 HD
ENDBRANCH  83  88
ENDBRANCH  72  75
ENDBRANCH  47  72
ENDBRANCH  45  47
ENDBRANCH   1  43
BRANCH   1  90
ATOM     90  C16 non d ame      -6.282  12.475  69.574  0.00  0.00    -0.035 C 
ATOM     91  H21 non d ame      -7.137  13.126  69.755  0.00  0.00     0.037 H 
ATOM     92  H22 non d ame      -6.431  11.402  69.452  0.00  0.00     0.037 H 
BRANCH  90  93
ATOM     93  C17 non d ame      -5.327  12.651  70.798  0.00  0.00    -0.059 C 
ATOM     94  H23 non d ame      -5.496  11.811  71.473  0.00  0.00     0.038 H 
BRANCH  93  95
ATOM     95  C18 non d ame      -3.822  12.631  70.379  0.00  0.00    -0.073 C 
ATOM     96  H24 non d ame      -3.586  13.544  69.832  0.00  0.00     0.028 H 
ATOM     97  H25 non d ame      -3.198  12.570  71.271  0.00  0.00     0.028 H 
ATOM     98  H26 non d ame      -3.634  11.766  69.743  0.00  0.00     0.028 H 
ENDBRANCH  93  95
BRANCH  93  99
ATOM     99  C19 non d ame      -5.661  13.929  71.572  0.00  0.00    -0.073 C 
ATOM    100  H27 non d ame      -6.608  13.801  72.096  0.00  0.00     0.028 H 
ATOM    101  H28 non d ame      -4.870  14.133  72.295  0.00  0.00     0.028 H 
ATOM    102  H29 non d ame      -5.740  14.765  70.876  0.00  0.00     0.028 H 
ENDBRANCH  93  99
ENDBRANCH  90  93
ENDBRANCH   1  90
TORSDOF 26
ENDMDL
MODEL 9
REMARK VINA RESULT:      -6.7      2.550      5.484
REMARK  26 active torsions:
REMARK  status: ('A' for Active; 'I' for Inactive)
REMARK    1  A    between atoms: C2_2  and  C3_3 
REMARK    2  A    between atoms: C4_6  and  C5_7 
REMARK       I    between atoms: C5_7  and  N2_9 
REMARK    3  A    between atoms: N2_9  and  C6_10 
REMARK    4  A    between atoms: C6_10  and  C7_11 
REMARK    5  A    between atoms: C6_10  and  C8_13 
REMARK       I    between atoms: C7_11  and  N3_14 
REMARK    6  A    between atoms: N3_14  and  C9_15 
REMARK    7  A    between atoms: C9_15  and  C10_16 
REMARK    8  A    between atoms: C9_15  and  C11_18 
REMARK       I    between atoms: C10_16  and  N4_21 
REMARK    9  A    between atoms: C11_18  and  C12_19 
REMARK   10  A    between atoms: C11_18  and  C13_20 
REMARK   11  A    between atoms: N4_21  and  C14_22 
REMARK   12  A    between atoms: C14_22  and  C15_23 
REMARK   13  A    between atoms: C14_22  and  C16_25 
REMARK       I    between atoms: C15_23  and  N6_40 
REMARK   14  A    between atoms: C16_25  and  C17_26 
REMARK   15  A    between atoms: C17_26  and  C18_27 
REMARK   16  A    between atoms: C17_26  and  C19_28 
REMARK   17  A    between atoms: C20_29  and  C21_30 
REMARK   18  A    between atoms: C20_29  and  C24_33 
REMARK   19  A    between atoms: C20_29  and  N6_40 
REMARK   20  A    between atoms: C21_30  and  C22_31 
REMARK   21  A    between atoms: C22_31  and  C23_32 
REMARK   22  A    between atoms: C23_32  and  O8_43 
REMARK   23  A    between atoms: C24_33  and  C25_34 
REMARK   24  A    between atoms: C28_38  and  O6_39 
REMARK   25  A    between atoms: C29_42  and  O8_43 
REMARK   26  A    between atoms: C29_42  and  C35_49 
ROOT
ATOM      1  C14 non d ame     -10.159  10.192  68.737  0.00  0.00     0.089 C 
ATOM      2  H20 non d ame      -9.360  10.262  69.477  0.00  0.00     0.087 H 
ENDROOT
BRANCH   1   3
ATOM      3  N4  non d ame     -10.810   8.903  68.916  0.00  0.00    -0.346 N 
ATOM      4  C10 non d ame     -10.040   7.731  69.471  0.00  0.00     0.241 C 
ATOM      5  O4  non d ame      -8.896   7.849  69.765  0.00  0.00    -0.271 OA
ATOM      6  H19 non d ame     -11.783   8.822  68.657  0.00  0.00     0.163 HD
BRANCH   4   7
ATOM      7  C9  non d ame     -10.731   6.405  69.655  0.00  0.00     0.092 C 
ATOM      8  H11 non d ame     -11.804   6.539  69.517  0.00  0.00     0.088 H 
BRANCH   7   9
ATOM      9  N3  non d ame     -10.275   5.469  68.623  0.00  0.00    -0.346 N 
ATOM     10  C7  non d ame     -10.643   5.681  67.245  0.00  0.00     0.240 C 
ATOM     11  O3  non d ame     -11.307   6.598  66.948  0.00  0.00    -0.271 OA
ATOM     12  H10 non d ame      -9.703   4.672  68.864  0.00  0.00     0.163 HD
BRANCH  10  13
ATOM     13  C6  non d ame     -10.157   4.679  66.151  0.00  0.00     0.086 C 
ATOM     14  H6  non d ame     -10.980   4.186  65.635  0.00  0.00     0.086 H 
BRANCH  13  15
ATOM     15  N2  non d ame      -9.410   5.410  65.141  0.00  0.00    -0.343 N 
ATOM     16  C5  non d ame      -8.241   6.198  65.537  0.00  0.00     0.273 C 
ATOM     17  O2  non d ame      -7.911   6.239  66.672  0.00  0.00    -0.266 OA
ATOM     18  H5  non d ame      -9.701   5.370  64.174  0.00  0.00     0.163 HD
BRANCH  16  19
ATOM     19  C4  non d ame      -7.441   6.974  64.480  0.00  0.00     0.154 A 
ATOM     20  C1  non d ame      -6.044   7.282  64.506  0.00  0.00    -0.017 A 
ATOM     21  C2  non d ame      -5.808   8.003  63.314  0.00  0.00     0.077 A 
ATOM     22  H1  non d ame      -5.314   7.023  65.273  0.00  0.00     0.091 H 
ATOM     23  O1  non d ame      -6.943   8.091  62.683  0.00  0.00    -0.218 OA
ATOM     24  N1  non d ame      -7.911   7.498  63.344  0.00  0.00    -0.123 NA
BRANCH  21  25
ATOM     25  C3  non d ame      -4.472   8.570  62.852  0.00  0.00    -0.029 C 
ATOM     26  H2  non d ame      -4.008   9.120  63.671  0.00  0.00     0.036 H 
ATOM     27  H3  non d ame      -3.818   7.753  62.547  0.00  0.00     0.036 H 
ATOM     28  H4  non d ame      -4.634   9.241  62.009  0.00  0.00     0.036 H 
ENDBRANCH  21  25
ENDBRANCH  16  19
ENDBRANCH  13  15
BRANCH  13  29
ATOM     29  C8  non d ame      -9.279   3.628  66.783  0.00  0.00    -0.049 C 
ATOM     30  H7  non d ame      -8.234   3.850  66.568  0.00  0.00     0.030 H 
ATOM     31  H8  non d ame      -9.435   3.625  67.862  0.00  0.00     0.030 H 
ATOM     32  H9  non d ame      -9.534   2.650  66.376  0.00  0.00     0.030 H 
ENDBRANCH  13  29
ENDBRANCH  10  13
ENDBRANCH   7   9
BRANCH   7  33
ATOM     33  C11 non d ame     -10.388   5.832  71.060  0.00  0.00    -0.033 C 
ATOM     34  H12 non d ame      -9.549   6.406  71.454  0.00  0.00     0.042 H 
BRANCH  33  35
ATOM     35  C12 non d ame     -11.581   6.005  72.052  0.00  0.00    -0.071 C 
ATOM     36  H13 non d ame     -12.514   6.055  71.491  0.00  0.00     0.028 H 
ATOM     37  H14 non d ame     -11.612   5.155  72.733  0.00  0.00     0.028 H 
ATOM     38  H15 non d ame     -11.448   6.924  72.622  0.00  0.00     0.028 H 
ENDBRANCH  33  35
BRANCH  33  39
ATOM     39  C13 non d ame      -9.946   4.336  70.962  0.00  0.00    -0.071 C 
ATOM     40  H16 non d ame      -9.919   4.034  69.915  0.00  0.00     0.028 H 
ATOM     41  H17 non d ame      -8.954   4.221  71.399  0.00  0.00     0.028 H 
ATOM     42  H18 non d ame     -10.657   3.711  71.502  0.00  0.00     0.028 H 
ENDBRANCH  33  39
ENDBRANCH   7  33
ENDBRANCH   4   7
ENDBRANCH   1   3
BRANCH   1  43
ATOM     43  C15 non d ame     -11.223  11.313  68.914  0.00  0.00     0.240 C 
ATOM     44  O5  non d ame     -12.351  11.025  69.151  0.00  0.00    -0.271 OA
ATOM     45  N6  non d ame     -10.833  12.747  68.797  0.00  0.00    -0.355 N 
ATOM     46  H46 non d ame      -9.876  13.004  68.601  0.00  0.00     0.162 HD
BRANCH  45  47
ATOM     47  C20 non d ame     -11.856  13.801  68.970  0.00  0.00     0.013 C 
ATOM     48  H30 non d ame     -12.795  13.316  69.235  0.00  0.00     0.072 H 
BRANCH  47  49
ATOM     49  C21 non d ame     -12.014  14.560  67.672  0.00  0.00    -0.038 C 
ATOM     50  H31 non d ame     -13.046  14.397  67.359  0.00  0.00     0.036 H 
ATOM     51  H32 non d ame     -11.661  15.571  67.877  0.00  0.00     0.036 H 
BRANCH  49  52
ATOM     52  C22 non d ame     -11.121  14.007  66.540  0.00  0.00     0.018 C 
ATOM     53  H33 non d ame     -10.094  14.167  66.869  0.00  0.00     0.048 H 
ATOM     54  H34 non d ame     -11.480  12.995  66.349  0.00  0.00     0.048 H 
BRANCH  52  55
ATOM     55  C23 non d ame     -11.266  14.773  65.197  0.00  0.00     0.259 C 
ATOM     56  O7  non d ame     -11.971  14.355  64.336  0.00  0.00    -0.265 OA
BRANCH  55  57
ATOM     57  O8  non d ame     -10.534  15.977  64.999  0.00  0.00    -0.317 OA
BRANCH  57  58
ATOM     58  C29 non d ame      -9.419  16.132  65.881  0.00  0.00     0.052 C 
ATOM     59  H47 non d ame      -9.447  15.270  66.547  0.00  0.00     0.082 H 
ATOM     60  H48 non d ame      -8.554  16.295  65.237  0.00  0.00     0.082 H 
BRANCH  58  61
ATOM     61  C35 non d ame      -9.650  17.413  66.726  0.00  0.00    -0.034 A 
ATOM     62  C30 non d ame     -10.282  18.516  66.161  0.00  0.00    -0.075 A 
ATOM     63  C31 non d ame     -10.490  19.667  66.919  0.00  0.00    -0.082 A 
ATOM     64  H49 non d ame     -10.616  18.478  65.124  0.00  0.00     0.084 H 
ATOM     65  C32 non d ame     -10.059  19.714  68.248  0.00  0.00    -0.083 A 
ATOM     66  H50 non d ame     -10.988  20.528  66.474  0.00  0.00     0.083 H 
ATOM     67  C33 non d ame      -9.425  18.612  68.807  0.00  0.00    -0.082 A 
ATOM     68  H51 non d ame     -10.218  20.609  68.849  0.00  0.00     0.083 H 
ATOM     69  C34 non d ame      -9.218  17.459  68.053  0.00  0.00    -0.075 A 
ATOM     70  H52 non d ame      -9.088  18.653  69.843  0.00  0.00     0.083 H 
ATOM     71  H53 non d ame      -8.720  16.597  68.499  0.00  0.00     0.084 H 
ENDBRANCH  58  61
ENDBRANCH  57  58
ENDBRANCH  55  57
ENDBRANCH  52  55
ENDBRANCH  49  52
ENDBRANCH  47  49
BRANCH  47  72
ATOM     72  C24 non d ame     -11.425  14.763  70.074  0.00  0.00    -0.039 C 
ATOM     73  H35 non d ame     -10.371  14.547  70.253  0.00  0.00     0.036 H 
ATOM     74  H36 non d ame     -11.727  15.753  69.731  0.00  0.00     0.036 H 
BRANCH  72  75
ATOM     75  C25 non d ame     -12.205  14.480  71.445  0.00  0.00    -0.001 C 
ATOM     76  C26 non d ame     -13.728  13.948  71.123  0.00  0.00    -0.035 C 
ATOM     77  C27 non d ame     -14.609  14.695  71.830  0.00  0.00     0.085 C 
ATOM     78  H38 non d ame     -13.987  14.162  70.086  0.00  0.00     0.036 H 
ATOM     79  H39 non d ame     -13.866  12.944  71.523  0.00  0.00     0.036 H 
ATOM     80  N5  non d ame     -13.854  15.895  72.350  0.00  0.00    -0.049 N 
ATOM     81  H40 non d ame     -15.354  15.030  71.107  0.00  0.00     0.075 H 
ATOM     82  H41 non d ame     -14.908  14.072  72.672  0.00  0.00     0.075 H 
ATOM     83  C28 non d ame     -12.288  15.548  72.165  0.00  0.00     0.193 C 
ATOM     84  H42 non d ame     -14.087  16.666  71.741  0.00  0.00     0.280 HD
ATOM     85  H43 non d ame     -14.055  15.953  73.338  0.00  0.00     0.280 HD
ATOM     86  H44 non d ame     -11.680  15.258  73.022  0.00  0.00     0.129 H 
ATOM     87  H37 non d ame     -11.611  13.890  72.143  0.00  0.00     0.046 H 
BRANCH  83  88
ATOM     88  O6  non d ame     -11.606  16.654  71.570  0.00  0.00    -0.369 OA
ATOM     89  H45 non d ame     -11.414  16.454  70.651  0.00  0.00     0.212 HD
ENDBRANCH  83  88
ENDBRANCH  72  75
ENDBRANCH  47  72
ENDBRANCH  45  47
ENDBRANCH   1  43
BRANCH   1  90
ATOM     90  C16 non d ame      -9.571  10.261  67.337  0.00  0.00    -0.035 C 
ATOM     91  H21 non d ame      -9.420   9.225  67.035  0.00  0.00     0.037 H 
ATOM     92  H22 non d ame     -10.249  10.900  66.771  0.00  0.00     0.037 H 
BRANCH  90  93
ATOM     93  C17 non d ame      -8.168  10.946  67.279  0.00  0.00    -0.059 C 
ATOM     94  H23 non d ame      -8.316  11.975  66.950  0.00  0.00     0.038 H 
BRANCH  93  95
ATOM     95  C18 non d ame      -7.475  10.989  68.679  0.00  0.00    -0.073 C 
ATOM     96  H24 non d ame      -6.535  11.533  68.602  0.00  0.00     0.028 H 
ATOM     97  H25 non d ame      -8.129  11.490  69.393  0.00  0.00     0.028 H 
ATOM     98  H26 non d ame      -7.280   9.971  69.018  0.00  0.00     0.028 H 
ENDBRANCH  93  95
BRANCH  93  99
ATOM     99  C19 non d ame      -7.269  10.263  66.246  0.00  0.00    -0.073 C 
ATOM    100  H27 non d ame      -7.849  10.037  65.351  0.00  0.00     0.028 H 
ATOM    101  H28 non d ame      -6.444  10.927  65.987  0.00  0.00     0.028 H 
ATOM    102  H29 non d ame      -6.872   9.338  66.665  0.00  0.00     0.028 H 
ENDBRANCH  93  99
ENDBRANCH  90  93
ENDBRANCH   1  90
TORSDOF 26
ENDMDL
MODEL 10
REMARK VINA RESULT:      -6.6      2.857      8.275
REMARK  26 active torsions:
REMARK  status: ('A' for Active; 'I' for Inactive)
REMARK    1  A    between atoms: C2_2  and  C3_3 
REMARK    2  A    between atoms: C4_6  and  C5_7 
REMARK       I    between atoms: C5_7  and  N2_9 
REMARK    3  A    between atoms: N2_9  and  C6_10 
REMARK    4  A    between atoms: C6_10  and  C7_11 
REMARK    5  A    between atoms: C6_10  and  C8_13 
REMARK       I    between atoms: C7_11  and  N3_14 
REMARK    6  A    between atoms: N3_14  and  C9_15 
REMARK    7  A    between atoms: C9_15  and  C10_16 
REMARK    8  A    between atoms: C9_15  and  C11_18 
REMARK       I    between atoms: C10_16  and  N4_21 
REMARK    9  A    between atoms: C11_18  and  C12_19 
REMARK   10  A    between atoms: C11_18  and  C13_20 
REMARK   11  A    between atoms: N4_21  and  C14_22 
REMARK   12  A    between atoms: C14_22  and  C15_23 
REMARK   13  A    between atoms: C14_22  and  C16_25 
REMARK       I    between atoms: C15_23  and  N6_40 
REMARK   14  A    between atoms: C16_25  and  C17_26 
REMARK   15  A    between atoms: C17_26  and  C18_27 
REMARK   16  A    between atoms: C17_26  and  C19_28 
REMARK   17  A    between atoms: C20_29  and  C21_30 
REMARK   18  A    between atoms: C20_29  and  C24_33 
REMARK   19  A    between atoms: C20_29  and  N6_40 
REMARK   20  A    between atoms: C21_30  and  C22_31 
REMARK   21  A    between atoms: C22_31  and  C23_32 
REMARK   22  A    between atoms: C23_32  and  O8_43 
REMARK   23  A    between atoms: C24_33  and  C25_34 
REMARK   24  A    between atoms: C28_38  and  O6_39 
REMARK   25  A    between atoms: C29_42  and  O8_43 
REMARK   26  A    between atoms: C29_42  and  C35_49 
ROOT
ATOM      1  C14 non d ame      -6.461  10.883  68.835  0.00  0.00     0.089 C 
ATOM      2  H20 non d ame      -5.484  11.175  68.447  0.00  0.00     0.087 H 
ENDROOT
BRANCH   1   3
ATOM      3  N4  non d ame      -7.319  12.058  68.789  0.00  0.00    -0.346 N 
ATOM      4  C10 non d ame      -6.931  13.252  67.954  0.00  0.00     0.241 C 
ATOM      5  O4  non d ame      -5.922  13.245  67.329  0.00  0.00    -0.271 OA
ATOM      6  H19 non d ame      -8.172  12.045  69.330  0.00  0.00     0.163 HD
BRANCH   4   7
ATOM      7  C9  non d ame      -7.833  14.457  67.914  0.00  0.00     0.092 C 
ATOM      8  H11 non d ame      -8.141  14.641  66.884  0.00  0.00     0.088 H 
BRANCH   7   9
ATOM      9  N3  non d ame      -9.049  14.184  68.687  0.00  0.00    -0.346 N 
ATOM     10  C7  non d ame     -10.316  14.048  68.012  0.00  0.00     0.240 C 
ATOM     11  O3  non d ame     -10.376  14.157  66.848  0.00  0.00    -0.271 OA
ATOM     12  H10 non d ame      -9.013  14.090  69.691  0.00  0.00     0.163 HD
BRANCH  10  13
ATOM     13  C6  non d ame     -11.607  13.761  68.840  0.00  0.00     0.086 C 
ATOM     14  H6  non d ame     -12.428  13.392  68.226  0.00  0.00     0.086 H 
BRANCH  13  15
ATOM     15  N2  non d ame     -11.319  12.724  69.817  0.00  0.00    -0.343 N 
ATOM     16  C5  non d ame     -11.624  11.327  69.498  0.00  0.00     0.273 C 
ATOM     17  O2  non d ame     -12.104  11.049  68.454  0.00  0.00    -0.266 OA
ATOM     18  H5  non d ame     -10.911  12.971  70.707  0.00  0.00     0.163 HD
BRANCH  16  19
ATOM     19  C4  non d ame     -11.323  10.221  70.520  0.00  0.00     0.154 A 
ATOM     20  C1  non d ame     -10.086   9.526  70.704  0.00  0.00    -0.017 A 
ATOM     21  C2  non d ame     -10.331   8.618  71.758  0.00  0.00     0.077 A 
ATOM     22  H1  non d ame      -9.153   9.660  70.156  0.00  0.00     0.091 H 
ATOM     23  O1  non d ame     -11.567   8.782  72.130  0.00  0.00    -0.218 OA
ATOM     24  N1  non d ame     -12.167   9.711  71.422  0.00  0.00    -0.123 NA
BRANCH  21  25
ATOM     25  C3  non d ame      -9.333   7.632  72.350  0.00  0.00    -0.029 C 
ATOM     26  H2  non d ame      -9.235   7.812  73.421  0.00  0.00     0.036 H 
ATOM     27  H3  non d ame      -9.685   6.615  72.183  0.00  0.00     0.036 H 
ATOM     28  H4  non d ame      -8.363   7.764  71.869  0.00  0.00     0.036 H 
ENDBRANCH  21  25
ENDBRANCH  16  19
ENDBRANCH  13  15
BRANCH  13  29
ATOM     29  C8  non d ame     -12.049  15.021  69.540  0.00  0.00    -0.049 C 
ATOM     30  H7  non d ame     -11.190  15.494  70.015  0.00  0.00     0.030 H 
ATOM     31  H8  non d ame     -12.485  15.706  68.813  0.00  0.00     0.030 H 
ATOM     32  H9  non d ame     -12.792  14.773  70.297  0.00  0.00     0.030 H 
ENDBRANCH  13  29
ENDBRANCH  10  13
ENDBRANCH   7   9
BRANCH   7  33
ATOM     33  C11 non d ame      -7.093  15.680  68.531  0.00  0.00    -0.033 C 
ATOM     34  H12 non d ame      -6.251  15.917  67.881  0.00  0.00     0.042 H 
BRANCH  33  35
ATOM     35  C12 non d ame      -8.016  16.938  68.579  0.00  0.00    -0.071 C 
ATOM     36  H13 non d ame      -8.009  17.355  69.586  0.00  0.00     0.028 H 
ATOM     37  H14 non d ame      -7.649  17.685  67.875  0.00  0.00     0.028 H 
ATOM     38  H15 non d ame      -9.032  16.653  68.310  0.00  0.00     0.028 H 
ENDBRANCH  33  35
BRANCH  33  39
ATOM     39  C13 non d ame      -6.530  15.337  69.947  0.00  0.00    -0.071 C 
ATOM     40  H16 non d ame      -5.535  15.767  70.057  0.00  0.00     0.028 H 
ATOM     41  H17 non d ame      -7.190  15.749  70.711  0.00  0.00     0.028 H 
ATOM     42  H18 non d ame      -6.473  14.254  70.062  0.00  0.00     0.028 H 
ENDBRANCH  33  39
ENDBRANCH   7  33
ENDBRANCH   4   7
ENDBRANCH   1   3
BRANCH   1  43
ATOM     43  C15 non d ame      -7.118   9.757  67.987  0.00  0.00     0.240 C 
ATOM     44  O5  non d ame      -6.539   8.733  67.814  0.00  0.00    -0.271 OA
ATOM     45  N6  non d ame      -8.473   9.951  67.397  0.00  0.00    -0.355 N 
ATOM     46  H46 non d ame      -8.976  10.815  67.541  0.00  0.00     0.162 HD
BRANCH  45  47
ATOM     47  C20 non d ame      -9.085   8.870  66.594  0.00  0.00     0.013 C 
ATOM     48  H30 non d ame      -8.284   8.343  66.077  0.00  0.00     0.072 H 
BRANCH  47  49
ATOM     49  C21 non d ame     -10.040   9.473  65.590  0.00  0.00    -0.038 C 
ATOM     50  H31 non d ame      -9.803   8.999  64.637  0.00  0.00     0.036 H 
ATOM     51  H32 non d ame     -11.034   9.359  66.024  0.00  0.00     0.036 H 
BRANCH  49  52
ATOM     52  C22 non d ame      -9.822  10.989  65.390  0.00  0.00     0.018 C 
ATOM     53  H33 non d ame     -10.483  11.479  66.104  0.00  0.00     0.048 H 
ATOM     54  H34 non d ame      -8.744  11.142  65.451  0.00  0.00     0.048 H 
BRANCH  52  55
ATOM     55  C23 non d ame     -10.249  11.504  63.987  0.00  0.00     0.259 C 
ATOM     56  O7  non d ame     -10.868  12.512  63.878  0.00  0.00    -0.265 OA
BRANCH  55  57
ATOM     57  O8  non d ame      -9.903  10.748  62.833  0.00  0.00    -0.317 OA
BRANCH  57  58
ATOM     58  C29 non d ame      -8.592  11.022  62.330  0.00  0.00     0.052 C 
ATOM     59  H47 non d ame      -8.674  10.959  61.244  0.00  0.00     0.082 H 
ATOM     60  H48 non d ame      -8.285  11.956  62.800  0.00  0.00     0.082 H 
BRANCH  58  61
ATOM     61  C35 non d ame      -7.646   9.892  62.817  0.00  0.00    -0.034 A 
ATOM     62  C30 non d ame      -6.588  10.189  63.670  0.00  0.00    -0.075 A 
ATOM     63  C31 non d ame      -5.738   9.174  64.107  0.00  0.00    -0.082 A 
ATOM     64  H49 non d ame      -6.425  11.216  63.995  0.00  0.00     0.084 H 
ATOM     65  C32 non d ame      -5.949   7.858  63.687  0.00  0.00    -0.083 A 
ATOM     66  H50 non d ame      -4.911   9.410  64.777  0.00  0.00     0.083 H 
ATOM     67  C33 non d ame      -7.004   7.567  62.834  0.00  0.00    -0.082 A 
ATOM     68  H51 non d ame      -5.289   7.059  64.025  0.00  0.00     0.083 H 
ATOM     69  C34 non d ame      -7.857   8.578  62.395  0.00  0.00    -0.075 A 
ATOM     70  H52 non d ame      -7.164   6.540  62.506  0.00  0.00     0.083 H 
ATOM     71  H53 non d ame      -8.685   8.341  61.726  0.00  0.00     0.084 H 
ENDBRANCH  58  61
ENDBRANCH  57  58
ENDBRANCH  55  57
ENDBRANCH  52  55
ENDBRANCH  49  52
ENDBRANCH  47  49
BRANCH  47  72
ATOM     72  C24 non d ame      -9.845   7.913  67.510  0.00  0.00    -0.039 C 
ATOM     73  H35 non d ame      -9.551   8.188  68.524  0.00  0.00     0.036 H 
ATOM     74  H36 non d ame     -10.889   7.989  67.206  0.00  0.00     0.036 H 
BRANCH  72  75
ATOM     75  C25 non d ame      -9.395   6.393  67.284  0.00  0.00    -0.001 C 
ATOM     76  C26 non d ame      -8.221   6.322  66.134  0.00  0.00    -0.035 C 
ATOM     77  C27 non d ame      -8.577   5.405  65.203  0.00  0.00     0.085 C 
ATOM     78  H38 non d ame      -8.190   7.256  65.574  0.00  0.00     0.036 H 
ATOM     79  H39 non d ame      -7.305   5.911  66.560  0.00  0.00     0.036 H 
ATOM     80  N5  non d ame     -10.033   5.081  65.436  0.00  0.00    -0.049 N 
ATOM     81  H40 non d ame      -8.474   5.910  64.242  0.00  0.00     0.075 H 
ATOM     82  H41 non d ame      -7.978   4.521  65.421  0.00  0.00     0.075 H 
ATOM     83  C28 non d ame     -10.388   5.663  66.899  0.00  0.00     0.193 C 
ATOM     84  H42 non d ame     -10.555   5.603  64.747  0.00  0.00     0.280 HD
ATOM     85  H43 non d ame     -10.101   4.074  65.466  0.00  0.00     0.280 HD
ATOM     86  H44 non d ame     -10.484   4.993  67.753  0.00  0.00     0.129 H 
ATOM     87  H37 non d ame      -9.201   5.875  68.223  0.00  0.00     0.046 H 
BRANCH  83  88
ATOM     88  O6  non d ame     -11.611   6.400  66.853  0.00  0.00    -0.369 OA
ATOM     89  H45 non d ame     -11.506   7.226  67.330  0.00  0.00     0.212 HD
ENDBRANCH  83  88
ENDBRANCH  72  75
ENDBRANCH  47  72
ENDBRANCH  45  47
ENDBRANCH   1  43
BRANCH   1  90
ATOM     90  C16 non d ame      -6.326  10.424  70.278  0.00  0.00    -0.035 C 
ATOM     91  H21 non d ame      -6.911  11.133  70.863  0.00  0.00     0.037 H 
ATOM     92  H22 non d ame      -6.597   9.368  70.272  0.00  0.00     0.037 H 
BRANCH  90  93
ATOM     93  C17 non d ame      -4.865  10.500  70.826  0.00  0.00    -0.059 C 
ATOM     94  H23 non d ame      -4.318   9.644  70.431  0.00  0.00     0.038 H 
BRANCH  93  95
ATOM     95  C18 non d ame      -4.126  11.795  70.356  0.00  0.00    -0.073 C 
ATOM     96  H24 non d ame      -3.097  11.551  70.094  0.00  0.00     0.028 H 
ATOM     97  H25 non d ame      -4.635  12.208  69.485  0.00  0.00     0.028 H 
ATOM     98  H26 non d ame      -4.133  12.529  71.162  0.00  0.00     0.028 H 
ENDBRANCH  93  95
BRANCH  93  99
ATOM     99  C19 non d ame      -4.847  10.386  72.352  0.00  0.00    -0.073 C 
ATOM    100  H27 non d ame      -5.037  11.366  72.792  0.00  0.00     0.028 H 
ATOM    101  H28 non d ame      -5.619   9.687  72.673  0.00  0.00     0.028 H 
ATOM    102  H29 non d ame      -3.872  10.024  72.678  0.00  0.00     0.028 H 
ENDBRANCH  93  99
ENDBRANCH  90  93
ENDBRANCH   1  90
TORSDOF 26
ENDMDL
MODEL 11
REMARK VINA RESULT:      -6.6      1.881      6.024
REMARK  26 active torsions:
REMARK  status: ('A' for Active; 'I' for Inactive)
REMARK    1  A    between atoms: C2_2  and  C3_3 
REMARK    2  A    between atoms: C4_6  and  C5_7 
REMARK       I    between atoms: C5_7  and  N2_9 
REMARK    3  A    between atoms: N2_9  and  C6_10 
REMARK    4  A    between atoms: C6_10  and  C7_11 
REMARK    5  A    between atoms: C6_10  and  C8_13 
REMARK       I    between atoms: C7_11  and  N3_14 
REMARK    6  A    between atoms: N3_14  and  C9_15 
REMARK    7  A    between atoms: C9_15  and  C10_16 
REMARK    8  A    between atoms: C9_15  and  C11_18 
REMARK       I    between atoms: C10_16  and  N4_21 
REMARK    9  A    between atoms: C11_18  and  C12_19 
REMARK   10  A    between atoms: C11_18  and  C13_20 
REMARK   11  A    between atoms: N4_21  and  C14_22 
REMARK   12  A    between atoms: C14_22  and  C15_23 
REMARK   13  A    between atoms: C14_22  and  C16_25 
REMARK       I    between atoms: C15_23  and  N6_40 
REMARK   14  A    between atoms: C16_25  and  C17_26 
REMARK   15  A    between atoms: C17_26  and  C18_27 
REMARK   16  A    between atoms: C17_26  and  C19_28 
REMARK   17  A    between atoms: C20_29  and  C21_30 
REMARK   18  A    between atoms: C20_29  and  C24_33 
REMARK   19  A    between atoms: C20_29  and  N6_40 
REMARK   20  A    between atoms: C21_30  and  C22_31 
REMARK   21  A    between atoms: C22_31  and  C23_32 
REMARK   22  A    between atoms: C23_32  and  O8_43 
REMARK   23  A    between atoms: C24_33  and  C25_34 
REMARK   24  A    between atoms: C28_38  and  O6_39 
REMARK   25  A    between atoms: C29_42  and  O8_43 
REMARK   26  A    between atoms: C29_42  and  C35_49 
ROOT
ATOM      1  C14 non d ame     -10.875   9.527  69.136  0.00  0.00     0.089 C 
ATOM      2  H20 non d ame     -11.594   8.726  68.963  0.00  0.00     0.087 H 
ENDROOT
BRANCH   1   3
ATOM      3  N4  non d ame      -9.818   9.389  68.146  0.00  0.00    -0.346 N 
ATOM      4  C10 non d ame      -8.714  10.413  68.062  0.00  0.00     0.241 C 
ATOM      5  O4  non d ame      -8.699  11.341  68.802  0.00  0.00    -0.271 OA
ATOM      6  H19 non d ame      -9.850   8.594  67.524  0.00  0.00     0.163 HD
BRANCH   4   7
ATOM      7  C9  non d ame      -7.624  10.252  67.035  0.00  0.00     0.092 C 
ATOM      8  H11 non d ame      -7.378   9.195  66.937  0.00  0.00     0.088 H 
BRANCH   7   9
ATOM      9  N3  non d ame      -8.113  10.706  65.729  0.00  0.00    -0.346 N 
ATOM     10  C7  non d ame      -8.425   9.742  64.702  0.00  0.00     0.240 C 
ATOM     11  O3  non d ame      -8.288   8.598  64.909  0.00  0.00    -0.271 OA
ATOM     12  H10 non d ame      -8.234  11.689  65.535  0.00  0.00     0.163 HD
BRANCH  10  13
ATOM     13  C6  non d ame      -8.942  10.231  63.314  0.00  0.00     0.086 C 
ATOM     14  H6  non d ame      -9.804   9.665  62.961  0.00  0.00     0.086 H 
BRANCH  13  15
ATOM     15  N2  non d ame      -9.372  11.614  63.431  0.00  0.00    -0.343 N 
ATOM     16  C5  non d ame     -10.609  11.926  64.151  0.00  0.00     0.273 C 
ATOM     17  O2  non d ame     -11.252  11.057  64.629  0.00  0.00    -0.266 OA
ATOM     18  H5  non d ame      -8.818  12.351  63.017  0.00  0.00     0.163 HD
BRANCH  16  19
ATOM     19  C4  non d ame     -11.075  13.384  64.285  0.00  0.00     0.154 A 
ATOM     20  C1  non d ame     -10.324  14.489  64.798  0.00  0.00    -0.017 A 
ATOM     21  C2  non d ame     -11.196  15.596  64.705  0.00  0.00     0.077 A 
ATOM     22  H1  non d ame      -9.302  14.487  65.179  0.00  0.00     0.091 H 
ATOM     23  O1  non d ame     -12.314  15.167  64.196  0.00  0.00    -0.218 OA
ATOM     24  N1  non d ame     -12.268  13.880  63.943  0.00  0.00    -0.123 NA
BRANCH  21  25
ATOM     25  C3  non d ame     -10.885  17.027  65.123  0.00  0.00    -0.029 C 
ATOM     26  H2  non d ame     -11.614  17.357  65.864  0.00  0.00     0.036 H 
ATOM     27  H3  non d ame      -9.884  17.070  65.554  0.00  0.00     0.036 H 
ATOM     28  H4  non d ame     -10.932  17.680  64.251  0.00  0.00     0.036 H 
ENDBRANCH  21  25
ENDBRANCH  16  19
ENDBRANCH  13  15
BRANCH  13  29
ATOM     29  C8  non d ame      -7.836  10.119  62.295  0.00  0.00    -0.049 C 
ATOM     30  H7  non d ame      -8.068   9.320  61.592  0.00  0.00     0.030 H 
ATOM     31  H8  non d ame      -7.742  11.062  61.756  0.00  0.00     0.030 H 
ATOM     32  H9  non d ame      -6.897   9.895  62.802  0.00  0.00     0.030 H 
ENDBRANCH  13  29
ENDBRANCH  10  13
ENDBRANCH   7   9
BRANCH   7  33
ATOM     33  C11 non d ame      -6.390  11.105  67.449  0.00  0.00    -0.033 C 
ATOM     34  H12 non d ame      -6.761  12.060  67.823  0.00  0.00     0.042 H 
BRANCH  33  35
ATOM     35  C12 non d ame      -5.592  10.427  68.606  0.00  0.00    -0.071 C 
ATOM     36  H13 non d ame      -5.576   9.348  68.452  0.00  0.00     0.028 H 
ATOM     37  H14 non d ame      -4.571  10.807  68.615  0.00  0.00     0.028 H 
ATOM     38  H15 non d ame      -6.073  10.651  69.558  0.00  0.00     0.028 H 
ENDBRANCH  33  35
BRANCH  33  39
ATOM     39  C13 non d ame      -5.470  11.392  66.219  0.00  0.00    -0.071 C 
ATOM     40  H16 non d ame      -4.950  10.479  65.933  0.00  0.00     0.028 H 
ATOM     41  H17 non d ame      -6.078  11.741  65.384  0.00  0.00     0.028 H 
ATOM     42  H18 non d ame      -4.741  12.159  66.482  0.00  0.00     0.028 H 
ENDBRANCH  33  39
ENDBRANCH   7  33
ENDBRANCH   4   7
ENDBRANCH   1   3
BRANCH   1  43
ATOM     43  C15 non d ame     -11.518  10.936  68.982  0.00  0.00     0.240 C 
ATOM     44  O5  non d ame     -12.122  11.205  67.995  0.00  0.00    -0.271 OA
ATOM     45  N6  non d ame     -11.386  11.946  70.070  0.00  0.00    -0.355 N 
ATOM     46  H46 non d ame     -10.879  11.728  70.915  0.00  0.00     0.162 HD
BRANCH  45  47
ATOM     47  C20 non d ame     -12.004  13.281  69.909  0.00  0.00     0.013 C 
ATOM     48  H30 non d ame     -12.588  13.271  68.989  0.00  0.00     0.072 H 
BRANCH  47  49
ATOM     49  C21 non d ame     -10.916  14.327  69.820  0.00  0.00    -0.038 C 
ATOM     50  H31 non d ame     -11.152  15.063  70.589  0.00  0.00     0.036 H 
ATOM     51  H32 non d ame      -9.976  13.778  69.861  0.00  0.00     0.036 H 
BRANCH  49  52
ATOM     52  C22 non d ame     -10.922  15.085  68.475  0.00  0.00     0.018 C 
ATOM     53  H33 non d ame     -10.196  14.571  67.844  0.00  0.00     0.048 H 
ATOM     54  H34 non d ame     -11.968  15.137  68.170  0.00  0.00     0.048 H 
BRANCH  52  55
ATOM     55  C23 non d ame     -10.433  16.556  68.582  0.00  0.00     0.259 C 
ATOM     56  O7  non d ame     -11.205  17.455  68.502  0.00  0.00    -0.265 OA
BRANCH  55  57
ATOM     57  O8  non d ame      -9.047  16.817  68.765  0.00  0.00    -0.317 OA
BRANCH  57  58
ATOM     58  C29 non d ame      -8.251  16.581  67.600  0.00  0.00     0.052 C 
ATOM     59  H47 non d ame      -7.392  16.003  67.942  0.00  0.00     0.082 H 
ATOM     60  H48 non d ame      -8.930  16.160  66.859  0.00  0.00     0.082 H 
BRANCH  58  61
ATOM     61  C35 non d ame      -7.744  17.952  67.079  0.00  0.00    -0.034 A 
ATOM     62  C30 non d ame      -7.021  18.023  65.893  0.00  0.00    -0.075 A 
ATOM     63  C31 non d ame      -6.565  19.255  65.426  0.00  0.00    -0.082 A 
ATOM     64  H49 non d ame      -6.811  17.114  65.330  0.00  0.00     0.084 H 
ATOM     65  C32 non d ame      -6.833  20.419  66.151  0.00  0.00    -0.083 A 
ATOM     66  H50 non d ame      -6.001  19.307  64.494  0.00  0.00     0.083 H 
ATOM     67  C33 non d ame      -7.553  20.343  67.336  0.00  0.00    -0.082 A 
ATOM     68  H51 non d ame      -6.482  21.386  65.792  0.00  0.00     0.083 H 
ATOM     69  C34 non d ame      -8.012  19.114  67.805  0.00  0.00    -0.075 A 
ATOM     70  H52 non d ame      -7.759  21.253  67.900  0.00  0.00     0.083 H 
ATOM     71  H53 non d ame      -8.577  19.063  68.736  0.00  0.00     0.084 H 
ENDBRANCH  58  61
ENDBRANCH  57  58
ENDBRANCH  55  57
ENDBRANCH  52  55
ENDBRANCH  49  52
ENDBRANCH  47  49
BRANCH  47  72
ATOM     72  C24 non d ame     -12.904  13.581  71.106  0.00  0.00    -0.039 C 
ATOM     73  H35 non d ame     -13.924  13.455  70.740  0.00  0.00     0.036 H 
ATOM     74  H36 non d ame     -12.534  12.949  71.913  0.00  0.00     0.036 H 
BRANCH  72  75
ATOM     75  C25 non d ame     -12.759  15.101  71.590  0.00  0.00    -0.001 C 
ATOM     76  C26 non d ame     -11.959  15.157  73.026  0.00  0.00    -0.035 C 
ATOM     77  C27 non d ame     -12.681  15.898  73.899  0.00  0.00     0.085 C 
ATOM     78  H38 non d ame     -11.943  14.168  73.484  0.00  0.00     0.036 H 
ATOM     79  H39 non d ame     -11.033  15.722  72.917  0.00  0.00     0.036 H 
ATOM     80  N5  non d ame     -14.053  16.079  73.296  0.00  0.00    -0.049 N 
ATOM     81  H40 non d ame     -12.767  15.288  74.799  0.00  0.00     0.075 H 
ATOM     82  H41 non d ame     -12.182  16.866  73.943  0.00  0.00     0.075 H 
ATOM     83  C28 non d ame     -13.915  15.655  71.744  0.00  0.00     0.193 C 
ATOM     84  H42 non d ame     -14.659  15.416  73.758  0.00  0.00     0.280 HD
ATOM     85  H43 non d ame     -14.258  17.067  73.341  0.00  0.00     0.280 HD
ATOM     86  H44 non d ame     -13.876  16.415  70.964  0.00  0.00     0.129 H 
ATOM     87  H37 non d ame     -12.399  15.755  70.796  0.00  0.00     0.046 H 
BRANCH  83  88
ATOM     88  O6  non d ame     -14.984  14.782  71.375  0.00  0.00    -0.369 OA
ATOM     89  H45 non d ame     -14.753  14.316  70.569  0.00  0.00     0.212 HD
ENDBRANCH  83  88
ENDBRANCH  72  75
ENDBRANCH  47  72
ENDBRANCH  45  47
ENDBRANCH   1  43
BRANCH   1  90
ATOM     90  C16 non d ame     -10.274   9.388  70.526  0.00  0.00    -0.035 C 
ATOM     91  H21 non d ame      -9.308   8.907  70.376  0.00  0.00     0.037 H 
ATOM     92  H22 non d ame     -10.323  10.386  70.962  0.00  0.00     0.037 H 
BRANCH  90  93
ATOM     93  C17 non d ame     -11.092   8.452  71.471  0.00  0.00    -0.059 C 
ATOM     94  H23 non d ame     -11.930   9.028  71.863  0.00  0.00     0.038 H 
BRANCH  93  95
ATOM     95  C18 non d ame     -11.675   7.215  70.716  0.00  0.00    -0.073 C 
ATOM     96  H24 non d ame     -11.843   7.475  69.670  0.00  0.00     0.028 H 
ATOM     97  H25 non d ame     -10.969   6.387  70.776  0.00  0.00     0.028 H 
ATOM     98  H26 non d ame     -12.620   6.922  71.174  0.00  0.00     0.028 H 
ENDBRANCH  93  95
BRANCH  93  99
ATOM     99  C19 non d ame     -10.246   8.010  72.668  0.00  0.00    -0.073 C 
ATOM    100  H27 non d ame      -9.383   7.445  72.314  0.00  0.00     0.028 H 
ATOM    101  H28 non d ame      -9.905   8.888  73.216  0.00  0.00     0.028 H 
ATOM    102  H29 non d ame     -10.847   7.382  73.325  0.00  0.00     0.028 H 
ENDBRANCH  93  99
ENDBRANCH  90  93
ENDBRANCH   1  90
TORSDOF 26
ENDMDL
MODEL 12
REMARK VINA RESULT:      -6.6      2.965      5.873
REMARK  26 active torsions:
REMARK  status: ('A' for Active; 'I' for Inactive)
REMARK    1  A    between atoms: C2_2  and  C3_3 
REMARK    2  A    between atoms: C4_6  and  C5_7 
REMARK       I    between atoms: C5_7  and  N2_9 
REMARK    3  A    between atoms: N2_9  and  C6_10 
REMARK    4  A    between atoms: C6_10  and  C7_11 
REMARK    5  A    between atoms: C6_10  and  C8_13 
REMARK       I    between atoms: C7_11  and  N3_14 
REMARK    6  A    between atoms: N3_14  and  C9_15 
REMARK    7  A    between atoms: C9_15  and  C10_16 
REMARK    8  A    between atoms: C9_15  and  C11_18 
REMARK       I    between atoms: C10_16  and  N4_21 
REMARK    9  A    between atoms: C11_18  and  C12_19 
REMARK   10  A    between atoms: C11_18  and  C13_20 
REMARK   11  A    between atoms: N4_21  and  C14_22 
REMARK   12  A    between atoms: C14_22  and  C15_23 
REMARK   13  A    between atoms: C14_22  and  C16_25 
REMARK       I    between atoms: C15_23  and  N6_40 
REMARK   14  A    between atoms: C16_25  and  C17_26 
REMARK   15  A    between atoms: C17_26  and  C18_27 
REMARK   16  A    between atoms: C17_26  and  C19_28 
REMARK   17  A    between atoms: C20_29  and  C21_30 
REMARK   18  A    between atoms: C20_29  and  C24_33 
REMARK   19  A    between atoms: C20_29  and  N6_40 
REMARK   20  A    between atoms: C21_30  and  C22_31 
REMARK   21  A    between atoms: C22_31  and  C23_32 
REMARK   22  A    between atoms: C23_32  and  O8_43 
REMARK   23  A    between atoms: C24_33  and  C25_34 
REMARK   24  A    between atoms: C28_38  and  O6_39 
REMARK   25  A    between atoms: C29_42  and  O8_43 
REMARK   26  A    between atoms: C29_42  and  C35_49 
ROOT
ATOM      1  C14 non d ame     -10.653   8.861  69.258  0.00  0.00     0.089 C 
ATOM      2  H20 non d ame     -11.697   8.578  69.121  0.00  0.00     0.087 H 
ENDROOT
BRANCH   1   3
ATOM      3  N4  non d ame      -9.833   7.785  68.720  0.00  0.00    -0.346 N 
ATOM      4  C10 non d ame     -10.029   7.315  67.301  0.00  0.00     0.241 C 
ATOM      5  O4  non d ame     -10.855   7.816  66.611  0.00  0.00    -0.271 OA
ATOM      6  H19 non d ame      -9.138   7.371  69.324  0.00  0.00     0.163 HD
BRANCH   4   7
ATOM      7  C9  non d ame      -9.167   6.205  66.759  0.00  0.00     0.092 C 
ATOM      8  H11 non d ame      -9.749   5.612  66.053  0.00  0.00     0.088 H 
BRANCH   7   9
ATOM      9  N3  non d ame      -8.040   6.779  66.017  0.00  0.00    -0.346 N 
ATOM     10  C7  non d ame      -7.821   6.409  64.640  0.00  0.00     0.240 C 
ATOM     11  O3  non d ame      -8.541   5.651  64.114  0.00  0.00    -0.271 OA
ATOM     12  H10 non d ame      -7.409   7.432  66.458  0.00  0.00     0.163 HD
BRANCH  10  13
ATOM     13  C6  non d ame      -6.618   7.020  63.857  0.00  0.00     0.086 C 
ATOM     14  H6  non d ame      -6.921   7.502  62.928  0.00  0.00     0.086 H 
BRANCH  13  15
ATOM     15  N2  non d ame      -5.996   8.048  64.675  0.00  0.00    -0.343 N 
ATOM     16  C5  non d ame      -5.584   9.311  64.058  0.00  0.00     0.273 C 
ATOM     17  O2  non d ame      -5.755   9.489  62.902  0.00  0.00    -0.266 OA
ATOM     18  H5  non d ame      -5.851   7.886  65.662  0.00  0.00     0.163 HD
BRANCH  16  19
ATOM     19  C4  non d ame      -4.927  10.406  64.911  0.00  0.00     0.154 A 
ATOM     20  C1  non d ame      -5.163  10.682  66.295  0.00  0.00    -0.017 A 
ATOM     21  C2  non d ame      -4.319  11.774  66.597  0.00  0.00     0.077 A 
ATOM     22  H1  non d ame      -5.841  10.169  66.977  0.00  0.00     0.091 H 
ATOM     23  O1  non d ame      -3.677  12.081  65.508  0.00  0.00    -0.218 OA
ATOM     24  N1  non d ame      -4.016  11.297  64.510  0.00  0.00    -0.123 NA
BRANCH  21  25
ATOM     25  C3  non d ame      -4.185  12.464  67.949  0.00  0.00    -0.029 C 
ATOM     26  H2  non d ame      -3.982  11.719  68.719  0.00  0.00     0.036 H 
ATOM     27  H3  non d ame      -3.364  13.180  67.911  0.00  0.00     0.036 H 
ATOM     28  H4  non d ame      -5.112  12.986  68.184  0.00  0.00     0.036 H 
ENDBRANCH  21  25
ENDBRANCH  16  19
ENDBRANCH  13  15
BRANCH  13  29
ATOM     29  C8  non d ame      -5.618   5.937  63.540  0.00  0.00    -0.049 C 
ATOM     30  H7  non d ame      -5.058   5.685  64.441  0.00  0.00     0.030 H 
ATOM     31  H8  non d ame      -6.143   5.052  63.180  0.00  0.00     0.030 H 
ATOM     32  H9  non d ame      -4.931   6.290  62.772  0.00  0.00     0.030 H 
ENDBRANCH  13  29
ENDBRANCH  10  13
ENDBRANCH   7   9
BRANCH   7  33
ATOM     33  C11 non d ame      -8.625   5.346  67.939  0.00  0.00    -0.033 C 
ATOM     34  H12 non d ame      -8.933   5.829  68.866  0.00  0.00     0.042 H 
BRANCH  33  35
ATOM     35  C12 non d ame      -9.242   3.913  67.929  0.00  0.00    -0.071 C 
ATOM     36  H13 non d ame     -10.157   3.916  67.337  0.00  0.00     0.028 H 
ATOM     37  H14 non d ame      -8.529   3.214  67.491  0.00  0.00     0.028 H 
ATOM     38  H15 non d ame      -9.470   3.609  68.950  0.00  0.00     0.028 H 
ENDBRANCH  33  35
BRANCH  33  39
ATOM     39  C13 non d ame      -7.064   5.291  67.919  0.00  0.00    -0.071 C 
ATOM     40  H16 non d ame      -6.696   5.037  68.913  0.00  0.00     0.028 H 
ATOM     41  H17 non d ame      -6.736   4.534  67.206  0.00  0.00     0.028 H 
ATOM     42  H18 non d ame      -6.670   6.263  67.623  0.00  0.00     0.028 H 
ENDBRANCH  33  39
ENDBRANCH   7  33
ENDBRANCH   4   7
ENDBRANCH   1   3
BRANCH   1  43
ATOM     43  C15 non d ame     -10.298  10.177  68.509  0.00  0.00     0.240 C 
ATOM     44  O5  non d ame      -9.223  10.663  68.646  0.00  0.00    -0.271 OA
ATOM     45  N6  non d ame     -11.297  10.826  67.612  0.00  0.00    -0.355 N 
ATOM     46  H46 non d ame     -12.212  10.420  67.484  0.00  0.00     0.162 HD
BRANCH  45  47
ATOM     47  C20 non d ame     -10.943  12.076  66.906  0.00  0.00     0.013 C 
ATOM     48  H30 non d ame      -9.877  12.046  66.682  0.00  0.00     0.072 H 
BRANCH  47  49
ATOM     49  C21 non d ame     -11.250  13.258  67.798  0.00  0.00    -0.038 C 
ATOM     50  H31 non d ame     -12.207  13.649  67.450  0.00  0.00     0.036 H 
ATOM     51  H32 non d ame     -11.150  12.890  68.819  0.00  0.00     0.036 H 
BRANCH  49  52
ATOM     52  C22 non d ame     -10.229  14.406  67.645  0.00  0.00     0.018 C 
ATOM     53  H33 non d ame      -9.626  14.388  68.553  0.00  0.00     0.048 H 
ATOM     54  H34 non d ame      -9.756  14.253  66.674  0.00  0.00     0.048 H 
BRANCH  52  55
ATOM     55  C23 non d ame     -10.876  15.817  67.588  0.00  0.00     0.259 C 
ATOM     56  O7  non d ame     -10.783  16.485  66.609  0.00  0.00    -0.265 OA
BRANCH  55  57
ATOM     57  O8  non d ame     -11.573  16.311  68.725  0.00  0.00    -0.317 OA
BRANCH  57  58
ATOM     58  C29 non d ame     -10.839  16.206  69.949  0.00  0.00     0.052 C 
ATOM     59  H47 non d ame     -10.042  15.488  69.754  0.00  0.00     0.082 H 
ATOM     60  H48 non d ame     -10.593  17.229  70.234  0.00  0.00     0.082 H 
BRANCH  58  61
ATOM     61  C35 non d ame     -11.785  15.610  71.025  0.00  0.00    -0.034 A 
ATOM     62  C30 non d ame     -11.978  16.280  72.230  0.00  0.00    -0.075 A 
ATOM     63  C31 non d ame     -12.827  15.745  73.197  0.00  0.00    -0.082 A 
ATOM     64  H49 non d ame     -11.465  17.223  72.415  0.00  0.00     0.084 H 
ATOM     65  C32 non d ame     -13.483  14.534  72.958  0.00  0.00    -0.083 A 
ATOM     66  H50 non d ame     -12.979  16.273  74.139  0.00  0.00     0.083 H 
ATOM     67  C33 non d ame     -13.284  13.868  71.756  0.00  0.00    -0.082 A 
ATOM     68  H51 non d ame     -14.149  14.109  73.709  0.00  0.00     0.083 H 
ATOM     69  C34 non d ame     -12.438  14.400  70.785  0.00  0.00    -0.075 A 
ATOM     70  H52 non d ame     -13.795  12.922  71.573  0.00  0.00     0.083 H 
ATOM     71  H53 non d ame     -12.288  13.872  69.844  0.00  0.00     0.084 H 
ENDBRANCH  58  61
ENDBRANCH  57  58
ENDBRANCH  55  57
ENDBRANCH  52  55
ENDBRANCH  49  52
ENDBRANCH  47  49
BRANCH  47  72
ATOM     72  C24 non d ame     -11.753  12.187  65.616  0.00  0.00    -0.039 C 
ATOM     73  H35 non d ame     -12.766  11.883  65.882  0.00  0.00     0.036 H 
ATOM     74  H36 non d ame     -11.567  13.194  65.242  0.00  0.00     0.036 H 
BRANCH  72  75
ATOM     75  C25 non d ame     -11.231  11.165  64.499  0.00  0.00    -0.001 C 
ATOM     76  C26 non d ame      -9.722  10.637  64.884  0.00  0.00    -0.035 C 
ATOM     77  C27 non d ame      -8.912  10.808  63.812  0.00  0.00     0.085 C 
ATOM     78  H38 non d ame      -9.282  11.284  65.642  0.00  0.00     0.036 H 
ATOM     79  H39 non d ame      -9.729   9.556  65.028  0.00  0.00     0.036 H 
ATOM     80  N5  non d ame      -9.646  11.703  62.843  0.00  0.00    -0.049 N 
ATOM     81  H40 non d ame      -8.036  11.336  64.190  0.00  0.00     0.075 H 
ATOM     82  H41 non d ame      -8.803   9.819  63.368  0.00  0.00     0.075 H 
ATOM     83  C28 non d ame     -11.183  11.726  63.336  0.00  0.00     0.193 C 
ATOM     84  H42 non d ame      -9.258  12.629  62.958  0.00  0.00     0.280 HD
ATOM     85  H43 non d ame      -9.605  11.246  61.943  0.00  0.00     0.280 HD
ATOM     86  H44 non d ame     -11.943  11.150  62.807  0.00  0.00     0.129 H 
ATOM     87  H37 non d ame     -11.974  10.406  64.253  0.00  0.00     0.046 H 
BRANCH  83  88
ATOM     88  O6  non d ame     -11.672  13.068  63.366  0.00  0.00    -0.369 OA
ATOM     89  H45 non d ame     -12.626  13.059  63.468  0.00  0.00     0.212 HD
ENDBRANCH  83  88
ENDBRANCH  72  75
ENDBRANCH  47  72
ENDBRANCH  45  47
ENDBRANCH   1  43
BRANCH   1  90
ATOM     90  C16 non d ame     -10.354   9.019  70.740  0.00  0.00    -0.035 C 
ATOM     91  H21 non d ame      -9.741   8.157  71.005  0.00  0.00     0.037 H 
ATOM     92  H22 non d ame      -9.951  10.027  70.847  0.00  0.00     0.037 H 
BRANCH  90  93
ATOM     93  C17 non d ame     -11.624   8.953  71.647  0.00  0.00    -0.059 C 
ATOM     94  H23 non d ame     -11.294   9.025  72.683  0.00  0.00     0.038 H 
BRANCH  93  95
ATOM     95  C18 non d ame     -12.604  10.139  71.375  0.00  0.00    -0.073 C 
ATOM     96  H24 non d ame     -13.630   9.805  71.532  0.00  0.00     0.028 H 
ATOM     97  H25 non d ame     -12.380  10.959  72.058  0.00  0.00     0.028 H 
ATOM     98  H26 non d ame     -12.486  10.480  70.346  0.00  0.00     0.028 H 
ENDBRANCH  93  95
BRANCH  93  99
ATOM     99  C19 non d ame     -12.338   7.609  71.489  0.00  0.00    -0.073 C 
ATOM    100  H27 non d ame     -13.415   7.756  71.582  0.00  0.00     0.028 H 
ATOM    101  H28 non d ame     -12.112   7.190  70.508  0.00  0.00     0.028 H 
ATOM    102  H29 non d ame     -11.997   6.923  72.264  0.00  0.00     0.028 H 
ENDBRANCH  93  99
ENDBRANCH  90  93
ENDBRANCH   1  90
TORSDOF 26
ENDMDL
MODEL 13
REMARK VINA RESULT:      -6.5      2.590      6.665
REMARK  26 active torsions:
REMARK  status: ('A' for Active; 'I' for Inactive)
REMARK    1  A    between atoms: C2_2  and  C3_3 
REMARK    2  A    between atoms: C4_6  and  C5_7 
REMARK       I    between atoms: C5_7  and  N2_9 
REMARK    3  A    between atoms: N2_9  and  C6_10 
REMARK    4  A    between atoms: C6_10  and  C7_11 
REMARK    5  A    between atoms: C6_10  and  C8_13 
REMARK       I    between atoms: C7_11  and  N3_14 
REMARK    6  A    between atoms: N3_14  and  C9_15 
REMARK    7  A    between atoms: C9_15  and  C10_16 
REMARK    8  A    between atoms: C9_15  and  C11_18 
REMARK       I    between atoms: C10_16  and  N4_21 
REMARK    9  A    between atoms: C11_18  and  C12_19 
REMARK   10  A    between atoms: C11_18  and  C13_20 
REMARK   11  A    between atoms: N4_21  and  C14_22 
REMARK   12  A    between atoms: C14_22  and  C15_23 
REMARK   13  A    between atoms: C14_22  and  C16_25 
REMARK       I    between atoms: C15_23  and  N6_40 
REMARK   14  A    between atoms: C16_25  and  C17_26 
REMARK   15  A    between atoms: C17_26  and  C18_27 
REMARK   16  A    between atoms: C17_26  and  C19_28 
REMARK   17  A    between atoms: C20_29  and  C21_30 
REMARK   18  A    between atoms: C20_29  and  C24_33 
REMARK   19  A    between atoms: C20_29  and  N6_40 
REMARK   20  A    between atoms: C21_30  and  C22_31 
REMARK   21  A    between atoms: C22_31  and  C23_32 
REMARK   22  A    between atoms: C23_32  and  O8_43 
REMARK   23  A    between atoms: C24_33  and  C25_34 
REMARK   24  A    between atoms: C28_38  and  O6_39 
REMARK   25  A    between atoms: C29_42  and  O8_43 
REMARK   26  A    between atoms: C29_42  and  C35_49 
ROOT
ATOM      1  C14 non d ame     -10.781   9.455  69.052  0.00  0.00     0.089 C 
ATOM      2  H20 non d ame     -11.475   8.623  68.931  0.00  0.00     0.087 H 
ENDROOT
BRANCH   1   3
ATOM      3  N4  non d ame      -9.783   9.350  67.999  0.00  0.00    -0.346 N 
ATOM      4  C10 non d ame      -9.929   8.316  66.911  0.00  0.00     0.241 C 
ATOM      5  O4  non d ame     -10.858   7.577  66.907  0.00  0.00    -0.271 OA
ATOM      6  H19 non d ame      -8.999   9.987  68.022  0.00  0.00     0.163 HD
BRANCH   4   7
ATOM      7  C9  non d ame      -8.889   8.225  65.825  0.00  0.00     0.092 C 
ATOM      8  H11 non d ame      -9.307   8.613  64.896  0.00  0.00     0.088 H 
BRANCH   7   9
ATOM      9  N3  non d ame      -7.744   9.072  66.172  0.00  0.00    -0.346 N 
ATOM     10  C7  non d ame      -7.311  10.105  65.264  0.00  0.00     0.240 C 
ATOM     11  O3  non d ame      -7.871  10.268  64.249  0.00  0.00    -0.271 OA
ATOM     12  H10 non d ame      -7.250   8.942  67.043  0.00  0.00     0.163 HD
BRANCH  10  13
ATOM     13  C6  non d ame      -6.089  11.001  65.638  0.00  0.00     0.086 C 
ATOM     14  H6  non d ame      -6.249  12.053  65.401  0.00  0.00     0.086 H 
BRANCH  13  15
ATOM     15  N2  non d ame      -5.872  10.927  67.073  0.00  0.00    -0.343 N 
ATOM     16  C5  non d ame      -5.826  12.162  67.860  0.00  0.00     0.273 C 
ATOM     17  O2  non d ame      -5.962  13.209  67.329  0.00  0.00    -0.266 OA
ATOM     18  H5  non d ame      -5.754  10.028  67.518  0.00  0.00     0.163 HD
BRANCH  16  19
ATOM     19  C4  non d ame      -5.598  12.098  69.379  0.00  0.00     0.154 A 
ATOM     20  C1  non d ame      -4.950  11.055  70.113  0.00  0.00    -0.017 A 
ATOM     21  C2  non d ame      -5.000  11.474  71.461  0.00  0.00     0.077 A 
ATOM     22  H1  non d ame      -4.510  10.135  69.727  0.00  0.00     0.091 H 
ATOM     23  O1  non d ame      -5.607  12.625  71.487  0.00  0.00    -0.218 OA
ATOM     24  N1  non d ame      -5.966  13.009  70.284  0.00  0.00    -0.123 NA
BRANCH  21  25
ATOM     25  C3  non d ame      -4.445  10.719  72.662  0.00  0.00    -0.029 C 
ATOM     26  H2  non d ame      -3.360  10.819  72.684  0.00  0.00     0.036 H 
ATOM     27  H3  non d ame      -4.868  11.132  73.577  0.00  0.00     0.036 H 
ATOM     28  H4  non d ame      -4.711   9.664  72.583  0.00  0.00     0.036 H 
ENDBRANCH  21  25
ENDBRANCH  16  19
ENDBRANCH  13  15
BRANCH  13  29
ATOM     29  C8  non d ame      -4.864  10.518  64.904  0.00  0.00    -0.049 C 
ATOM     30  H7  non d ame      -4.384   9.726  65.480  0.00  0.00     0.030 H 
ATOM     31  H8  non d ame      -5.154  10.131  63.927  0.00  0.00     0.030 H 
ATOM     32  H9  non d ame      -4.167  11.346  64.776  0.00  0.00     0.030 H 
ENDBRANCH  13  29
ENDBRANCH  10  13
ENDBRANCH   7   9
BRANCH   7  33
ATOM     33  C11 non d ame      -8.415   6.749  65.683  0.00  0.00    -0.033 C 
ATOM     34  H12 non d ame      -9.298   6.113  65.741  0.00  0.00     0.042 H 
BRANCH  33  35
ATOM     35  C12 non d ame      -7.747   6.498  64.295  0.00  0.00    -0.071 C 
ATOM     36  H13 non d ame      -8.473   6.684  63.503  0.00  0.00     0.028 H 
ATOM     37  H14 non d ame      -6.898   7.170  64.174  0.00  0.00     0.028 H 
ATOM     38  H15 non d ame      -7.405   5.465  64.239  0.00  0.00     0.028 H 
ENDBRANCH  33  35
BRANCH  33  39
ATOM     39  C13 non d ame      -7.457   6.354  66.852  0.00  0.00    -0.071 C 
ATOM     40  H16 non d ame      -8.042   5.966  67.686  0.00  0.00     0.028 H 
ATOM     41  H17 non d ame      -6.761   5.589  66.509  0.00  0.00     0.028 H 
ATOM     42  H18 non d ame      -6.900   7.233  67.177  0.00  0.00     0.028 H 
ENDBRANCH  33  39
ENDBRANCH   7  33
ENDBRANCH   4   7
ENDBRANCH   1   3
BRANCH   1  43
ATOM     43  C15 non d ame     -11.489  10.835  68.928  0.00  0.00     0.240 C 
ATOM     44  O5  non d ame     -12.026  11.134  67.911  0.00  0.00    -0.271 OA
ATOM     45  N6  non d ame     -11.505  11.779  70.082  0.00  0.00    -0.355 N 
ATOM     46  H46 non d ame     -11.056  11.534  70.952  0.00  0.00     0.162 HD
BRANCH  45  47
ATOM     47  C20 non d ame     -12.184  13.087  69.948  0.00  0.00     0.013 C 
ATOM     48  H30 non d ame     -12.950  12.990  69.179  0.00  0.00     0.072 H 
BRANCH  47  49
ATOM     49  C21 non d ame     -11.173  14.135  69.542  0.00  0.00    -0.038 C 
ATOM     50  H31 non d ame     -11.443  15.035  70.095  0.00  0.00     0.036 H 
ATOM     51  H32 non d ame     -10.196  13.676  69.692  0.00  0.00     0.036 H 
BRANCH  49  52
ATOM     52  C22 non d ame     -11.258  14.501  68.044  0.00  0.00     0.018 C 
ATOM     53  H33 non d ame     -11.993  13.819  67.615  0.00  0.00     0.048 H 
ATOM     54  H34 non d ame     -11.430  15.577  68.012  0.00  0.00     0.048 H 
BRANCH  52  55
ATOM     55  C23 non d ame      -9.938  14.254  67.263  0.00  0.00     0.259 C 
ATOM     56  O7  non d ame      -9.335  13.240  67.402  0.00  0.00    -0.265 OA
BRANCH  55  57
ATOM     57  O8  non d ame      -9.448  15.262  66.387  0.00  0.00    -0.317 OA
BRANCH  57  58
ATOM     58  C29 non d ame     -10.392  16.300  66.108  0.00  0.00     0.052 C 
ATOM     59  H47 non d ame     -10.451  16.361  65.022  0.00  0.00     0.082 H 
ATOM     60  H48 non d ame     -11.280  16.055  66.689  0.00  0.00     0.082 H 
BRANCH  58  61
ATOM     61  C35 non d ame      -9.808  17.635  66.644  0.00  0.00    -0.034 A 
ATOM     62  C30 non d ame     -10.482  18.831  66.419  0.00  0.00    -0.075 A 
ATOM     63  C31 non d ame      -9.957  20.029  66.900  0.00  0.00    -0.082 A 
ATOM     64  H49 non d ame     -11.421  18.829  65.866  0.00  0.00     0.084 H 
ATOM     65  C32 non d ame      -8.752  20.030  67.607  0.00  0.00    -0.083 A 
ATOM     66  H50 non d ame     -10.490  20.964  66.724  0.00  0.00     0.083 H 
ATOM     67  C33 non d ame      -8.081  18.834  67.826  0.00  0.00    -0.082 A 
ATOM     68  H51 non d ame      -8.335  20.962  67.987  0.00  0.00     0.083 H 
ATOM     69  C34 non d ame      -8.602  17.634  67.349  0.00  0.00    -0.075 A 
ATOM     70  H52 non d ame      -7.139  18.838  68.376  0.00  0.00     0.083 H 
ATOM     71  H53 non d ame      -8.070  16.699  67.526  0.00  0.00     0.084 H 
ENDBRANCH  58  61
ENDBRANCH  57  58
ENDBRANCH  55  57
ENDBRANCH  52  55
ENDBRANCH  49  52
ENDBRANCH  47  49
BRANCH  47  72
ATOM     72  C24 non d ame     -12.817  13.478  71.282  0.00  0.00    -0.039 C 
ATOM     73  H35 non d ame     -13.860  13.170  71.209  0.00  0.00     0.036 H 
ATOM     74  H36 non d ame     -12.173  13.045  72.047  0.00  0.00     0.036 H 
BRANCH  72  75
ATOM     75  C25 non d ame     -12.807  15.065  71.499  0.00  0.00    -0.001 C 
ATOM     76  C26 non d ame     -11.753  15.460  72.699  0.00  0.00    -0.035 C 
ATOM     77  C27 non d ame     -12.389  16.251  73.595  0.00  0.00     0.085 C 
ATOM     78  H38 non d ame     -11.498  14.573  73.278  0.00  0.00     0.036 H 
ATOM     79  H39 non d ame     -10.964  16.101  72.307  0.00  0.00     0.036 H 
ATOM     80  N5  non d ame     -13.865  16.166  73.291  0.00  0.00    -0.049 N 
ATOM     81  H40 non d ame     -12.201  15.799  74.569  0.00  0.00     0.075 H 
ATOM     82  H41 non d ame     -12.042  17.263  73.388  0.00  0.00     0.075 H 
ATOM     83  C28 non d ame     -13.978  15.500  71.824  0.00  0.00     0.193 C 
ATOM     84  H42 non d ame     -14.260  15.527  73.965  0.00  0.00     0.280 HD
ATOM     85  H43 non d ame     -14.202  17.117  73.238  0.00  0.00     0.280 HD
ATOM     86  H44 non d ame     -14.211  16.114  70.954  0.00  0.00     0.129 H 
ATOM     87  H37 non d ame     -12.715  15.610  70.560  0.00  0.00     0.046 H 
BRANCH  83  88
ATOM     88  O6  non d ame     -14.957  14.459  71.830  0.00  0.00    -0.369 OA
ATOM     89  H45 non d ame     -15.355  14.399  72.701  0.00  0.00     0.212 HD
ENDBRANCH  83  88
ENDBRANCH  72  75
ENDBRANCH  47  72
ENDBRANCH  45  47
ENDBRANCH   1  43
BRANCH   1  90
ATOM     90  C16 non d ame     -10.089   9.355  70.403  0.00  0.00    -0.035 C 
ATOM     91  H21 non d ame      -9.026   9.269  70.177  0.00  0.00     0.037 H 
ATOM     92  H22 non d ame     -10.457  10.204  70.979  0.00  0.00     0.037 H 
BRANCH  90  93
ATOM     93  C17 non d ame     -10.473   8.074  71.210  0.00  0.00    -0.059 C 
ATOM     94  H23 non d ame      -9.552   7.636  71.593  0.00  0.00     0.038 H 
BRANCH  93  95
ATOM     95  C18 non d ame     -11.391   8.401  72.432  0.00  0.00    -0.073 C 
ATOM     96  H24 non d ame     -12.007   7.533  72.665  0.00  0.00     0.028 H 
ATOM     97  H25 non d ame     -10.772   8.650  73.294  0.00  0.00     0.028 H 
ATOM     98  H26 non d ame     -12.032   9.248  72.188  0.00  0.00     0.028 H 
ENDBRANCH  93  95
BRANCH  93  99
ATOM     99  C19 non d ame     -11.128   7.031  70.301  0.00  0.00    -0.073 C 
ATOM    100  H27 non d ame     -12.042   7.444  69.872  0.00  0.00     0.028 H 
ATOM    101  H28 non d ame     -10.439   6.764  69.499  0.00  0.00     0.028 H 
ATOM    102  H29 non d ame     -11.369   6.142  70.883  0.00  0.00     0.028 H 
ENDBRANCH  93  99
ENDBRANCH  90  93
ENDBRANCH   1  90
TORSDOF 26
ENDMDL
MODEL 14
REMARK VINA RESULT:      -6.5      2.592      7.577
REMARK  26 active torsions:
REMARK  status: ('A' for Active; 'I' for Inactive)
REMARK    1  A    between atoms: C2_2  and  C3_3 
REMARK    2  A    between atoms: C4_6  and  C5_7 
REMARK       I    between atoms: C5_7  and  N2_9 
REMARK    3  A    between atoms: N2_9  and  C6_10 
REMARK    4  A    between atoms: C6_10  and  C7_11 
REMARK    5  A    between atoms: C6_10  and  C8_13 
REMARK       I    between atoms: C7_11  and  N3_14 
REMARK    6  A    between atoms: N3_14  and  C9_15 
REMARK    7  A    between atoms: C9_15  and  C10_16 
REMARK    8  A    between atoms: C9_15  and  C11_18 
REMARK       I    between atoms: C10_16  and  N4_21 
REMARK    9  A    between atoms: C11_18  and  C12_19 
REMARK   10  A    between atoms: C11_18  and  C13_20 
REMARK   11  A    between atoms: N4_21  and  C14_22 
REMARK   12  A    between atoms: C14_22  and  C15_23 
REMARK   13  A    between atoms: C14_22  and  C16_25 
REMARK       I    between atoms: C15_23  and  N6_40 
REMARK   14  A    between atoms: C16_25  and  C17_26 
REMARK   15  A    between atoms: C17_26  and  C18_27 
REMARK   16  A    between atoms: C17_26  and  C19_28 
REMARK   17  A    between atoms: C20_29  and  C21_30 
REMARK   18  A    between atoms: C20_29  and  C24_33 
REMARK   19  A    between atoms: C20_29  and  N6_40 
REMARK   20  A    between atoms: C21_30  and  C22_31 
REMARK   21  A    between atoms: C22_31  and  C23_32 
REMARK   22  A    between atoms: C23_32  and  O8_43 
REMARK   23  A    between atoms: C24_33  and  C25_34 
REMARK   24  A    between atoms: C28_38  and  O6_39 
REMARK   25  A    between atoms: C29_42  and  O8_43 
REMARK   26  A    between atoms: C29_42  and  C35_49 
ROOT
ATOM      1  C14 non d ame     -10.103   6.913  67.867  0.00  0.00     0.089 C 
ATOM      2  H20 non d ame      -9.701   6.332  68.698  0.00  0.00     0.087 H 
ENDROOT
BRANCH   1   3
ATOM      3  N4  non d ame     -10.866   8.016  68.431  0.00  0.00    -0.346 N 
ATOM      4  C10 non d ame     -10.282   8.859  69.537  0.00  0.00     0.241 C 
ATOM      5  O4  non d ame      -9.197   8.628  69.958  0.00  0.00    -0.271 OA
ATOM      6  H19 non d ame     -11.789   8.194  68.061  0.00  0.00     0.163 HD
BRANCH   4   7
ATOM      7  C9  non d ame     -11.083  10.000  70.106  0.00  0.00     0.092 C 
ATOM      8  H11 non d ame     -10.415  10.677  70.638  0.00  0.00     0.088 H 
BRANCH   7   9
ATOM      9  N3  non d ame     -11.692  10.763  69.012  0.00  0.00    -0.346 N 
ATOM     10  C7  non d ame     -10.886  11.666  68.227  0.00  0.00     0.240 C 
ATOM     11  O3  non d ame      -9.747  11.792  68.464  0.00  0.00    -0.271 OA
ATOM     12  H10 non d ame     -12.674  10.666  68.797  0.00  0.00     0.163 HD
BRANCH  10  13
ATOM     13  C6  non d ame     -11.541  12.478  67.066  0.00  0.00     0.086 C 
ATOM     14  H6  non d ame     -12.622  12.562  67.169  0.00  0.00     0.086 H 
BRANCH  13  15
ATOM     15  N2  non d ame     -11.014  13.832  67.083  0.00  0.00    -0.343 N 
ATOM     16  C5  non d ame     -11.524  14.793  68.065  0.00  0.00     0.273 C 
ATOM     17  O2  non d ame     -12.360  14.466  68.834  0.00  0.00    -0.266 OA
ATOM     18  H5  non d ame     -10.302  14.104  66.420  0.00  0.00     0.163 HD
BRANCH  16  19
ATOM     19  C4  non d ame     -10.976  16.228  68.095  0.00  0.00     0.154 A 
ATOM     20  C1  non d ame     -10.489  16.991  66.986  0.00  0.00    -0.017 A 
ATOM     21  C2  non d ame     -10.106  18.233  67.540  0.00  0.00     0.077 A 
ATOM     22  H1  non d ame     -10.424  16.690  65.940  0.00  0.00     0.091 H 
ATOM     23  O1  non d ame     -10.350  18.179  68.817  0.00  0.00    -0.218 OA
ATOM     24  N1  non d ame     -10.857  17.019  69.164  0.00  0.00    -0.123 NA
BRANCH  21  25
ATOM     25  C3  non d ame      -9.519  19.415  66.782  0.00  0.00    -0.029 C 
ATOM     26  H2  non d ame      -8.827  19.052  66.021  0.00  0.00     0.036 H 
ATOM     27  H3  non d ame     -10.322  19.976  66.304  0.00  0.00     0.036 H 
ATOM     28  H4  non d ame      -8.986  20.065  67.477  0.00  0.00     0.036 H 
ENDBRANCH  21  25
ENDBRANCH  16  19
ENDBRANCH  13  15
BRANCH  13  29
ATOM     29  C8  non d ame     -11.226  11.818  65.748  0.00  0.00    -0.049 C 
ATOM     30  H7  non d ame     -10.190  12.022  65.478  0.00  0.00     0.030 H 
ATOM     31  H8  non d ame     -11.373  10.741  65.837  0.00  0.00     0.030 H 
ATOM     32  H9  non d ame     -11.887  12.213  64.977  0.00  0.00     0.030 H 
ENDBRANCH  13  29
ENDBRANCH  10  13
ENDBRANCH   7   9
BRANCH   7  33
ATOM     33  C11 non d ame     -12.204   9.438  71.028  0.00  0.00    -0.033 C 
ATOM     34  H12 non d ame     -12.827   8.779  70.424  0.00  0.00     0.042 H 
BRANCH  33  35
ATOM     35  C12 non d ame     -11.608   8.584  72.191  0.00  0.00    -0.071 C 
ATOM     36  H13 non d ame     -12.150   8.796  73.113  0.00  0.00     0.028 H 
ATOM     37  H14 non d ame     -11.703   7.526  71.950  0.00  0.00     0.028 H 
ATOM     38  H15 non d ame     -10.555   8.834  72.322  0.00  0.00     0.028 H 
ENDBRANCH  33  35
BRANCH  33  39
ATOM     39  C13 non d ame     -13.107  10.589  71.577  0.00  0.00    -0.071 C 
ATOM     40  H16 non d ame     -12.826  11.529  71.103  0.00  0.00     0.028 H 
ATOM     41  H17 non d ame     -14.152  10.368  71.355  0.00  0.00     0.028 H 
ATOM     42  H18 non d ame     -12.974  10.672  72.656  0.00  0.00     0.028 H 
ENDBRANCH  33  39
ENDBRANCH   7  33
ENDBRANCH   4   7
ENDBRANCH   1   3
BRANCH   1  43
ATOM     43  C15 non d ame      -8.982   7.498  66.962  0.00  0.00     0.240 C 
ATOM     44  O5  non d ame      -7.855   7.155  67.121  0.00  0.00    -0.271 OA
ATOM     45  N6  non d ame      -9.314   8.480  65.890  0.00  0.00    -0.355 N 
ATOM     46  H46 non d ame     -10.268   8.775  65.743  0.00  0.00     0.162 HD
BRANCH  45  47
ATOM     47  C20 non d ame      -8.236   9.026  65.037  0.00  0.00     0.013 C 
ATOM     48  H30 non d ame      -7.453   8.272  64.963  0.00  0.00     0.072 H 
BRANCH  47  49
ATOM     49  C21 non d ame      -7.684  10.283  65.673  0.00  0.00    -0.038 C 
ATOM     50  H31 non d ame      -7.602  11.009  64.864  0.00  0.00     0.036 H 
ATOM     51  H32 non d ame      -8.330  10.488  66.527  0.00  0.00     0.036 H 
BRANCH  49  52
ATOM     52  C22 non d ame      -6.260  10.093  66.237  0.00  0.00     0.018 C 
ATOM     53  H33 non d ame      -6.336  10.294  67.306  0.00  0.00     0.048 H 
ATOM     54  H34 non d ame      -5.932   9.113  65.889  0.00  0.00     0.048 H 
BRANCH  52  55
ATOM     55  C23 non d ame      -5.226  11.112  65.682  0.00  0.00     0.259 C 
ATOM     56  O7  non d ame      -4.808  11.005  64.575  0.00  0.00    -0.265 OA
BRANCH  55  57
ATOM     57  O8  non d ame      -4.773  12.170  66.518  0.00  0.00    -0.317 OA
BRANCH  57  58
ATOM     58  C29 non d ame      -5.097  11.999  67.901  0.00  0.00     0.052 C 
ATOM     59  H47 non d ame      -5.710  11.099  67.951  0.00  0.00     0.082 H 
ATOM     60  H48 non d ame      -4.147  12.042  68.434  0.00  0.00     0.082 H 
BRANCH  58  61
ATOM     61  C35 non d ame      -5.962  13.209  68.343  0.00  0.00    -0.034 A 
ATOM     62  C30 non d ame      -5.873  13.691  69.645  0.00  0.00    -0.075 A 
ATOM     63  C31 non d ame      -6.651  14.777  70.042  0.00  0.00    -0.082 A 
ATOM     64  H49 non d ame      -5.193  13.218  70.354  0.00  0.00     0.084 H 
ATOM     65  C32 non d ame      -7.523  15.381  69.132  0.00  0.00    -0.083 A 
ATOM     66  H50 non d ame      -6.576  15.154  71.063  0.00  0.00     0.083 H 
ATOM     67  C33 non d ame      -7.611  14.895  67.835  0.00  0.00    -0.082 A 
ATOM     68  H51 non d ame      -8.134  16.232  69.435  0.00  0.00     0.083 H 
ATOM     69  C34 non d ame      -6.834  13.810  67.433  0.00  0.00    -0.075 A 
ATOM     70  H52 non d ame      -8.294  15.367  67.128  0.00  0.00     0.083 H 
ATOM     71  H53 non d ame      -6.908  13.435  66.412  0.00  0.00     0.084 H 
ENDBRANCH  58  61
ENDBRANCH  57  58
ENDBRANCH  55  57
ENDBRANCH  52  55
ENDBRANCH  49  52
ENDBRANCH  47  49
BRANCH  47  72
ATOM     72  C24 non d ame      -8.790   9.355  63.653  0.00  0.00    -0.039 C 
ATOM     73  H35 non d ame      -9.739   8.823  63.586  0.00  0.00     0.036 H 
ATOM     74  H36 non d ame      -8.770  10.443  63.583  0.00  0.00     0.036 H 
BRANCH  72  75
ATOM     75  C25 non d ame      -7.847   8.790  62.488  0.00  0.00    -0.001 C 
ATOM     76  C26 non d ame      -6.720   7.775  63.122  0.00  0.00    -0.035 C 
ATOM     77  C27 non d ame      -5.495   8.157  62.687  0.00  0.00     0.085 C 
ATOM     78  H38 non d ame      -6.660   7.911  64.202  0.00  0.00     0.036 H 
ATOM     79  H39 non d ame      -6.838   6.775  62.704  0.00  0.00     0.036 H 
ATOM     80  N5  non d ame      -5.650   9.530  62.081  0.00  0.00    -0.049 N 
ATOM     81  H40 non d ame      -4.878   8.231  63.584  0.00  0.00     0.075 H 
ATOM     82  H41 non d ame      -5.232   7.449  61.902  0.00  0.00     0.075 H 
ATOM     83  C28 non d ame      -7.236   9.748  61.874  0.00  0.00     0.193 C 
ATOM     84  H42 non d ame      -5.323  10.188  62.774  0.00  0.00     0.280 HD
ATOM     85  H43 non d ame      -5.210   9.493  61.173  0.00  0.00     0.280 HD
ATOM     86  H44 non d ame      -7.682   9.664  60.882  0.00  0.00     0.129 H 
ATOM     87  H37 non d ame      -8.419   8.424  61.635  0.00  0.00     0.046 H 
BRANCH  83  88
ATOM     88  O6  non d ame      -7.625  11.034  62.360  0.00  0.00    -0.369 OA
ATOM     89  H45 non d ame      -8.027  10.940  63.226  0.00  0.00     0.212 HD
ENDBRANCH  83  88
ENDBRANCH  72  75
ENDBRANCH  47  72
ENDBRANCH  45  47
ENDBRANCH   1  43
BRANCH   1  90
ATOM     90  C16 non d ame     -11.031   6.043  67.033  0.00  0.00    -0.035 C 
ATOM     91  H21 non d ame     -11.929   5.916  67.639  0.00  0.00     0.037 H 
ATOM     92  H22 non d ame     -11.094   6.536  66.063  0.00  0.00     0.037 H 
BRANCH  90  93
ATOM     93  C17 non d ame     -10.473   4.610  66.764  0.00  0.00    -0.059 C 
ATOM     94  H23 non d ame     -11.321   3.926  66.725  0.00  0.00     0.038 H 
BRANCH  93  95
ATOM     95  C18 non d ame      -9.722   4.516  65.397  0.00  0.00    -0.073 C 
ATOM     96  H24 non d ame     -10.308   5.016  64.626  0.00  0.00     0.028 H 
ATOM     97  H25 non d ame      -8.748   4.999  65.484  0.00  0.00     0.028 H 
ATOM     98  H26 non d ame      -9.585   3.469  65.129  0.00  0.00     0.028 H 
ENDBRANCH  93  95
BRANCH  93  99
ATOM     99  C19 non d ame      -9.572   4.149  67.913  0.00  0.00    -0.073 C 
ATOM    100  H27 non d ame      -8.565   4.543  67.766  0.00  0.00     0.028 H 
ATOM    101  H28 non d ame      -9.972   4.518  68.858  0.00  0.00     0.028 H 
ATOM    102  H29 non d ame      -9.537   3.060  67.934  0.00  0.00     0.028 H 
ENDBRANCH  93  99
ENDBRANCH  90  93
ENDBRANCH   1  90
TORSDOF 26
ENDMDL
MODEL 15
REMARK VINA RESULT:      -6.5      2.414      8.699
REMARK  26 active torsions:
REMARK  status: ('A' for Active; 'I' for Inactive)
REMARK    1  A    between atoms: C2_2  and  C3_3 
REMARK    2  A    between atoms: C4_6  and  C5_7 
REMARK       I    between atoms: C5_7  and  N2_9 
REMARK    3  A    between atoms: N2_9  and  C6_10 
REMARK    4  A    between atoms: C6_10  and  C7_11 
REMARK    5  A    between atoms: C6_10  and  C8_13 
REMARK       I    between atoms: C7_11  and  N3_14 
REMARK    6  A    between atoms: N3_14  and  C9_15 
REMARK    7  A    between atoms: C9_15  and  C10_16 
REMARK    8  A    between atoms: C9_15  and  C11_18 
REMARK       I    between atoms: C10_16  and  N4_21 
REMARK    9  A    between atoms: C11_18  and  C12_19 
REMARK   10  A    between atoms: C11_18  and  C13_20 
REMARK   11  A    between atoms: N4_21  and  C14_22 
REMARK   12  A    between atoms: C14_22  and  C15_23 
REMARK   13  A    between atoms: C14_22  and  C16_25 
REMARK       I    between atoms: C15_23  and  N6_40 
REMARK   14  A    between atoms: C16_25  and  C17_26 
REMARK   15  A    between atoms: C17_26  and  C18_27 
REMARK   16  A    between atoms: C17_26  and  C19_28 
REMARK   17  A    between atoms: C20_29  and  C21_30 
REMARK   18  A    between atoms: C20_29  and  C24_33 
REMARK   19  A    between atoms: C20_29  and  N6_40 
REMARK   20  A    between atoms: C21_30  and  C22_31 
REMARK   21  A    between atoms: C22_31  and  C23_32 
REMARK   22  A    between atoms: C23_32  and  O8_43 
REMARK   23  A    between atoms: C24_33  and  C25_34 
REMARK   24  A    between atoms: C28_38  and  O6_39 
REMARK   25  A    between atoms: C29_42  and  O8_43 
REMARK   26  A    between atoms: C29_42  and  C35_49 
ROOT
ATOM      1  C14 non d ame      -6.763  11.057  69.011  0.00  0.00     0.089 C 
ATOM      2  H20 non d ame      -6.035  10.850  68.227  0.00  0.00     0.087 H 
ENDROOT
BRANCH   1   3
ATOM      3  N4  non d ame      -6.881  12.503  69.129  0.00  0.00    -0.346 N 
ATOM      4  C10 non d ame      -6.502  13.394  67.973  0.00  0.00     0.241 C 
ATOM      5  O4  non d ame      -6.101  12.925  66.959  0.00  0.00    -0.271 OA
ATOM      6  H19 non d ame      -7.221  12.883  70.001  0.00  0.00     0.163 HD
BRANCH   4   7
ATOM      7  C9  non d ame      -6.635  14.888  68.110  0.00  0.00     0.092 C 
ATOM      8  H11 non d ame      -6.310  15.364  67.185  0.00  0.00     0.088 H 
BRANCH   7   9
ATOM      9  N3  non d ame      -8.046  15.238  68.305  0.00  0.00    -0.346 N 
ATOM     10  C7  non d ame      -8.762  15.942  67.270  0.00  0.00     0.240 C 
ATOM     11  O3  non d ame      -8.219  16.237  66.276  0.00  0.00    -0.271 OA
ATOM     12  H10 non d ame      -8.527  14.991  69.157  0.00  0.00     0.163 HD
BRANCH  10  13
ATOM     13  C6  non d ame     -10.262  16.314  67.483  0.00  0.00     0.086 C 
ATOM     14  H6  non d ame     -10.937  15.706  66.882  0.00  0.00     0.086 H 
BRANCH  13  15
ATOM     15  N2  non d ame     -10.614  16.075  68.873  0.00  0.00    -0.343 N 
ATOM     16  C5  non d ame     -11.739  15.192  69.191  0.00  0.00     0.273 C 
ATOM     17  O2  non d ame     -12.356  14.682  68.322  0.00  0.00    -0.266 OA
ATOM     18  H5  non d ame     -10.083  16.517  69.610  0.00  0.00     0.163 HD
BRANCH  16  19
ATOM     19  C4  non d ame     -12.121  14.929  70.656  0.00  0.00     0.154 A 
ATOM     20  C1  non d ame     -11.828  15.754  71.788  0.00  0.00    -0.017 A 
ATOM     21  C2  non d ame     -12.392  15.074  72.890  0.00  0.00     0.077 A 
ATOM     22  H1  non d ame     -11.290  16.702  71.806  0.00  0.00     0.091 H 
ATOM     23  O1  non d ame     -12.942  13.987  72.433  0.00  0.00    -0.218 OA
ATOM     24  N1  non d ame     -12.797  13.880  71.133  0.00  0.00    -0.123 NA
BRANCH  21  25
ATOM     25  C3  non d ame     -12.361  15.529  74.343  0.00  0.00    -0.029 C 
ATOM     26  H2  non d ame     -11.642  14.927  74.898  0.00  0.00     0.036 H 
ATOM     27  H3  non d ame     -12.069  16.578  74.388  0.00  0.00     0.036 H 
ATOM     28  H4  non d ame     -13.352  15.409  74.783  0.00  0.00     0.036 H 
ENDBRANCH  21  25
ENDBRANCH  16  19
ENDBRANCH  13  15
BRANCH  13  29
ATOM     29  C8  non d ame     -10.477  17.766  67.139  0.00  0.00    -0.049 C 
ATOM     30  H7  non d ame     -11.143  18.219  67.874  0.00  0.00     0.030 H 
ATOM     31  H8  non d ame      -9.520  18.287  67.146  0.00  0.00     0.030 H 
ATOM     32  H9  non d ame     -10.926  17.841  66.149  0.00  0.00     0.030 H 
ENDBRANCH  13  29
ENDBRANCH  10  13
ENDBRANCH   7   9
BRANCH   7  33
ATOM     33  C11 non d ame      -5.810  15.372  69.339  0.00  0.00    -0.033 C 
ATOM     34  H12 non d ame      -6.191  14.850  70.217  0.00  0.00     0.042 H 
BRANCH  33  35
ATOM     35  C12 non d ame      -4.301  15.002  69.192  0.00  0.00    -0.071 C 
ATOM     36  H13 non d ame      -3.936  15.345  68.223  0.00  0.00     0.028 H 
ATOM     37  H14 non d ame      -3.730  15.483  69.986  0.00  0.00     0.028 H 
ATOM     38  H15 non d ame      -4.184  13.921  69.262  0.00  0.00     0.028 H 
ENDBRANCH  33  35
BRANCH  33  39
ATOM     39  C13 non d ame      -5.997  16.906  69.570  0.00  0.00    -0.071 C 
ATOM     40  H16 non d ame      -6.293  17.381  68.634  0.00  0.00     0.028 H 
ATOM     41  H17 non d ame      -6.771  17.069  70.320  0.00  0.00     0.028 H 
ATOM     42  H18 non d ame      -5.059  17.338  69.916  0.00  0.00     0.028 H 
ENDBRANCH  33  39
ENDBRANCH   7  33
ENDBRANCH   4   7
ENDBRANCH   1   3
BRANCH   1  43
ATOM     43  C15 non d ame      -8.166  10.471  68.680  0.00  0.00     0.240 C 
ATOM     44  O5  non d ame      -8.263   9.348  68.304  0.00  0.00    -0.271 OA
ATOM     45  N6  non d ame      -9.389  11.308  68.840  0.00  0.00    -0.355 N 
ATOM     46  H46 non d ame      -9.319  12.262  69.164  0.00  0.00     0.162 HD
BRANCH  45  47
ATOM     47  C20 non d ame     -10.715  10.736  68.522  0.00  0.00     0.013 C 
ATOM     48  H30 non d ame     -10.579   9.679  68.297  0.00  0.00     0.072 H 
BRANCH  47  49
ATOM     49  C21 non d ame     -11.292  11.450  67.321  0.00  0.00    -0.038 C 
ATOM     50  H31 non d ame     -11.359  10.698  66.535  0.00  0.00     0.036 H 
ATOM     51  H32 non d ame     -12.194  11.946  67.679  0.00  0.00     0.036 H 
BRANCH  49  52
ATOM     52  C22 non d ame     -10.366  12.562  66.783  0.00  0.00     0.018 C 
ATOM     53  H33 non d ame     -10.706  13.484  67.255  0.00  0.00     0.048 H 
ATOM     54  H34 non d ame      -9.349  12.207  66.951  0.00  0.00     0.048 H 
BRANCH  52  55
ATOM     55  C23 non d ame     -10.491  12.795  65.251  0.00  0.00     0.259 C 
ATOM     56  O7  non d ame     -10.411  13.891  64.799  0.00  0.00    -0.265 OA
BRANCH  55  57
ATOM     57  O8  non d ame     -10.716  11.682  64.394  0.00  0.00    -0.317 OA
BRANCH  57  58
ATOM     58  C29 non d ame     -10.106  11.807  63.106  0.00  0.00     0.052 C 
ATOM     59  H47 non d ame     -10.914  11.684  62.384  0.00  0.00     0.082 H 
ATOM     60  H48 non d ame      -9.540  12.738  63.137  0.00  0.00     0.082 H 
BRANCH  58  61
ATOM     61  C35 non d ame      -9.108  10.631  62.932  0.00  0.00    -0.034 A 
ATOM     62  C30 non d ame      -8.216  10.627  61.865  0.00  0.00    -0.075 A 
ATOM     63  C31 non d ame      -7.320   9.571  61.709  0.00  0.00    -0.082 A 
ATOM     64  H49 non d ame      -8.218  11.451  61.152  0.00  0.00     0.084 H 
ATOM     65  C32 non d ame      -7.320   8.514  62.623  0.00  0.00    -0.083 A 
ATOM     66  H50 non d ame      -6.620   9.571  60.873  0.00  0.00     0.083 H 
ATOM     67  C33 non d ame      -8.215   8.521  63.685  0.00  0.00    -0.082 A 
ATOM     68  H51 non d ame      -6.622   7.685  62.509  0.00  0.00     0.083 H 
ATOM     69  C34 non d ame      -9.111   9.576  63.846  0.00  0.00    -0.075 A 
ATOM     70  H52 non d ame      -8.214   7.694  64.395  0.00  0.00     0.083 H 
ATOM     71  H53 non d ame      -9.810   9.575  64.683  0.00  0.00     0.084 H 
ENDBRANCH  58  61
ENDBRANCH  57  58
ENDBRANCH  55  57
ENDBRANCH  52  55
ENDBRANCH  49  52
ENDBRANCH  47  49
BRANCH  47  72
ATOM     72  C24 non d ame     -11.651  10.908  69.717  0.00  0.00    -0.039 C 
ATOM     73  H35 non d ame     -11.458  11.913  70.094  0.00  0.00     0.036 H 
ATOM     74  H36 non d ame     -12.643  10.647  69.348  0.00  0.00     0.036 H 
BRANCH  72  75
ATOM     75  C25 non d ame     -11.301   9.884  70.897  0.00  0.00    -0.001 C 
ATOM     76  C26 non d ame     -11.235   8.350  70.307  0.00  0.00    -0.035 C 
ATOM     77  C27 non d ame     -12.019   7.554  71.073  0.00  0.00     0.085 C 
ATOM     78  H38 non d ame     -11.709   8.307  69.326  0.00  0.00     0.036 H 
ATOM     79  H39 non d ame     -10.236   7.937  70.449  0.00  0.00     0.036 H 
ATOM     80  N5  non d ame     -12.868   8.462  71.929  0.00  0.00    -0.049 N 
ATOM     81  H40 non d ame     -12.664   7.020  70.374  0.00  0.00     0.075 H 
ATOM     82  H41 non d ame     -11.333   7.001  71.713  0.00  0.00     0.075 H 
ATOM     83  C28 non d ame     -12.191   9.925  71.832  0.00  0.00     0.193 C 
ATOM     84  H42 non d ame     -13.778   8.499  71.493  0.00  0.00     0.280 HD
ATOM     85  H43 non d ame     -12.775   8.129  72.878  0.00  0.00     0.280 HD
ATOM     86  H44 non d ame     -11.595  10.316  72.656  0.00  0.00     0.129 H 
ATOM     87  H37 non d ame     -10.456  10.220  71.499  0.00  0.00     0.046 H 
BRANCH  83  88
ATOM     88  O6  non d ame     -13.191  10.914  71.581  0.00  0.00    -0.369 OA
ATOM     89  H45 non d ame     -12.844  11.782  71.799  0.00  0.00     0.212 HD
ENDBRANCH  83  88
ENDBRANCH  72  75
ENDBRANCH  47  72
ENDBRANCH  45  47
ENDBRANCH   1  43
BRANCH   1  90
ATOM     90  C16 non d ame      -6.272  10.490  70.333  0.00  0.00    -0.035 C 
ATOM     91  H21 non d ame      -6.830  11.026  71.102  0.00  0.00     0.037 H 
ATOM     92  H22 non d ame      -6.374   9.409  70.240  0.00  0.00     0.037 H 
BRANCH  90  93
ATOM     93  C17 non d ame      -4.760  10.768  70.611  0.00  0.00    -0.059 C 
ATOM     94  H23 non d ame      -4.440  11.560  69.935  0.00  0.00     0.038 H 
BRANCH  93  95
ATOM     95  C18 non d ame      -4.510  11.259  72.073  0.00  0.00    -0.073 C 
ATOM     96  H24 non d ame      -5.020  12.210  72.228  0.00  0.00     0.028 H 
ATOM     97  H25 non d ame      -4.896  10.520  72.775  0.00  0.00     0.028 H 
ATOM     98  H26 non d ame      -3.440  11.390  72.234  0.00  0.00     0.028 H 
ENDBRANCH  93  95
BRANCH  93  99
ATOM     99  C19 non d ame      -3.911   9.533  70.299  0.00  0.00    -0.073 C 
ATOM    100  H27 non d ame      -3.399   9.205  71.204  0.00  0.00     0.028 H 
ATOM    101  H28 non d ame      -4.555   8.732  69.935  0.00  0.00     0.028 H 
ATOM    102  H29 non d ame      -3.175   9.781  69.535  0.00  0.00     0.028 H 
ENDBRANCH  93  99
ENDBRANCH  90  93
ENDBRANCH   1  90
TORSDOF 26
ENDMDL
MODEL 16
REMARK VINA RESULT:      -6.5      3.330     10.472
REMARK  26 active torsions:
REMARK  status: ('A' for Active; 'I' for Inactive)
REMARK    1  A    between atoms: C2_2  and  C3_3 
REMARK    2  A    between atoms: C4_6  and  C5_7 
REMARK       I    between atoms: C5_7  and  N2_9 
REMARK    3  A    between atoms: N2_9  and  C6_10 
REMARK    4  A    between atoms: C6_10  and  C7_11 
REMARK    5  A    between atoms: C6_10  and  C8_13 
REMARK       I    between atoms: C7_11  and  N3_14 
REMARK    6  A    between atoms: N3_14  and  C9_15 
REMARK    7  A    between atoms: C9_15  and  C10_16 
REMARK    8  A    between atoms: C9_15  and  C11_18 
REMARK       I    between atoms: C10_16  and  N4_21 
REMARK    9  A    between atoms: C11_18  and  C12_19 
REMARK   10  A    between atoms: C11_18  and  C13_20 
REMARK   11  A    between atoms: N4_21  and  C14_22 
REMARK   12  A    between atoms: C14_22  and  C15_23 
REMARK   13  A    between atoms: C14_22  and  C16_25 
REMARK       I    between atoms: C15_23  and  N6_40 
REMARK   14  A    between atoms: C16_25  and  C17_26 
REMARK   15  A    between atoms: C17_26  and  C18_27 
REMARK   16  A    between atoms: C17_26  and  C19_28 
REMARK   17  A    between atoms: C20_29  and  C21_30 
REMARK   18  A    between atoms: C20_29  and  C24_33 
REMARK   19  A    between atoms: C20_29  and  N6_40 
REMARK   20  A    between atoms: C21_30  and  C22_31 
REMARK   21  A    between atoms: C22_31  and  C23_32 
REMARK   22  A    between atoms: C23_32  and  O8_43 
REMARK   23  A    between atoms: C24_33  and  C25_34 
REMARK   24  A    between atoms: C28_38  and  O6_39 
REMARK   25  A    between atoms: C29_42  and  O8_43 
REMARK   26  A    between atoms: C29_42  and  C35_49 
ROOT
ATOM      1  C14 non d ame      -7.124   8.833  68.457  0.00  0.00     0.089 C 
ATOM      2  H20 non d ame      -6.049   8.747  68.301  0.00  0.00     0.087 H 
ENDROOT
BRANCH   1   3
ATOM      3  N4  non d ame      -7.770   8.669  67.163  0.00  0.00    -0.346 N 
ATOM      4  C10 non d ame      -7.042   9.043  65.897  0.00  0.00     0.241 C 
ATOM      5  O4  non d ame      -5.939   9.478  65.944  0.00  0.00    -0.271 OA
ATOM      6  H19 non d ame      -8.710   8.300  67.145  0.00  0.00     0.163 HD
BRANCH   4   7
ATOM      7  C9  non d ame      -7.723   8.861  64.566  0.00  0.00     0.092 C 
ATOM      8  H11 non d ame      -8.416   8.023  64.629  0.00  0.00     0.088 H 
BRANCH   7   9
ATOM      9  N3  non d ame      -8.515  10.055  64.254  0.00  0.00    -0.346 N 
ATOM     10  C7  non d ame      -9.784  10.268  64.905  0.00  0.00     0.240 C 
ATOM     11  O3  non d ame     -10.184   9.489  65.682  0.00  0.00    -0.271 OA
ATOM     12  H10 non d ame      -8.184  10.736  63.585  0.00  0.00     0.163 HD
BRANCH  10  13
ATOM     13  C6  non d ame     -10.623  11.539  64.567  0.00  0.00     0.086 C 
ATOM     14  H6  non d ame     -11.697  11.351  64.578  0.00  0.00     0.086 H 
BRANCH  13  15
ATOM     15  N2  non d ame     -10.369  12.554  65.576  0.00  0.00    -0.343 N 
ATOM     16  C5  non d ame     -11.358  12.786  66.631  0.00  0.00     0.273 C 
ATOM     17  O2  non d ame     -12.356  12.153  66.658  0.00  0.00    -0.266 OA
ATOM     18  H5  non d ame      -9.515  13.093  65.544  0.00  0.00     0.163 HD
BRANCH  16  19
ATOM     19  C4  non d ame     -11.102  13.855  67.705  0.00  0.00     0.154 A 
ATOM     20  C1  non d ame     -11.921  14.155  68.839  0.00  0.00    -0.017 A 
ATOM     21  C2  non d ame     -11.251  15.205  69.505  0.00  0.00     0.077 A 
ATOM     22  H1  non d ame     -12.858  13.682  69.135  0.00  0.00     0.091 H 
ATOM     23  O1  non d ame     -10.174  15.469  68.825  0.00  0.00    -0.218 OA
ATOM     24  N1  non d ame     -10.065  14.694  67.770  0.00  0.00    -0.123 NA
BRANCH  21  25
ATOM     25  C3  non d ame     -11.705  15.899  70.782  0.00  0.00    -0.029 C 
ATOM     26  H2  non d ame     -12.646  15.462  71.118  0.00  0.00     0.036 H 
ATOM     27  H3  non d ame     -10.948  15.769  71.555  0.00  0.00     0.036 H 
ATOM     28  H4  non d ame     -11.847  16.962  70.588  0.00  0.00     0.036 H 
ENDBRANCH  21  25
ENDBRANCH  16  19
ENDBRANCH  13  15
BRANCH  13  29
ATOM     29  C8  non d ame     -10.233  12.055  63.205  0.00  0.00    -0.049 C 
ATOM     30  H7  non d ame      -9.191  12.374  63.223  0.00  0.00     0.030 H 
ATOM     31  H8  non d ame     -10.359  11.263  62.467  0.00  0.00     0.030 H 
ATOM     32  H9  non d ame     -10.867  12.902  62.943  0.00  0.00     0.030 H 
ENDBRANCH  13  29
ENDBRANCH  10  13
ENDBRANCH   7   9
BRANCH   7  33
ATOM     33  C11 non d ame      -6.649   8.651  63.458  0.00  0.00    -0.033 C 
ATOM     34  H12 non d ame      -5.755   9.197  63.759  0.00  0.00     0.042 H 
BRANCH  33  35
ATOM     35  C12 non d ame      -6.257   7.146  63.325  0.00  0.00    -0.071 C 
ATOM     36  H13 non d ame      -5.648   6.852  64.180  0.00  0.00     0.028 H 
ATOM     37  H14 non d ame      -7.161   6.537  63.297  0.00  0.00     0.028 H 
ATOM     38  H15 non d ame      -5.690   6.999  62.407  0.00  0.00     0.028 H 
ENDBRANCH  33  35
BRANCH  33  39
ATOM     39  C13 non d ame      -7.133   9.233  62.091  0.00  0.00    -0.071 C 
ATOM     40  H16 non d ame      -8.120   8.834  61.856  0.00  0.00     0.028 H 
ATOM     41  H17 non d ame      -7.187  10.320  62.158  0.00  0.00     0.028 H 
ATOM     42  H18 non d ame      -6.431   8.951  61.308  0.00  0.00     0.028 H 
ENDBRANCH  33  39
ENDBRANCH   7  33
ENDBRANCH   4   7
ENDBRANCH   1   3
BRANCH   1  43
ATOM     43  C15 non d ame      -7.667   7.741  69.424  0.00  0.00     0.240 C 
ATOM     44  O5  non d ame      -6.909   7.109  70.085  0.00  0.00    -0.271 OA
ATOM     45  N6  non d ame      -9.132   7.491  69.530  0.00  0.00    -0.355 N 
ATOM     46  H46 non d ame      -9.786   8.025  68.977  0.00  0.00     0.162 HD
BRANCH  45  47
ATOM     47  C20 non d ame      -9.632   6.450  70.455  0.00  0.00     0.013 C 
ATOM     48  H30 non d ame      -8.770   5.931  70.873  0.00  0.00     0.072 H 
BRANCH  47  49
ATOM     49  C21 non d ame     -10.500   5.477  69.689  0.00  0.00    -0.038 C 
ATOM     50  H31 non d ame     -10.040   4.499  69.829  0.00  0.00     0.036 H 
ATOM     51  H32 non d ame     -11.518   5.655  70.035  0.00  0.00     0.036 H 
BRANCH  49  52
ATOM     52  C22 non d ame     -10.503   5.744  68.168  0.00  0.00     0.018 C 
ATOM     53  H33 non d ame     -11.552   5.822  67.884  0.00  0.00     0.048 H 
ATOM     54  H34 non d ame      -9.833   6.591  68.016  0.00  0.00     0.048 H 
BRANCH  52  55
ATOM     55  C23 non d ame      -9.916   4.578  67.326  0.00  0.00     0.259 C 
ATOM     56  O7  non d ame      -9.130   3.825  67.803  0.00  0.00    -0.265 OA
BRANCH  55  57
ATOM     57  O8  non d ame     -10.320   4.425  65.971  0.00  0.00    -0.317 OA
BRANCH  57  58
ATOM     58  C29 non d ame      -9.426   5.020  65.026  0.00  0.00     0.052 C 
ATOM     59  H47 non d ame      -9.722   6.068  64.960  0.00  0.00     0.082 H 
ATOM     60  H48 non d ame      -8.424   4.757  65.362  0.00  0.00     0.082 H 
BRANCH  58  61
ATOM     61  C35 non d ame      -9.673   4.353  63.647  0.00  0.00    -0.034 A 
ATOM     62  C30 non d ame     -10.721   3.453  63.486  0.00  0.00    -0.075 A 
ATOM     63  C31 non d ame     -10.943   2.853  62.247  0.00  0.00    -0.082 A 
ATOM     64  H49 non d ame     -11.370   3.218  64.330  0.00  0.00     0.084 H 
ATOM     65  C32 non d ame     -10.109   3.154  61.167  0.00  0.00    -0.083 A 
ATOM     66  H50 non d ame     -11.767   2.150  62.124  0.00  0.00     0.083 H 
ATOM     67  C33 non d ame      -9.062   4.050  61.333  0.00  0.00    -0.082 A 
ATOM     68  H51 non d ame     -10.275   2.690  60.195  0.00  0.00     0.083 H 
ATOM     69  C34 non d ame      -8.838   4.654  62.569  0.00  0.00    -0.075 A 
ATOM     70  H52 non d ame      -8.411   4.281  60.489  0.00  0.00     0.083 H 
ATOM     71  H53 non d ame      -8.014   5.357  62.691  0.00  0.00     0.084 H 
ENDBRANCH  58  61
ENDBRANCH  57  58
ENDBRANCH  55  57
ENDBRANCH  52  55
ENDBRANCH  49  52
ENDBRANCH  47  49
BRANCH  47  72
ATOM     72  C24 non d ame     -10.453   7.099  71.567  0.00  0.00    -0.039 C 
ATOM     73  H35 non d ame     -10.708   6.288  72.250  0.00  0.00     0.036 H 
ATOM     74  H36 non d ame      -9.853   7.939  71.919  0.00  0.00     0.036 H 
BRANCH  72  75
ATOM     75  C25 non d ame     -11.831   7.701  71.014  0.00  0.00    -0.001 C 
ATOM     76  C26 non d ame     -11.854   9.331  71.225  0.00  0.00    -0.035 C 
ATOM     77  C27 non d ame     -13.006   9.674  71.851  0.00  0.00     0.085 C 
ATOM     78  H38 non d ame     -11.081   9.628  71.933  0.00  0.00     0.036 H 
ATOM     79  H39 non d ame     -11.931   9.832  70.259  0.00  0.00     0.036 H 
ATOM     80  N5  non d ame     -13.617   8.399  72.379  0.00  0.00    -0.049 N 
ATOM     81  H40 non d ame     -12.705  10.299  72.693  0.00  0.00     0.075 H 
ATOM     82  H41 non d ame     -13.650  10.081  71.073  0.00  0.00     0.075 H 
ATOM     83  C28 non d ame     -12.845   7.193  71.633  0.00  0.00     0.193 C 
ATOM     84  H42 non d ame     -13.397   8.361  73.363  0.00  0.00     0.280 HD
ATOM     85  H43 non d ame     -14.581   8.397  72.077  0.00  0.00     0.280 HD
ATOM     86  H44 non d ame     -13.322   6.650  70.817  0.00  0.00     0.129 H 
ATOM     87  H37 non d ame     -12.076   7.325  70.020  0.00  0.00     0.046 H 
BRANCH  83  88
ATOM     88  O6  non d ame     -12.455   6.197  72.579  0.00  0.00    -0.369 OA
ATOM     89  H45 non d ame     -12.874   5.363  72.356  0.00  0.00     0.212 HD
ENDBRANCH  83  88
ENDBRANCH  72  75
ENDBRANCH  47  72
ENDBRANCH  45  47
ENDBRANCH   1  43
BRANCH   1  90
ATOM     90  C16 non d ame      -7.456  10.212  69.006  0.00  0.00    -0.035 C 
ATOM     91  H21 non d ame      -7.676  10.825  68.132  0.00  0.00     0.037 H 
ATOM     92  H22 non d ame      -8.225  10.045  69.761  0.00  0.00     0.037 H 
BRANCH  90  93
ATOM     93  C17 non d ame      -6.261  10.900  69.738  0.00  0.00    -0.059 C 
ATOM     94  H23 non d ame      -6.363  10.694  70.804  0.00  0.00     0.038 H 
BRANCH  93  95
ATOM     95  C18 non d ame      -4.881  10.333  69.273  0.00  0.00    -0.073 C 
ATOM     96  H24 non d ame      -4.844   9.262  69.467  0.00  0.00     0.028 H 
ATOM     97  H25 non d ame      -4.755  10.514  68.205  0.00  0.00     0.028 H 
ATOM     98  H26 non d ame      -4.081  10.830  69.823  0.00  0.00     0.028 H 
ENDBRANCH  93  95
BRANCH  93  99
ATOM     99  C19 non d ame      -6.313  12.419  69.562  0.00  0.00    -0.073 C 
ATOM    100  H27 non d ame      -6.773  12.872  70.441  0.00  0.00     0.028 H 
ATOM    101  H28 non d ame      -5.300  12.806  69.443  0.00  0.00     0.028 H 
ATOM    102  H29 non d ame      -6.901  12.663  68.678  0.00  0.00     0.028 H 
ENDBRANCH  93  99
ENDBRANCH  90  93
ENDBRANCH   1  90
TORSDOF 26
ENDMDL
MODEL 17
REMARK VINA RESULT:      -6.4      2.823      9.359
REMARK  26 active torsions:
REMARK  status: ('A' for Active; 'I' for Inactive)
REMARK    1  A    between atoms: C2_2  and  C3_3 
REMARK    2  A    between atoms: C4_6  and  C5_7 
REMARK       I    between atoms: C5_7  and  N2_9 
REMARK    3  A    between atoms: N2_9  and  C6_10 
REMARK    4  A    between atoms: C6_10  and  C7_11 
REMARK    5  A    between atoms: C6_10  and  C8_13 
REMARK       I    between atoms: C7_11  and  N3_14 
REMARK    6  A    between atoms: N3_14  and  C9_15 
REMARK    7  A    between atoms: C9_15  and  C10_16 
REMARK    8  A    between atoms: C9_15  and  C11_18 
REMARK       I    between atoms: C10_16  and  N4_21 
REMARK    9  A    between atoms: C11_18  and  C12_19 
REMARK   10  A    between atoms: C11_18  and  C13_20 
REMARK   11  A    between atoms: N4_21  and  C14_22 
REMARK   12  A    between atoms: C14_22  and  C15_23 
REMARK   13  A    between atoms: C14_22  and  C16_25 
REMARK       I    between atoms: C15_23  and  N6_40 
REMARK   14  A    between atoms: C16_25  and  C17_26 
REMARK   15  A    between atoms: C17_26  and  C18_27 
REMARK   16  A    between atoms: C17_26  and  C19_28 
REMARK   17  A    between atoms: C20_29  and  C21_30 
REMARK   18  A    between atoms: C20_29  and  C24_33 
REMARK   19  A    between atoms: C20_29  and  N6_40 
REMARK   20  A    between atoms: C21_30  and  C22_31 
REMARK   21  A    between atoms: C22_31  and  C23_32 
REMARK   22  A    between atoms: C23_32  and  O8_43 
REMARK   23  A    between atoms: C24_33  and  C25_34 
REMARK   24  A    between atoms: C28_38  and  O6_39 
REMARK   25  A    between atoms: C29_42  and  O8_43 
REMARK   26  A    between atoms: C29_42  and  C35_49 
ROOT
ATOM      1  C14 non d ame      -7.102  10.603  67.971  0.00  0.00     0.089 C 
ATOM      2  H20 non d ame      -6.044  10.538  67.712  0.00  0.00     0.087 H 
ENDROOT
BRANCH   1   3
ATOM      3  N4  non d ame      -7.866  10.350  66.759  0.00  0.00    -0.346 N 
ATOM      4  C10 non d ame      -7.195  10.402  65.410  0.00  0.00     0.241 C 
ATOM      5  O4  non d ame      -6.038  10.652  65.325  0.00  0.00    -0.271 OA
ATOM      6  H19 non d ame      -8.850  10.140  66.853  0.00  0.00     0.163 HD
BRANCH   4   7
ATOM      7  C9  non d ame      -8.000  10.131  64.167  0.00  0.00     0.092 C 
ATOM      8  H11 non d ame      -8.443   9.137  64.235  0.00  0.00     0.088 H 
BRANCH   7   9
ATOM      9  N3  non d ame      -9.104  11.092  64.080  0.00  0.00    -0.346 N 
ATOM     10  C7  non d ame     -10.352  10.818  64.749  0.00  0.00     0.240 C 
ATOM     11  O3  non d ame     -10.486   9.828  65.359  0.00  0.00    -0.271 OA
ATOM     12  H10 non d ame      -9.004  11.949  63.555  0.00  0.00     0.163 HD
BRANCH  10  13
ATOM     13  C6  non d ame     -11.524  11.843  64.650  0.00  0.00     0.086 C 
ATOM     14  H6  non d ame     -12.455  11.460  65.067  0.00  0.00     0.086 H 
BRANCH  13  15
ATOM     15  N2  non d ame     -11.180  13.028  65.419  0.00  0.00    -0.343 N 
ATOM     16  C5  non d ame     -11.468  13.065  66.854  0.00  0.00     0.273 C 
ATOM     17  O2  non d ame     -11.979  12.138  67.380  0.00  0.00    -0.266 OA
ATOM     18  H5  non d ame     -10.746  13.816  64.960  0.00  0.00     0.163 HD
BRANCH  16  19
ATOM     19  C4  non d ame     -11.108  14.310  67.680  0.00  0.00     0.154 A 
ATOM     20  C1  non d ame     -10.782  15.612  67.183  0.00  0.00    -0.017 A 
ATOM     21  C2  non d ame     -10.534  16.390  68.336  0.00  0.00     0.077 A 
ATOM     22  H1  non d ame     -10.733  15.942  66.145  0.00  0.00     0.091 H 
ATOM     23  O1  non d ame     -10.702  15.616  69.369  0.00  0.00    -0.218 OA
ATOM     24  N1  non d ame     -11.037  14.398  69.011  0.00  0.00    -0.123 NA
BRANCH  21  25
ATOM     25  C3  non d ame     -10.144  17.861  68.365  0.00  0.00    -0.029 C 
ATOM     26  H2  non d ame      -9.319  18.032  67.673  0.00  0.00     0.036 H 
ATOM     27  H3  non d ame     -10.998  18.469  68.069  0.00  0.00     0.036 H 
ATOM     28  H4  non d ame      -9.835  18.136  69.374  0.00  0.00     0.036 H 
ENDBRANCH  21  25
ENDBRANCH  16  19
ENDBRANCH  13  15
BRANCH  13  29
ATOM     29  C8  non d ame     -11.752  12.212  63.207  0.00  0.00    -0.049 C 
ATOM     30  H7  non d ame     -11.765  11.309  62.597  0.00  0.00     0.030 H 
ATOM     31  H8  non d ame     -12.707  12.729  63.110  0.00  0.00     0.030 H 
ATOM     32  H9  non d ame     -10.949  12.867  62.868  0.00  0.00     0.030 H 
ENDBRANCH  13  29
ENDBRANCH  10  13
ENDBRANCH   7   9
BRANCH   7  33
ATOM     33  C11 non d ame      -7.087  10.280  62.915  0.00  0.00    -0.033 C 
ATOM     34  H12 non d ame      -6.243  10.910  63.196  0.00  0.00     0.042 H 
BRANCH  33  35
ATOM     35  C12 non d ame      -6.512   8.901  62.463  0.00  0.00    -0.071 C 
ATOM     36  H13 non d ame      -6.124   8.984  61.447  0.00  0.00     0.028 H 
ATOM     37  H14 non d ame      -5.708   8.605  63.136  0.00  0.00     0.028 H 
ATOM     38  H15 non d ame      -7.303   8.152  62.489  0.00  0.00     0.028 H 
ENDBRANCH  33  35
BRANCH  33  39
ATOM     39  C13 non d ame      -7.848  10.986  61.747  0.00  0.00    -0.071 C 
ATOM     40  H16 non d ame      -8.401  11.841  62.138  0.00  0.00     0.028 H 
ATOM     41  H17 non d ame      -7.132  11.328  61.000  0.00  0.00     0.028 H 
ATOM     42  H18 non d ame      -8.543  10.283  61.290  0.00  0.00     0.028 H 
ENDBRANCH  33  39
ENDBRANCH   7  33
ENDBRANCH   4   7
ENDBRANCH   1   3
BRANCH   1  43
ATOM     43  C15 non d ame      -7.510   9.552  69.043  0.00  0.00     0.240 C 
ATOM     44  O5  non d ame      -6.672   9.014  69.692  0.00  0.00    -0.271 OA
ATOM     45  N6  non d ame      -8.946   9.223  69.267  0.00  0.00    -0.355 N 
ATOM     46  H46 non d ame      -9.667   9.677  68.725  0.00  0.00     0.162 HD
BRANCH  45  47
ATOM     47  C20 non d ame      -9.318   8.223  70.291  0.00  0.00     0.013 C 
ATOM     48  H30 non d ame      -8.398   7.806  70.702  0.00  0.00     0.072 H 
BRANCH  47  49
ATOM     49  C21 non d ame     -10.137   7.128  69.646  0.00  0.00    -0.038 C 
ATOM     50  H31 non d ame      -9.728   6.191  70.024  0.00  0.00     0.036 H 
ATOM     51  H32 non d ame     -11.178   7.386  69.841  0.00  0.00     0.036 H 
BRANCH  49  52
ATOM     52  C22 non d ame      -9.978   7.086  68.110  0.00  0.00     0.018 C 
ATOM     53  H33 non d ame     -10.909   7.484  67.706  0.00  0.00     0.048 H 
ATOM     54  H34 non d ame      -9.033   7.587  67.898  0.00  0.00     0.048 H 
BRANCH  52  55
ATOM     55  C23 non d ame      -9.840   5.649  67.534  0.00  0.00     0.259 C 
ATOM     56  O7  non d ame     -10.299   4.720  68.115  0.00  0.00    -0.265 OA
BRANCH  55  57
ATOM     57  O8  non d ame      -9.147   5.454  66.308  0.00  0.00    -0.317 OA
BRANCH  57  58
ATOM     58  C29 non d ame      -8.710   6.666  65.686  0.00  0.00     0.052 C 
ATOM     59  H47 non d ame      -9.261   6.732  64.748  0.00  0.00     0.082 H 
ATOM     60  H48 non d ame      -8.825   7.443  66.442  0.00  0.00     0.082 H 
BRANCH  58  61
ATOM     61  C35 non d ame      -7.200   6.520  65.359  0.00  0.00    -0.034 A 
ATOM     62  C30 non d ame      -6.796   5.788  64.247  0.00  0.00    -0.075 A 
ATOM     63  C31 non d ame      -5.439   5.656  63.953  0.00  0.00    -0.082 A 
ATOM     64  H49 non d ame      -7.542   5.318  63.606  0.00  0.00     0.084 H 
ATOM     65  C32 non d ame      -4.485   6.257  64.778  0.00  0.00    -0.083 A 
ATOM     66  H50 non d ame      -5.126   5.084  63.080  0.00  0.00     0.083 H 
ATOM     67  C33 non d ame      -4.893   6.984  65.889  0.00  0.00    -0.082 A 
ATOM     68  H51 non d ame      -3.423   6.160  64.556  0.00  0.00     0.083 H 
ATOM     69  C34 non d ame      -6.248   7.120  66.185  0.00  0.00    -0.075 A 
ATOM     70  H52 non d ame      -4.146   7.450  66.532  0.00  0.00     0.083 H 
ATOM     71  H53 non d ame      -6.560   7.693  67.059  0.00  0.00     0.084 H 
ENDBRANCH  58  61
ENDBRANCH  57  58
ENDBRANCH  55  57
ENDBRANCH  52  55
ENDBRANCH  49  52
ENDBRANCH  47  49
BRANCH  47  72
ATOM     72  C24 non d ame     -10.137   8.891  71.393  0.00  0.00    -0.039 C 
ATOM     73  H35 non d ame     -10.121   8.193  72.230  0.00  0.00     0.036 H 
ATOM     74  H36 non d ame      -9.712   9.888  71.506  0.00  0.00     0.036 H 
BRANCH  72  75
ATOM     75  C25 non d ame     -11.669   9.077  70.962  0.00  0.00    -0.001 C 
ATOM     76  C26 non d ame     -11.998  10.673  70.740  0.00  0.00    -0.035 C 
ATOM     77  C27 non d ame     -13.104  10.994  71.454  0.00  0.00     0.085 C 
ATOM     78  H38 non d ame     -11.216  11.282  71.192  0.00  0.00     0.036 H 
ATOM     79  H39 non d ame     -12.301  10.852  69.708  0.00  0.00     0.036 H 
ATOM     80  N5  non d ame     -13.367   9.847  72.399  0.00  0.00    -0.049 N 
ATOM     81  H40 non d ame     -12.830  11.877  72.034  0.00  0.00     0.075 H 
ATOM     82  H41 non d ame     -13.914  11.049  70.728  0.00  0.00     0.075 H 
ATOM     83  C28 non d ame     -12.468   8.617  71.866  0.00  0.00     0.193 C 
ATOM     84  H42 non d ame     -13.017  10.134  73.302  0.00  0.00     0.280 HD
ATOM     85  H43 non d ame     -14.342   9.604  72.289  0.00  0.00     0.280 HD
ATOM     86  H44 non d ame     -12.927   7.790  71.323  0.00  0.00     0.129 H 
ATOM     87  H37 non d ame     -11.959   8.395  70.163  0.00  0.00     0.046 H 
BRANCH  83  88
ATOM     88  O6  non d ame     -11.763   8.015  72.953  0.00  0.00    -0.369 OA
ATOM     89  H45 non d ame     -12.382   7.542  73.514  0.00  0.00     0.212 HD
ENDBRANCH  83  88
ENDBRANCH  72  75
ENDBRANCH  47  72
ENDBRANCH  45  47
ENDBRANCH   1  43
BRANCH   1  90
ATOM     90  C16 non d ame      -7.423  12.000  68.477  0.00  0.00    -0.035 C 
ATOM     91  H21 non d ame      -8.435  12.208  68.130  0.00  0.00     0.037 H 
ATOM     92  H22 non d ame      -7.208  11.977  69.546  0.00  0.00     0.037 H 
BRANCH  90  93
ATOM     93  C17 non d ame      -6.510  13.112  67.868  0.00  0.00    -0.059 C 
ATOM     94  H23 non d ame      -6.170  12.763  66.893  0.00  0.00     0.038 H 
BRANCH  93  95
ATOM     95  C18 non d ame      -7.282  14.454  67.651  0.00  0.00    -0.073 C 
ATOM     96  H24 non d ame      -7.495  14.910  68.617  0.00  0.00     0.028 H 
ATOM     97  H25 non d ame      -6.670  15.132  67.056  0.00  0.00     0.028 H 
ATOM     98  H26 non d ame      -8.217  14.254  67.128  0.00  0.00     0.028 H 
ENDBRANCH  93  95
BRANCH  93  99
ATOM     99  C19 non d ame      -5.266  13.333  68.732  0.00  0.00    -0.073 C 
ATOM    100  H27 non d ame      -5.395  14.235  69.332  0.00  0.00     0.028 H 
ATOM    101  H28 non d ame      -5.125  12.476  69.391  0.00  0.00     0.028 H 
ATOM    102  H29 non d ame      -4.393  13.446  68.090  0.00  0.00     0.028 H 
ENDBRANCH  93  99
ENDBRANCH  90  93
ENDBRANCH   1  90
TORSDOF 26
ENDMDL
MODEL 18
REMARK VINA RESULT:      -6.4      2.850      8.204
REMARK  26 active torsions:
REMARK  status: ('A' for Active; 'I' for Inactive)
REMARK    1  A    between atoms: C2_2  and  C3_3 
REMARK    2  A    between atoms: C4_6  and  C5_7 
REMARK       I    between atoms: C5_7  and  N2_9 
REMARK    3  A    between atoms: N2_9  and  C6_10 
REMARK    4  A    between atoms: C6_10  and  C7_11 
REMARK    5  A    between atoms: C6_10  and  C8_13 
REMARK       I    between atoms: C7_11  and  N3_14 
REMARK    6  A    between atoms: N3_14  and  C9_15 
REMARK    7  A    between atoms: C9_15  and  C10_16 
REMARK    8  A    between atoms: C9_15  and  C11_18 
REMARK       I    between atoms: C10_16  and  N4_21 
REMARK    9  A    between atoms: C11_18  and  C12_19 
REMARK   10  A    between atoms: C11_18  and  C13_20 
REMARK   11  A    between atoms: N4_21  and  C14_22 
REMARK   12  A    between atoms: C14_22  and  C15_23 
REMARK   13  A    between atoms: C14_22  and  C16_25 
REMARK       I    between atoms: C15_23  and  N6_40 
REMARK   14  A    between atoms: C16_25  and  C17_26 
REMARK   15  A    between atoms: C17_26  and  C18_27 
REMARK   16  A    between atoms: C17_26  and  C19_28 
REMARK   17  A    between atoms: C20_29  and  C21_30 
REMARK   18  A    between atoms: C20_29  and  C24_33 
REMARK   19  A    between atoms: C20_29  and  N6_40 
REMARK   20  A    between atoms: C21_30  and  C22_31 
REMARK   21  A    between atoms: C22_31  and  C23_32 
REMARK   22  A    between atoms: C23_32  and  O8_43 
REMARK   23  A    between atoms: C24_33  and  C25_34 
REMARK   24  A    between atoms: C28_38  and  O6_39 
REMARK   25  A    between atoms: C29_42  and  O8_43 
REMARK   26  A    between atoms: C29_42  and  C35_49 
ROOT
ATOM      1  C14 non d ame      -5.269   8.533  66.175  0.00  0.00     0.089 C 
ATOM      2  H20 non d ame      -4.954   7.599  66.641  0.00  0.00     0.087 H 
ENDROOT
BRANCH   1   3
ATOM      3  N4  non d ame      -6.383   8.228  65.289  0.00  0.00    -0.346 N 
ATOM      4  C10 non d ame      -7.307   7.076  65.596  0.00  0.00     0.241 C 
ATOM      5  O4  non d ame      -7.133   6.408  66.561  0.00  0.00    -0.271 OA
ATOM      6  H19 non d ame      -6.512   8.807  64.472  0.00  0.00     0.163 HD
BRANCH   4   7
ATOM      7  C9  non d ame      -8.457   6.778  64.671  0.00  0.00     0.092 C 
ATOM      8  H11 non d ame      -9.388   6.797  65.239  0.00  0.00     0.088 H 
BRANCH   7   9
ATOM      9  N3  non d ame      -8.550   7.827  63.651  0.00  0.00    -0.346 N 
ATOM     10  C7  non d ame      -8.998   9.149  64.016  0.00  0.00     0.240 C 
ATOM     11  O3  non d ame      -9.290   9.385  65.125  0.00  0.00    -0.271 OA
ATOM     12  H10 non d ame      -8.303   7.638  62.691  0.00  0.00     0.163 HD
BRANCH  10  13
ATOM     13  C6  non d ame      -9.097  10.260  62.926  0.00  0.00     0.086 C 
ATOM     14  H6  non d ame      -9.916  10.093  62.226  0.00  0.00     0.086 H 
BRANCH  13  15
ATOM     15  N2  non d ame      -9.358  11.535  63.574  0.00  0.00    -0.343 N 
ATOM     16  C5  non d ame     -10.732  12.034  63.656  0.00  0.00     0.273 C 
ATOM     17  O2  non d ame     -11.620  11.405  63.196  0.00  0.00    -0.266 OA
ATOM     18  H5  non d ame      -8.593  12.068  63.963  0.00  0.00     0.163 HD
BRANCH  16  19
ATOM     19  C4  non d ame     -11.023  13.379  64.341  0.00  0.00     0.154 A 
ATOM     20  C1  non d ame     -10.106  14.187  65.085  0.00  0.00    -0.017 A 
ATOM     21  C2  non d ame     -10.861  15.307  65.498  0.00  0.00     0.077 A 
ATOM     22  H1  non d ame      -9.054  13.990  65.293  0.00  0.00     0.091 H 
ATOM     23  O1  non d ame     -12.068  15.152  65.038  0.00  0.00    -0.218 OA
ATOM     24  N1  non d ame     -12.187  14.034  64.360  0.00  0.00    -0.123 NA
BRANCH  21  25
ATOM     25  C3  non d ame     -10.353  16.480  66.327  0.00  0.00    -0.029 C 
ATOM     26  H2  non d ame      -9.421  16.851  65.900  0.00  0.00     0.036 H 
ATOM     27  H3  non d ame     -11.097  17.276  66.322  0.00  0.00     0.036 H 
ATOM     28  H4  non d ame     -10.178  16.152  67.352  0.00  0.00     0.036 H 
ENDBRANCH  21  25
ENDBRANCH  16  19
ENDBRANCH  13  15
BRANCH  13  29
ATOM     29  C8  non d ame      -7.804  10.329  62.154  0.00  0.00    -0.049 C 
ATOM     30  H7  non d ame      -7.081  10.927  62.709  0.00  0.00     0.030 H 
ATOM     31  H8  non d ame      -7.410   9.322  62.014  0.00  0.00     0.030 H 
ATOM     32  H9  non d ame      -7.984  10.787  61.183  0.00  0.00     0.030 H 
ENDBRANCH  13  29
ENDBRANCH  10  13
ENDBRANCH   7   9
BRANCH   7  33
ATOM     33  C11 non d ame      -8.222   5.404  63.978  0.00  0.00    -0.033 C 
ATOM     34  H12 non d ame      -7.344   4.950  64.437  0.00  0.00     0.042 H 
BRANCH  33  35
ATOM     35  C12 non d ame      -9.426   4.438  64.209  0.00  0.00    -0.071 C 
ATOM     36  H13 non d ame     -10.192   4.625  63.457  0.00  0.00     0.028 H 
ATOM     37  H14 non d ame      -9.083   3.406  64.129  0.00  0.00     0.028 H 
ATOM     38  H15 non d ame      -9.841   4.607  65.202  0.00  0.00     0.028 H 
ENDBRANCH  33  35
BRANCH  33  39
ATOM     39  C13 non d ame      -7.930   5.589  62.454  0.00  0.00    -0.071 C 
ATOM     40  H16 non d ame      -8.112   4.650  61.933  0.00  0.00     0.028 H 
ATOM     41  H17 non d ame      -8.584   6.362  62.050  0.00  0.00     0.028 H 
ATOM     42  H18 non d ame      -6.889   5.885  62.318  0.00  0.00     0.028 H 
ENDBRANCH  33  39
ENDBRANCH   7  33
ENDBRANCH   4   7
ENDBRANCH   1   3
BRANCH   1  43
ATOM     43  C15 non d ame      -5.743   9.581  67.223  0.00  0.00     0.240 C 
ATOM     44  O5  non d ame      -5.044   9.853  68.145  0.00  0.00    -0.271 OA
ATOM     45  N6  non d ame      -7.066  10.251  67.073  0.00  0.00    -0.355 N 
ATOM     46  H46 non d ame      -7.667  10.031  66.292  0.00  0.00     0.162 HD
BRANCH  45  47
ATOM     47  C20 non d ame      -7.502  11.246  68.077  0.00  0.00     0.013 C 
ATOM     48  H30 non d ame      -7.003  11.014  69.018  0.00  0.00     0.072 H 
BRANCH  47  49
ATOM     49  C21 non d ame      -9.001  11.156  68.252  0.00  0.00    -0.038 C 
ATOM     50  H31 non d ame      -9.350  10.488  67.464  0.00  0.00     0.036 H 
ATOM     51  H32 non d ame      -9.160  10.894  69.298  0.00  0.00     0.036 H 
BRANCH  49  52
ATOM     52  C22 non d ame      -9.713  12.507  68.027  0.00  0.00     0.018 C 
ATOM     53  H33 non d ame      -9.301  13.186  68.774  0.00  0.00     0.048 H 
ATOM     54  H34 non d ame      -9.598  12.729  66.966  0.00  0.00     0.048 H 
BRANCH  52  55
ATOM     55  C23 non d ame     -11.244  12.460  68.290  0.00  0.00     0.259 C 
ATOM     56  O7  non d ame     -11.980  11.985  67.487  0.00  0.00    -0.265 OA
BRANCH  55  57
ATOM     57  O8  non d ame     -11.760  13.003  69.499  0.00  0.00    -0.317 OA
BRANCH  57  58
ATOM     58  C29 non d ame     -12.319  14.313  69.358  0.00  0.00     0.052 C 
ATOM     59  H47 non d ame     -11.531  14.923  68.917  0.00  0.00     0.082 H 
ATOM     60  H48 non d ame     -13.262  14.175  68.829  0.00  0.00     0.082 H 
BRANCH  58  61
ATOM     61  C35 non d ame     -12.627  14.858  70.777  0.00  0.00    -0.034 A 
ATOM     62  C30 non d ame     -11.585  15.167  71.647  0.00  0.00    -0.075 A 
ATOM     63  C31 non d ame     -11.862  15.656  72.922  0.00  0.00    -0.082 A 
ATOM     64  H49 non d ame     -10.553  15.025  71.328  0.00  0.00     0.084 H 
ATOM     65  C32 non d ame     -13.187  15.835  73.329  0.00  0.00    -0.083 A 
ATOM     66  H50 non d ame     -11.044  15.900  73.600  0.00  0.00     0.083 H 
ATOM     67  C33 non d ame     -14.223  15.522  72.459  0.00  0.00    -0.082 A 
ATOM     68  H51 non d ame     -13.412  16.218  74.324  0.00  0.00     0.083 H 
ATOM     69  C34 non d ame     -13.951  15.035  71.183  0.00  0.00    -0.075 A 
ATOM     70  H52 non d ame     -15.256  15.661  72.780  0.00  0.00     0.083 H 
ATOM     71  H53 non d ame     -14.771  14.792  70.505  0.00  0.00     0.084 H 
ENDBRANCH  58  61
ENDBRANCH  57  58
ENDBRANCH  55  57
ENDBRANCH  52  55
ENDBRANCH  49  52
ENDBRANCH  47  49
BRANCH  47  72
ATOM     72  C24 non d ame      -7.127  12.650  67.609  0.00  0.00    -0.039 C 
ATOM     73  H35 non d ame      -6.556  12.507  66.691  0.00  0.00     0.036 H 
ATOM     74  H36 non d ame      -8.063  13.209  67.587  0.00  0.00     0.036 H 
BRANCH  72  75
ATOM     75  C25 non d ame      -6.162  13.386  68.655  0.00  0.00    -0.001 C 
ATOM     76  C26 non d ame      -6.691  14.920  68.922  0.00  0.00    -0.035 C 
ATOM     77  C27 non d ame      -5.655  15.775  68.747  0.00  0.00     0.085 C 
ATOM     78  H38 non d ame      -7.397  15.212  68.145  0.00  0.00     0.036 H 
ATOM     79  H39 non d ame      -6.953  15.048  69.972  0.00  0.00     0.036 H 
ATOM     80  N5  non d ame      -4.552  15.000  68.069  0.00  0.00    -0.049 N 
ATOM     81  H40 non d ame      -6.022  16.542  68.064  0.00  0.00     0.075 H 
ATOM     82  H41 non d ame      -5.331  16.049  69.751  0.00  0.00     0.075 H 
ATOM     83  C28 non d ame      -4.950  13.442  68.214  0.00  0.00     0.193 C 
ATOM     84  H42 non d ame      -4.586  15.250  67.091  0.00  0.00     0.280 HD
ATOM     85  H43 non d ame      -3.712  15.168  68.604  0.00  0.00     0.280 HD
ATOM     86  H44 non d ame      -4.445  12.807  68.943  0.00  0.00     0.129 H 
ATOM     87  H37 non d ame      -5.960  12.772  69.533  0.00  0.00     0.046 H 
BRANCH  83  88
ATOM     88  O6  non d ame      -4.802  12.776  66.959  0.00  0.00    -0.369 OA
ATOM     89  H45 non d ame      -4.787  11.827  67.101  0.00  0.00     0.212 HD
ENDBRANCH  83  88
ENDBRANCH  72  75
ENDBRANCH  47  72
ENDBRANCH  45  47
ENDBRANCH   1  43
BRANCH   1  90
ATOM     90  C16 non d ame      -4.127   9.111  65.356  0.00  0.00    -0.035 C 
ATOM     91  H21 non d ame      -3.760   9.961  65.931  0.00  0.00     0.037 H 
ATOM     92  H22 non d ame      -3.467   8.269  65.147  0.00  0.00     0.037 H 
BRANCH  90  93
ATOM     93  C17 non d ame      -4.573   9.676  63.970  0.00  0.00    -0.059 C 
ATOM     94  H23 non d ame      -5.663   9.685  63.952  0.00  0.00     0.038 H 
BRANCH  93  95
ATOM     95  C18 non d ame      -4.081  11.142  63.745  0.00  0.00    -0.073 C 
ATOM     96  H24 non d ame      -3.038  11.130  63.430  0.00  0.00     0.028 H 
ATOM     97  H25 non d ame      -4.689  11.614  62.972  0.00  0.00     0.028 H 
ATOM     98  H26 non d ame      -4.175  11.703  64.675  0.00  0.00     0.028 H 
ENDBRANCH  93  95
BRANCH  93  99
ATOM     99  C19 non d ame      -4.107   8.764  62.832  0.00  0.00    -0.073 C 
ATOM    100  H27 non d ame      -4.741   7.878  62.793  0.00  0.00     0.028 H 
ATOM    101  H28 non d ame      -4.175   9.301  61.885  0.00  0.00     0.028 H 
ATOM    102  H29 non d ame      -3.074   8.466  63.006  0.00  0.00     0.028 H 
ENDBRANCH  93  99
ENDBRANCH  90  93
ENDBRANCH   1  90
TORSDOF 26
ENDMDL
