MODEL 1
REMARK VINA RESULT:      -7.6      0.000      0.000
REMARK  26 active torsions:
REMARK  status: ('A' for Active; 'I' for Inactive)
REMARK    1  A    between atoms: C2_2  and  C3_3 
REMARK    2  A    between atoms: C4_6  and  C5_7 
REMARK       I    between atoms: C5_7  and  N2_9 
REMARK    3  A    between atoms: N2_9  and  C6_10 
REMARK    4  A    between atoms: C6_10  and  C7_11 
REMARK    5  A    between atoms: C6_10  and  C8_13 
REMARK       I    between atoms: C7_11  and  N3_14 
REMARK    6  A    between atoms: N3_14  and  C9_15 
REMARK    7  A    between atoms: C9_15  and  C10_16 
REMARK    8  A    between atoms: C9_15  and  C11_18 
REMARK       I    between atoms: C10_16  and  N4_21 
REMARK    9  A    between atoms: C11_18  and  C12_19 
REMARK   10  A    between atoms: C11_18  and  C13_20 
REMARK   11  A    between atoms: N4_21  and  C14_22 
REMARK   12  A    between atoms: C14_22  and  C15_23 
REMARK   13  A    between atoms: C14_22  and  C16_25 
REMARK       I    between atoms: C15_23  and  N6_40 
REMARK   14  A    between atoms: C16_25  and  C17_26 
REMARK   15  A    between atoms: C17_26  and  C18_27 
REMARK   16  A    between atoms: C17_26  and  C19_28 
REMARK   17  A    between atoms: C20_29  and  C21_30 
REMARK   18  A    between atoms: C20_29  and  C24_33 
REMARK   19  A    between atoms: C20_29  and  N6_40 
REMARK   20  A    between atoms: C21_30  and  C22_31 
REMARK   21  A    between atoms: C22_31  and  C23_32 
REMARK   22  A    between atoms: C23_32  and  O8_43 
REMARK   23  A    between atoms: C24_33  and  C25_34 
REMARK   24  A    between atoms: C28_38  and  O6_39 
REMARK   25  A    between atoms: C29_42  and  O8_43 
REMARK   26  A    between atoms: C29_42  and  C35_49 
ROOT
ATOM      1  C14 non d ame     -11.689  14.324  69.936  0.00  0.00     0.089 C 
ATOM      2  H20 non d ame     -12.707  14.292  69.547  0.00  0.00     0.087 H 
ENDROOT
BRANCH   1   3
ATOM      3  N4  non d ame     -11.210  12.952  70.024  0.00  0.00    -0.346 N 
ATOM      4  C10 non d ame     -11.466  11.982  68.899  0.00  0.00     0.241 C 
ATOM      5  O4  non d ame     -12.062  12.328  67.933  0.00  0.00    -0.271 OA
ATOM      6  H19 non d ame     -10.706  12.677  70.856  0.00  0.00     0.163 HD
BRANCH   4   7
ATOM      7  C9  non d ame     -10.958  10.568  69.004  0.00  0.00     0.092 C 
ATOM      8  H11 non d ame     -10.071  10.552  69.637  0.00  0.00     0.088 H 
BRANCH   7   9
ATOM      9  N3  non d ame     -11.971   9.732  69.655  0.00  0.00    -0.346 N 
ATOM     10  C7  non d ame     -11.720   9.188  70.967  0.00  0.00     0.240 C 
ATOM     11  O3  non d ame     -10.709   9.411  71.512  0.00  0.00    -0.271 OA
ATOM     12  H10 non d ame     -12.847   9.529  69.197  0.00  0.00     0.163 HD
BRANCH  10  13
ATOM     13  C6  non d ame     -12.800   8.296  71.654  0.00  0.00     0.086 C 
ATOM     14  H6  non d ame     -13.319   7.644  70.951  0.00  0.00     0.086 H 
BRANCH  13  15
ATOM     15  N2  non d ame     -12.150   7.429  72.623  0.00  0.00    -0.343 N 
ATOM     16  C5  non d ame     -11.494   6.201  72.166  0.00  0.00     0.273 C 
ATOM     17  O2  non d ame     -11.499   5.919  71.019  0.00  0.00    -0.266 OA
ATOM     18  H5  non d ame     -12.154   7.677  73.602  0.00  0.00     0.163 HD
BRANCH  16  19
ATOM     19  C4  non d ame     -10.801   5.276  73.179  0.00  0.00     0.154 A 
ATOM     20  C1  non d ame     -11.162   3.932  73.510  0.00  0.00    -0.017 A 
ATOM     21  C2  non d ame     -10.220   3.531  74.483  0.00  0.00     0.077 A 
ATOM     22  H1  non d ame     -11.982   3.338  73.106  0.00  0.00     0.091 H 
ATOM     23  O1  non d ame      -9.416   4.535  74.680  0.00  0.00    -0.218 OA
ATOM     24  N1  non d ame      -9.735   5.565  73.930  0.00  0.00    -0.123 NA
BRANCH  21  25
ATOM     25  C3  non d ame     -10.157   2.175  75.173  0.00  0.00    -0.029 C 
ATOM     26  H2  non d ame     -10.668   1.432  74.561  0.00  0.00     0.036 H 
ATOM     27  H3  non d ame      -9.116   1.883  75.306  0.00  0.00     0.036 H 
ATOM     28  H4  non d ame     -10.643   2.240  76.147  0.00  0.00     0.036 H 
ENDBRANCH  21  25
ENDBRANCH  16  19
ENDBRANCH  13  15
BRANCH  13  29
ATOM     29  C8  non d ame     -13.814   9.172  72.345  0.00  0.00    -0.049 C 
ATOM     30  H7  non d ame     -14.526   8.548  72.886  0.00  0.00     0.030 H 
ATOM     31  H8  non d ame     -13.306   9.835  73.045  0.00  0.00     0.030 H 
ATOM     32  H9  non d ame     -14.346   9.767  71.602  0.00  0.00     0.030 H 
ENDBRANCH  13  29
ENDBRANCH  10  13
ENDBRANCH   7   9
BRANCH   7  33
ATOM     33  C11 non d ame     -10.670  10.013  67.578  0.00  0.00    -0.033 C 
ATOM     34  H12 non d ame     -11.462  10.370  66.920  0.00  0.00     0.042 H 
BRANCH  33  35
ATOM     35  C12 non d ame      -9.317  10.555  67.020  0.00  0.00    -0.071 C 
ATOM     36  H13 non d ame      -8.512   9.872  67.294  0.00  0.00     0.028 H 
ATOM     37  H14 non d ame      -9.375  10.629  65.935  0.00  0.00     0.028 H 
ATOM     38  H15 non d ame      -9.118  11.539  67.442  0.00  0.00     0.028 H 
ENDBRANCH  33  35
BRANCH  33  39
ATOM     39  C13 non d ame     -10.701   8.451  67.570  0.00  0.00    -0.071 C 
ATOM     40  H16 non d ame     -11.735   8.108  67.601  0.00  0.00     0.028 H 
ATOM     41  H17 non d ame     -10.224   8.083  66.661  0.00  0.00     0.028 H 
ATOM     42  H18 non d ame     -10.166   8.072  68.440  0.00  0.00     0.028 H 
ENDBRANCH  33  39
ENDBRANCH   7  33
ENDBRANCH   4   7
ENDBRANCH   1   3
BRANCH   1  43
ATOM     43  C15 non d ame     -10.730  15.125  69.010  0.00  0.00     0.240 C 
ATOM     44  O5  non d ame      -9.647  15.424  69.397  0.00  0.00    -0.271 OA
ATOM     45  N6  non d ame     -11.159  15.512  67.636  0.00  0.00    -0.355 N 
ATOM     46  H46 non d ame     -12.075  15.259  67.294  0.00  0.00     0.162 HD
BRANCH  45  47
ATOM     47  C20 non d ame     -10.236  16.272  66.766  0.00  0.00     0.013 C 
ATOM     48  H30 non d ame      -9.221  16.107  67.129  0.00  0.00     0.072 H 
BRANCH  47  49
ATOM     49  C21 non d ame     -10.577  17.743  66.839  0.00  0.00    -0.038 C 
ATOM     50  H31 non d ame     -10.505  18.114  65.816  0.00  0.00     0.036 H 
ATOM     51  H32 non d ame     -11.526  17.798  67.374  0.00  0.00     0.036 H 
BRANCH  49  52
ATOM     52  C22 non d ame      -9.560  18.554  67.670  0.00  0.00     0.018 C 
ATOM     53  H33 non d ame     -10.136  19.344  68.153  0.00  0.00     0.048 H 
ATOM     54  H34 non d ame      -9.023  17.823  68.276  0.00  0.00     0.048 H 
BRANCH  52  55
ATOM     55  C23 non d ame      -8.482  19.273  66.813  0.00  0.00     0.259 C 
ATOM     56  O7  non d ame      -8.203  18.868  65.731  0.00  0.00    -0.265 OA
BRANCH  55  57
ATOM     57  O8  non d ame      -7.821  20.417  67.340  0.00  0.00    -0.317 OA
BRANCH  57  58
ATOM     58  C29 non d ame      -6.396  20.301  67.375  0.00  0.00     0.052 C 
ATOM     59  H47 non d ame      -6.137  19.599  66.583  0.00  0.00     0.082 H 
ATOM     60  H48 non d ame      -6.016  21.322  67.344  0.00  0.00     0.082 H 
BRANCH  58  61
ATOM     61  C35 non d ame      -6.001  19.673  68.738  0.00  0.00    -0.034 A 
ATOM     62  C30 non d ame      -5.941  20.465  69.880  0.00  0.00    -0.075 A 
ATOM     63  C31 non d ame      -5.586  19.901  71.104  0.00  0.00    -0.082 A 
ATOM     64  H49 non d ame      -6.174  21.528  69.816  0.00  0.00     0.084 H 
ATOM     65  C32 non d ame      -5.286  18.538  71.183  0.00  0.00    -0.083 A 
ATOM     66  H50 non d ame      -5.543  20.524  71.998  0.00  0.00     0.083 H 
ATOM     67  C33 non d ame      -5.344  17.752  70.041  0.00  0.00    -0.082 A 
ATOM     68  H51 non d ame      -5.008  18.088  72.137  0.00  0.00     0.083 H 
ATOM     69  C34 non d ame      -5.700  18.311  68.816  0.00  0.00    -0.075 A 
ATOM     70  H52 non d ame      -5.107  16.689  70.105  0.00  0.00     0.083 H 
ATOM     71  H53 non d ame      -5.744  17.687  67.923  0.00  0.00     0.084 H 
ENDBRANCH  58  61
ENDBRANCH  57  58
ENDBRANCH  55  57
ENDBRANCH  52  55
ENDBRANCH  49  52
ENDBRANCH  47  49
BRANCH  47  72
ATOM     72  C24 non d ame     -10.369  15.789  65.323  0.00  0.00    -0.039 C 
ATOM     73  H35 non d ame     -10.815  16.621  64.779  0.00  0.00     0.036 H 
ATOM     74  H36 non d ame      -9.379  15.425  65.047  0.00  0.00     0.036 H 
BRANCH  72  75
ATOM     75  C25 non d ame     -11.378  14.550  65.204  0.00  0.00    -0.001 C 
ATOM     76  C26 non d ame     -10.546  13.186  64.813  0.00  0.00    -0.035 C 
ATOM     77  C27 non d ame     -11.139  12.605  63.743  0.00  0.00     0.085 C 
ATOM     78  H38 non d ame      -9.554  13.446  64.445  0.00  0.00     0.036 H 
ATOM     79  H39 non d ame     -10.658  12.441  65.601  0.00  0.00     0.036 H 
ATOM     80  N5  non d ame     -12.099  13.618  63.166  0.00  0.00    -0.049 N 
ATOM     81  H40 non d ame     -10.337  12.428  63.026  0.00  0.00     0.075 H 
ATOM     82  H41 non d ame     -11.707  11.767  64.144  0.00  0.00     0.075 H 
ATOM     83  C28 non d ame     -12.270  14.760  64.295  0.00  0.00     0.193 C 
ATOM     84  H42 non d ame     -11.639  14.024  62.364  0.00  0.00     0.280 HD
ATOM     85  H43 non d ame     -12.983  13.143  63.054  0.00  0.00     0.280 HD
ATOM     86  H44 non d ame     -13.171  14.803  64.907  0.00  0.00     0.129 H 
ATOM     87  H37 non d ame     -12.059  14.489  66.053  0.00  0.00     0.046 H 
BRANCH  83  88
ATOM     88  O6  non d ame     -12.146  16.056  63.707  0.00  0.00    -0.369 OA
ATOM     89  H45 non d ame     -12.976  16.300  63.292  0.00  0.00     0.212 HD
ENDBRANCH  83  88
ENDBRANCH  72  75
ENDBRANCH  47  72
ENDBRANCH  45  47
ENDBRANCH   1  43
BRANCH   1  90
ATOM     90  C16 non d ame     -11.689  14.939  71.326  0.00  0.00    -0.035 C 
ATOM     91  H21 non d ame     -10.801  14.541  71.819  0.00  0.00     0.037 H 
ATOM     92  H22 non d ame     -11.788  16.013  71.167  0.00  0.00     0.037 H 
BRANCH  90  93
ATOM     93  C17 non d ame     -12.909  14.510  72.202  0.00  0.00    -0.059 C 
ATOM     94  H23 non d ame     -12.923  13.420  72.238  0.00  0.00     0.038 H 
BRANCH  93  95
ATOM     95  C18 non d ame     -12.794  15.033  73.670  0.00  0.00    -0.073 C 
ATOM     96  H24 non d ame     -13.762  15.414  73.995  0.00  0.00     0.028 H 
ATOM     97  H25 non d ame     -12.486  14.217  74.323  0.00  0.00     0.028 H 
ATOM     98  H26 non d ame     -12.055  15.833  73.713  0.00  0.00     0.028 H 
ENDBRANCH  93  95
BRANCH  93  99
ATOM     99  C19 non d ame     -14.225  14.960  71.564  0.00  0.00    -0.073 C 
ATOM    100  H27 non d ame     -14.387  14.411  70.636  0.00  0.00     0.028 H 
ATOM    101  H28 non d ame     -15.048  14.763  72.251  0.00  0.00     0.028 H 
ATOM    102  H29 non d ame     -14.179  16.028  71.351  0.00  0.00     0.028 H 
ENDBRANCH  93  99
ENDBRANCH  90  93
ENDBRANCH   1  90
TORSDOF 26
ENDMDL
MODEL 2
REMARK VINA RESULT:      -7.6      2.931      5.836
REMARK  26 active torsions:
REMARK  status: ('A' for Active; 'I' for Inactive)
REMARK    1  A    between atoms: C2_2  and  C3_3 
REMARK    2  A    between atoms: C4_6  and  C5_7 
REMARK       I    between atoms: C5_7  and  N2_9 
REMARK    3  A    between atoms: N2_9  and  C6_10 
REMARK    4  A    between atoms: C6_10  and  C7_11 
REMARK    5  A    between atoms: C6_10  and  C8_13 
REMARK       I    between atoms: C7_11  and  N3_14 
REMARK    6  A    between atoms: N3_14  and  C9_15 
REMARK    7  A    between atoms: C9_15  and  C10_16 
REMARK    8  A    between atoms: C9_15  and  C11_18 
REMARK       I    between atoms: C10_16  and  N4_21 
REMARK    9  A    between atoms: C11_18  and  C12_19 
REMARK   10  A    between atoms: C11_18  and  C13_20 
REMARK   11  A    between atoms: N4_21  and  C14_22 
REMARK   12  A    between atoms: C14_22  and  C15_23 
REMARK   13  A    between atoms: C14_22  and  C16_25 
REMARK       I    between atoms: C15_23  and  N6_40 
REMARK   14  A    between atoms: C16_25  and  C17_26 
REMARK   15  A    between atoms: C17_26  and  C18_27 
REMARK   16  A    between atoms: C17_26  and  C19_28 
REMARK   17  A    between atoms: C20_29  and  C21_30 
REMARK   18  A    between atoms: C20_29  and  C24_33 
REMARK   19  A    between atoms: C20_29  and  N6_40 
REMARK   20  A    between atoms: C21_30  and  C22_31 
REMARK   21  A    between atoms: C22_31  and  C23_32 
REMARK   22  A    between atoms: C23_32  and  O8_43 
REMARK   23  A    between atoms: C24_33  and  C25_34 
REMARK   24  A    between atoms: C28_38  and  O6_39 
REMARK   25  A    between atoms: C29_42  and  O8_43 
REMARK   26  A    between atoms: C29_42  and  C35_49 
ROOT
ATOM      1  C14 non d ame     -11.905  14.489  69.957  0.00  0.00     0.089 C 
ATOM      2  H20 non d ame     -12.872  14.431  69.457  0.00  0.00     0.087 H 
ENDROOT
BRANCH   1   3
ATOM      3  N4  non d ame     -11.504  13.131  70.293  0.00  0.00    -0.346 N 
ATOM      4  C10 non d ame     -11.684  12.015  69.296  0.00  0.00     0.241 C 
ATOM      5  O4  non d ame     -12.156  12.233  68.229  0.00  0.00    -0.271 OA
ATOM      6  H19 non d ame     -11.106  12.966  71.207  0.00  0.00     0.163 HD
BRANCH   4   7
ATOM      7  C9  non d ame     -11.258  10.616  69.658  0.00  0.00     0.092 C 
ATOM      8  H11 non d ame     -11.627   9.922  68.903  0.00  0.00     0.088 H 
BRANCH   7   9
ATOM      9  N3  non d ame      -9.794  10.532  69.646  0.00  0.00    -0.346 N 
ATOM     10  C7  non d ame      -9.125   9.769  68.621  0.00  0.00     0.240 C 
ATOM     11  O3  non d ame      -9.748   9.216  67.800  0.00  0.00    -0.271 OA
ATOM     12  H10 non d ame      -9.243  11.002  70.350  0.00  0.00     0.163 HD
BRANCH  10  13
ATOM     13  C6  non d ame      -7.567   9.681  68.616  0.00  0.00     0.086 C 
ATOM     14  H6  non d ame      -7.174   9.223  67.708  0.00  0.00     0.086 H 
BRANCH  13  15
ATOM     15  N2  non d ame      -7.018  11.026  68.674  0.00  0.00    -0.343 N 
ATOM     16  C5  non d ame      -6.723  11.738  67.429  0.00  0.00     0.273 C 
ATOM     17  O2  non d ame      -6.927  11.220  66.386  0.00  0.00    -0.266 OA
ATOM     18  H5  non d ame      -6.844  11.460  69.569  0.00  0.00     0.163 HD
BRANCH  16  19
ATOM     19  C4  non d ame      -6.144  13.161  67.475  0.00  0.00     0.154 A 
ATOM     20  C1  non d ame      -6.873  14.389  67.569  0.00  0.00    -0.017 A 
ATOM     21  C2  non d ame      -5.885  15.399  67.577  0.00  0.00     0.077 A 
ATOM     22  H1  non d ame      -7.953  14.526  67.623  0.00  0.00     0.091 H 
ATOM     23  O1  non d ame      -4.728  14.810  67.498  0.00  0.00    -0.218 OA
ATOM     24  N1  non d ame      -4.853  13.504  67.438  0.00  0.00    -0.123 NA
BRANCH  21  25
ATOM     25  C3  non d ame      -6.131  16.899  67.663  0.00  0.00    -0.029 C 
ATOM     26  H2  non d ame      -7.040  17.087  68.235  0.00  0.00     0.036 H 
ATOM     27  H3  non d ame      -5.285  17.378  68.158  0.00  0.00     0.036 H 
ATOM     28  H4  non d ame      -6.243  17.308  66.659  0.00  0.00     0.036 H 
ENDBRANCH  21  25
ENDBRANCH  16  19
ENDBRANCH  13  15
BRANCH  13  29
ATOM     29  C8  non d ame      -7.102   8.882  69.806  0.00  0.00    -0.049 C 
ATOM     30  H7  non d ame      -7.723   9.120  70.669  0.00  0.00     0.030 H 
ATOM     31  H8  non d ame      -7.182   7.818  69.583  0.00  0.00     0.030 H 
ATOM     32  H9  non d ame      -6.064   9.130  70.027  0.00  0.00     0.030 H 
ENDBRANCH  13  29
ENDBRANCH  10  13
ENDBRANCH   7   9
BRANCH   7  33
ATOM     33  C11 non d ame     -11.783  10.267  71.082  0.00  0.00    -0.033 C 
ATOM     34  H12 non d ame     -11.607  11.133  71.719  0.00  0.00     0.042 H 
BRANCH  33  35
ATOM     35  C12 non d ame     -13.320   9.998  71.070  0.00  0.00    -0.071 C 
ATOM     36  H13 non d ame     -13.839  10.874  70.680  0.00  0.00     0.028 H 
ATOM     37  H14 non d ame     -13.533   9.138  70.436  0.00  0.00     0.028 H 
ATOM     38  H15 non d ame     -13.661   9.796  72.085  0.00  0.00     0.028 H 
ENDBRANCH  33  35
BRANCH  33  39
ATOM     39  C13 non d ame     -11.001   9.056  71.685  0.00  0.00    -0.071 C 
ATOM     40  H16 non d ame     -10.013   9.385  72.005  0.00  0.00     0.028 H 
ATOM     41  H17 non d ame     -11.547   8.661  72.542  0.00  0.00     0.028 H 
ATOM     42  H18 non d ame     -10.898   8.278  70.929  0.00  0.00     0.028 H 
ENDBRANCH  33  39
ENDBRANCH   7  33
ENDBRANCH   4   7
ENDBRANCH   1   3
BRANCH   1  43
ATOM     43  C15 non d ame     -10.810  15.118  69.048  0.00  0.00     0.240 C 
ATOM     44  O5  non d ame      -9.676  15.119  69.403  0.00  0.00    -0.271 OA
ATOM     45  N6  non d ame     -11.175  15.712  67.730  0.00  0.00    -0.355 N 
ATOM     46  H46 non d ame     -12.135  15.713  67.416  0.00  0.00     0.162 HD
BRANCH  45  47
ATOM     47  C20 non d ame     -10.123  16.305  66.877  0.00  0.00     0.013 C 
ATOM     48  H30 non d ame      -9.164  16.156  67.374  0.00  0.00     0.072 H 
BRANCH  47  49
ATOM     49  C21 non d ame     -10.391  17.783  66.707  0.00  0.00    -0.038 C 
ATOM     50  H31 non d ame      -9.631  18.143  66.013  0.00  0.00     0.036 H 
ATOM     51  H32 non d ame     -11.447  17.862  66.447  0.00  0.00     0.036 H 
BRANCH  49  52
ATOM     52  C22 non d ame     -10.203  18.581  68.015  0.00  0.00     0.018 C 
ATOM     53  H33 non d ame     -10.938  19.386  67.979  0.00  0.00     0.048 H 
ATOM     54  H34 non d ame     -10.240  17.845  68.818  0.00  0.00     0.048 H 
BRANCH  52  55
ATOM     55  C23 non d ame      -8.816  19.273  68.132  0.00  0.00     0.259 C 
ATOM     56  O7  non d ame      -8.276  19.366  69.186  0.00  0.00    -0.265 OA
BRANCH  55  57
ATOM     57  O8  non d ame      -8.204  19.808  66.965  0.00  0.00    -0.317 OA
BRANCH  57  58
ATOM     58  C29 non d ame      -7.165  20.754  67.234  0.00  0.00     0.052 C 
ATOM     59  H47 non d ame      -7.632  21.735  67.152  0.00  0.00     0.082 H 
ATOM     60  H48 non d ame      -6.717  20.440  68.176  0.00  0.00     0.082 H 
BRANCH  58  61
ATOM     61  C35 non d ame      -6.097  20.623  66.115  0.00  0.00    -0.034 A 
ATOM     62  C30 non d ame      -4.750  20.801  66.414  0.00  0.00    -0.075 A 
ATOM     63  C31 non d ame      -3.791  20.684  65.409  0.00  0.00    -0.082 A 
ATOM     64  H49 non d ame      -4.446  21.031  67.435  0.00  0.00     0.084 H 
ATOM     65  C32 non d ame      -4.183  20.391  64.100  0.00  0.00    -0.083 A 
ATOM     66  H50 non d ame      -2.736  20.822  65.647  0.00  0.00     0.083 H 
ATOM     67  C33 non d ame      -5.529  20.218  63.806  0.00  0.00    -0.082 A 
ATOM     68  H51 non d ame      -3.439  20.297  63.309  0.00  0.00     0.083 H 
ATOM     69  C34 non d ame      -6.491  20.331  64.808  0.00  0.00    -0.075 A 
ATOM     70  H52 non d ame      -5.832  19.991  62.784  0.00  0.00     0.083 H 
ATOM     71  H53 non d ame      -7.546  20.193  64.569  0.00  0.00     0.084 H 
ENDBRANCH  58  61
ENDBRANCH  57  58
ENDBRANCH  55  57
ENDBRANCH  52  55
ENDBRANCH  49  52
ENDBRANCH  47  49
BRANCH  47  72
ATOM     72  C24 non d ame     -10.123  15.625  65.509  0.00  0.00    -0.039 C 
ATOM     73  H35 non d ame     -10.263  16.429  64.786  0.00  0.00     0.036 H 
ATOM     74  H36 non d ame      -9.214  15.023  65.484  0.00  0.00     0.036 H 
BRANCH  72  75
ATOM     75  C25 non d ame     -11.360  14.621  65.346  0.00  0.00    -0.001 C 
ATOM     76  C26 non d ame     -10.811  13.099  65.054  0.00  0.00    -0.035 C 
ATOM     77  C27 non d ame     -11.440  12.612  63.957  0.00  0.00     0.085 C 
ATOM     78  H38 non d ame      -9.764  13.130  64.755  0.00  0.00     0.036 H 
ATOM     79  H39 non d ame     -11.131  12.427  65.850  0.00  0.00     0.036 H 
ATOM     80  N5  non d ame     -12.123  13.778  63.285  0.00  0.00    -0.049 N 
ATOM     81  H40 non d ame     -10.646  12.242  63.307  0.00  0.00     0.075 H 
ATOM     82  H41 non d ame     -12.198  11.927  64.336  0.00  0.00     0.075 H 
ATOM     83  C28 non d ame     -12.124  14.976  64.368  0.00  0.00     0.193 C 
ATOM     84  H42 non d ame     -11.534  14.047  62.510  0.00  0.00     0.280 HD
ATOM     85  H43 non d ame     -13.078  13.494  63.119  0.00  0.00     0.280 HD
ATOM     86  H44 non d ame     -13.035  15.231  64.910  0.00  0.00     0.129 H 
ATOM     87  H37 non d ame     -12.095  14.739  66.143  0.00  0.00     0.046 H 
BRANCH  83  88
ATOM     88  O6  non d ame     -11.689  16.192  63.758  0.00  0.00    -0.369 OA
ATOM     89  H45 non d ame     -10.835  16.442  64.117  0.00  0.00     0.212 HD
ENDBRANCH  83  88
ENDBRANCH  72  75
ENDBRANCH  47  72
ENDBRANCH  45  47
ENDBRANCH   1  43
BRANCH   1  90
ATOM     90  C16 non d ame     -12.034  15.299  71.237  0.00  0.00    -0.035 C 
ATOM     91  H21 non d ame     -11.024  15.363  71.642  0.00  0.00     0.037 H 
ATOM     92  H22 non d ame     -12.565  16.208  70.951  0.00  0.00     0.037 H 
BRANCH  90  93
ATOM     93  C17 non d ame     -12.905  14.606  72.332  0.00  0.00    -0.059 C 
ATOM     94  H23 non d ame     -12.635  13.550  72.350  0.00  0.00     0.038 H 
BRANCH  93  95
ATOM     95  C18 non d ame     -12.638  15.191  73.756  0.00  0.00    -0.073 C 
ATOM     96  H24 non d ame     -13.116  14.559  74.504  0.00  0.00     0.028 H 
ATOM     97  H25 non d ame     -11.564  15.224  73.939  0.00  0.00     0.028 H 
ATOM     98  H26 non d ame     -13.048  16.200  73.816  0.00  0.00     0.028 H 
ENDBRANCH  93  95
BRANCH  93  99
ATOM     99  C19 non d ame     -14.393  14.687  71.980  0.00  0.00    -0.073 C 
ATOM    100  H27 non d ame     -14.711  15.730  71.986  0.00  0.00     0.028 H 
ATOM    101  H28 non d ame     -14.555  14.264  70.988  0.00  0.00     0.028 H 
ATOM    102  H29 non d ame     -14.971  14.126  72.713  0.00  0.00     0.028 H 
ENDBRANCH  93  99
ENDBRANCH  90  93
ENDBRANCH   1  90
TORSDOF 26
ENDMDL
MODEL 3
REMARK VINA RESULT:      -7.4      3.052      7.786
REMARK  26 active torsions:
REMARK  status: ('A' for Active; 'I' for Inactive)
REMARK    1  A    between atoms: C2_2  and  C3_3 
REMARK    2  A    between atoms: C4_6  and  C5_7 
REMARK       I    between atoms: C5_7  and  N2_9 
REMARK    3  A    between atoms: N2_9  and  C6_10 
REMARK    4  A    between atoms: C6_10  and  C7_11 
REMARK    5  A    between atoms: C6_10  and  C8_13 
REMARK       I    between atoms: C7_11  and  N3_14 
REMARK    6  A    between atoms: N3_14  and  C9_15 
REMARK    7  A    between atoms: C9_15  and  C10_16 
REMARK    8  A    between atoms: C9_15  and  C11_18 
REMARK       I    between atoms: C10_16  and  N4_21 
REMARK    9  A    between atoms: C11_18  and  C12_19 
REMARK   10  A    between atoms: C11_18  and  C13_20 
REMARK   11  A    between atoms: N4_21  and  C14_22 
REMARK   12  A    between atoms: C14_22  and  C15_23 
REMARK   13  A    between atoms: C14_22  and  C16_25 
REMARK       I    between atoms: C15_23  and  N6_40 
REMARK   14  A    between atoms: C16_25  and  C17_26 
REMARK   15  A    between atoms: C17_26  and  C18_27 
REMARK   16  A    between atoms: C17_26  and  C19_28 
REMARK   17  A    between atoms: C20_29  and  C21_30 
REMARK   18  A    between atoms: C20_29  and  C24_33 
REMARK   19  A    between atoms: C20_29  and  N6_40 
REMARK   20  A    between atoms: C21_30  and  C22_31 
REMARK   21  A    between atoms: C22_31  and  C23_32 
REMARK   22  A    between atoms: C23_32  and  O8_43 
REMARK   23  A    between atoms: C24_33  and  C25_34 
REMARK   24  A    between atoms: C28_38  and  O6_39 
REMARK   25  A    between atoms: C29_42  and  O8_43 
REMARK   26  A    between atoms: C29_42  and  C35_49 
ROOT
ATOM      1  C14 non d ame     -11.181   9.281  70.379  0.00  0.00     0.089 C 
ATOM      2  H20 non d ame     -11.462   8.519  69.652  0.00  0.00     0.087 H 
ENDROOT
BRANCH   1   3
ATOM      3  N4  non d ame      -9.785   9.618  70.143  0.00  0.00    -0.346 N 
ATOM      4  C10 non d ame      -8.892   8.673  69.379  0.00  0.00     0.241 C 
ATOM      5  O4  non d ame      -9.319   7.645  68.967  0.00  0.00    -0.271 OA
ATOM      6  H19 non d ame      -9.440  10.497  70.504  0.00  0.00     0.163 HD
BRANCH   4   7
ATOM      7  C9  non d ame      -7.451   9.041  69.139  0.00  0.00     0.092 C 
ATOM      8  H11 non d ame      -6.875   8.133  68.958  0.00  0.00     0.088 H 
BRANCH   7   9
ATOM      9  N3  non d ame      -7.351   9.866  67.931  0.00  0.00    -0.346 N 
ATOM     10  C7  non d ame      -7.170   9.241  66.644  0.00  0.00     0.240 C 
ATOM     11  O3  non d ame      -7.101   8.075  66.563  0.00  0.00    -0.271 OA
ATOM     12  H10 non d ame      -7.407  10.873  67.987  0.00  0.00     0.163 HD
BRANCH  10  13
ATOM     13  C6  non d ame      -7.062  10.125  65.363  0.00  0.00     0.086 C 
ATOM     14  H6  non d ame      -7.214   9.557  64.445  0.00  0.00     0.086 H 
BRANCH  13  15
ATOM     15  N2  non d ame      -8.102  11.139  65.401  0.00  0.00    -0.343 N 
ATOM     16  C5  non d ame      -9.444  10.815  64.913  0.00  0.00     0.273 C 
ATOM     17  O2  non d ame      -9.676   9.736  64.489  0.00  0.00    -0.266 OA
ATOM     18  H5  non d ame      -7.894  12.059  65.762  0.00  0.00     0.163 HD
BRANCH  16  19
ATOM     19  C4  non d ame     -10.554  11.878  64.949  0.00  0.00     0.154 A 
ATOM     20  C1  non d ame     -10.498  13.204  64.415  0.00  0.00    -0.017 A 
ATOM     21  C2  non d ame     -11.761  13.766  64.705  0.00  0.00     0.077 A 
ATOM     22  H1  non d ame      -9.668  13.686  63.897  0.00  0.00     0.091 H 
ATOM     23  O1  non d ame     -12.454  12.860  65.330  0.00  0.00    -0.218 OA
ATOM     24  N1  non d ame     -11.771  11.749  65.484  0.00  0.00    -0.123 NA
BRANCH  21  25
ATOM     25  C3  non d ame     -12.226  15.172  64.349  0.00  0.00    -0.029 C 
ATOM     26  H2  non d ame     -12.496  15.210  63.294  0.00  0.00     0.036 H 
ATOM     27  H3  non d ame     -13.093  15.433  64.956  0.00  0.00     0.036 H 
ATOM     28  H4  non d ame     -11.420  15.882  64.544  0.00  0.00     0.036 H 
ENDBRANCH  21  25
ENDBRANCH  16  19
ENDBRANCH  13  15
BRANCH  13  29
ATOM     29  C8  non d ame      -5.704  10.778  65.313  0.00  0.00    -0.049 C 
ATOM     30  H7  non d ame      -5.269  10.636  64.324  0.00  0.00     0.030 H 
ATOM     31  H8  non d ame      -5.806  11.844  65.517  0.00  0.00     0.030 H 
ATOM     32  H9  non d ame      -5.056  10.325  66.063  0.00  0.00     0.030 H 
ENDBRANCH  13  29
ENDBRANCH  10  13
ENDBRANCH   7   9
BRANCH   7  33
ATOM     33  C11 non d ame      -6.910   9.844  70.359  0.00  0.00    -0.033 C 
ATOM     34  H12 non d ame      -7.756  10.056  71.013  0.00  0.00     0.042 H 
BRANCH  33  35
ATOM     35  C12 non d ame      -5.881   9.006  71.179  0.00  0.00    -0.071 C 
ATOM     36  H13 non d ame      -5.965   7.955  70.903  0.00  0.00     0.028 H 
ATOM     37  H14 non d ame      -4.872   9.358  70.964  0.00  0.00     0.028 H 
ATOM     38  H15 non d ame      -6.086   9.120  72.243  0.00  0.00     0.028 H 
ENDBRANCH  33  35
BRANCH  33  39
ATOM     39  C13 non d ame      -6.297  11.207  69.903  0.00  0.00    -0.071 C 
ATOM     40  H16 non d ame      -7.078  11.966  69.878  0.00  0.00     0.028 H 
ATOM     41  H17 non d ame      -5.519  11.508  70.606  0.00  0.00     0.028 H 
ATOM     42  H18 non d ame      -5.865  11.096  68.909  0.00  0.00     0.028 H 
ENDBRANCH  33  39
ENDBRANCH   7  33
ENDBRANCH   4   7
ENDBRANCH   1   3
BRANCH   1  43
ATOM     43  C15 non d ame     -12.034  10.574  70.234  0.00  0.00     0.240 C 
ATOM     44  O5  non d ame     -13.220  10.499  70.204  0.00  0.00    -0.271 OA
ATOM     45  N6  non d ame     -11.372  11.907  70.141  0.00  0.00    -0.355 N 
ATOM     46  H46 non d ame     -10.366  11.983  70.171  0.00  0.00     0.162 HD
BRANCH  45  47
ATOM     47  C20 non d ame     -12.197  13.127  70.005  0.00  0.00     0.013 C 
ATOM     48  H30 non d ame     -12.963  12.932  69.254  0.00  0.00     0.072 H 
BRANCH  47  49
ATOM     49  C21 non d ame     -11.320  14.276  69.564  0.00  0.00    -0.038 C 
ATOM     50  H31 non d ame     -11.952  15.164  69.610  0.00  0.00     0.036 H 
ATOM     51  H32 non d ame     -10.422  14.214  70.178  0.00  0.00     0.036 H 
BRANCH  49  52
ATOM     52  C22 non d ame     -10.857  14.147  68.097  0.00  0.00     0.018 C 
ATOM     53  H33 non d ame     -11.378  13.277  67.697  0.00  0.00     0.048 H 
ATOM     54  H34 non d ame     -11.014  15.129  67.650  0.00  0.00     0.048 H 
BRANCH  52  55
ATOM     55  C23 non d ame      -9.340  13.845  67.944  0.00  0.00     0.259 C 
ATOM     56  O7  non d ame      -8.931  12.735  68.063  0.00  0.00    -0.265 OA
BRANCH  55  57
ATOM     57  O8  non d ame      -8.441  14.913  67.671  0.00  0.00    -0.317 OA
BRANCH  57  58
ATOM     58  C29 non d ame      -8.768  15.665  66.499  0.00  0.00     0.052 C 
ATOM     59  H47 non d ame      -7.836  15.766  65.944  0.00  0.00     0.082 H 
ATOM     60  H48 non d ame      -9.618  15.153  66.048  0.00  0.00     0.082 H 
BRANCH  58  61
ATOM     61  C35 non d ame      -9.228  17.077  66.949  0.00  0.00    -0.034 A 
ATOM     62  C30 non d ame     -10.150  17.786  66.186  0.00  0.00    -0.075 A 
ATOM     63  C31 non d ame     -10.563  19.054  66.590  0.00  0.00    -0.082 A 
ATOM     64  H49 non d ame     -10.550  17.347  65.272  0.00  0.00     0.084 H 
ATOM     65  C32 non d ame     -10.048  19.615  67.762  0.00  0.00    -0.083 A 
ATOM     66  H50 non d ame     -11.288  19.606  65.991  0.00  0.00     0.083 H 
ATOM     67  C33 non d ame      -9.126  18.906  68.519  0.00  0.00    -0.082 A 
ATOM     68  H51 non d ame     -10.366  20.606  68.086  0.00  0.00     0.083 H 
ATOM     69  C34 non d ame      -8.712  17.637  68.120  0.00  0.00    -0.075 A 
ATOM     70  H52 non d ame      -8.724  19.347  69.431  0.00  0.00     0.083 H 
ATOM     71  H53 non d ame      -7.988  17.085  68.720  0.00  0.00     0.084 H 
ENDBRANCH  58  61
ENDBRANCH  57  58
ENDBRANCH  55  57
ENDBRANCH  52  55
ENDBRANCH  49  52
ENDBRANCH  47  49
BRANCH  47  72
ATOM     72  C24 non d ame     -12.844  13.465  71.347  0.00  0.00    -0.039 C 
ATOM     73  H35 non d ame     -13.886  13.157  71.253  0.00  0.00     0.036 H 
ATOM     74  H36 non d ame     -12.206  13.004  72.101  0.00  0.00     0.036 H 
BRANCH  72  75
ATOM     75  C25 non d ame     -12.842  15.042  71.625  0.00  0.00    -0.001 C 
ATOM     76  C26 non d ame     -11.824  15.389  72.870  0.00  0.00    -0.035 C 
ATOM     77  C27 non d ame     -12.487  16.147  73.777  0.00  0.00     0.085 C 
ATOM     78  H38 non d ame     -11.586  14.481  73.422  0.00  0.00     0.036 H 
ATOM     79  H39 non d ame     -11.024  16.045  72.527  0.00  0.00     0.036 H 
ATOM     80  N5  non d ame     -13.953  16.074  73.426  0.00  0.00    -0.049 N 
ATOM     81  H40 non d ame     -12.327  15.657  74.738  0.00  0.00     0.075 H 
ATOM     82  H41 non d ame     -12.134  17.165  73.619  0.00  0.00     0.075 H 
ATOM     83  C28 non d ame     -14.023  15.465  71.932  0.00  0.00     0.193 C 
ATOM     84  H42 non d ame     -14.368  15.409  74.063  0.00  0.00     0.280 HD
ATOM     85  H43 non d ame     -14.289  17.026  73.400  0.00  0.00     0.280 HD
ATOM     86  H44 non d ame     -14.229  16.112  71.079  0.00  0.00     0.129 H 
ATOM     87  H37 non d ame     -12.722  15.623  70.711  0.00  0.00     0.046 H 
BRANCH  83  88
ATOM     88  O6  non d ame     -15.000  14.425  71.869  0.00  0.00    -0.369 OA
ATOM     89  H45 non d ame     -15.859  14.806  71.672  0.00  0.00     0.212 HD
ENDBRANCH  83  88
ENDBRANCH  72  75
ENDBRANCH  47  72
ENDBRANCH  45  47
ENDBRANCH   1  43
BRANCH   1  90
ATOM     90  C16 non d ame     -11.326   8.728  71.787  0.00  0.00    -0.035 C 
ATOM     91  H21 non d ame     -10.311   8.502  72.115  0.00  0.00     0.037 H 
ATOM     92  H22 non d ame     -11.921   9.465  72.327  0.00  0.00     0.037 H 
BRANCH  90  93
ATOM     93  C17 non d ame     -12.121   7.385  71.854  0.00  0.00    -0.059 C 
ATOM     94  H23 non d ame     -11.957   6.952  72.841  0.00  0.00     0.038 H 
BRANCH  93  95
ATOM     95  C18 non d ame     -13.658   7.601  71.678  0.00  0.00    -0.073 C 
ATOM     96  H24 non d ame     -13.853   8.044  70.702  0.00  0.00     0.028 H 
ATOM     97  H25 non d ame     -14.170   6.641  71.751  0.00  0.00     0.028 H 
ATOM     98  H26 non d ame     -14.023   8.267  72.460  0.00  0.00     0.028 H 
ENDBRANCH  93  95
BRANCH  93  99
ATOM     99  C19 non d ame     -11.590   6.384  70.825  0.00  0.00    -0.073 C 
ATOM    100  H27 non d ame     -10.760   6.831  70.277  0.00  0.00     0.028 H 
ATOM    101  H28 non d ame     -11.245   5.485  71.337  0.00  0.00     0.028 H 
ATOM    102  H29 non d ame     -12.386   6.122  70.129  0.00  0.00     0.028 H 
ENDBRANCH  93  99
ENDBRANCH  90  93
ENDBRANCH   1  90
TORSDOF 26
ENDMDL
MODEL 4
REMARK VINA RESULT:      -7.4      3.912     10.184
REMARK  26 active torsions:
REMARK  status: ('A' for Active; 'I' for Inactive)
REMARK    1  A    between atoms: C2_2  and  C3_3 
REMARK    2  A    between atoms: C4_6  and  C5_7 
REMARK       I    between atoms: C5_7  and  N2_9 
REMARK    3  A    between atoms: N2_9  and  C6_10 
REMARK    4  A    between atoms: C6_10  and  C7_11 
REMARK    5  A    between atoms: C6_10  and  C8_13 
REMARK       I    between atoms: C7_11  and  N3_14 
REMARK    6  A    between atoms: N3_14  and  C9_15 
REMARK    7  A    between atoms: C9_15  and  C10_16 
REMARK    8  A    between atoms: C9_15  and  C11_18 
REMARK       I    between atoms: C10_16  and  N4_21 
REMARK    9  A    between atoms: C11_18  and  C12_19 
REMARK   10  A    between atoms: C11_18  and  C13_20 
REMARK   11  A    between atoms: N4_21  and  C14_22 
REMARK   12  A    between atoms: C14_22  and  C15_23 
REMARK   13  A    between atoms: C14_22  and  C16_25 
REMARK       I    between atoms: C15_23  and  N6_40 
REMARK   14  A    between atoms: C16_25  and  C17_26 
REMARK   15  A    between atoms: C17_26  and  C18_27 
REMARK   16  A    between atoms: C17_26  and  C19_28 
REMARK   17  A    between atoms: C20_29  and  C21_30 
REMARK   18  A    between atoms: C20_29  and  C24_33 
REMARK   19  A    between atoms: C20_29  and  N6_40 
REMARK   20  A    between atoms: C21_30  and  C22_31 
REMARK   21  A    between atoms: C22_31  and  C23_32 
REMARK   22  A    between atoms: C23_32  and  O8_43 
REMARK   23  A    between atoms: C24_33  and  C25_34 
REMARK   24  A    between atoms: C28_38  and  O6_39 
REMARK   25  A    between atoms: C29_42  and  O8_43 
REMARK   26  A    between atoms: C29_42  and  C35_49 
ROOT
ATOM      1  C14 non d ame     -10.267  10.864  64.444  0.00  0.00     0.089 C 
ATOM      2  H20 non d ame     -11.298  10.527  64.558  0.00  0.00     0.087 H 
ENDROOT
BRANCH   1   3
ATOM      3  N4  non d ame      -9.708  11.023  65.778  0.00  0.00    -0.346 N 
ATOM      4  C10 non d ame     -10.617  11.161  66.974  0.00  0.00     0.241 C 
ATOM      5  O4  non d ame     -11.796  11.144  66.836  0.00  0.00    -0.271 OA
ATOM      6  H19 non d ame      -8.702  11.038  65.874  0.00  0.00     0.163 HD
BRANCH   4   7
ATOM      7  C9  non d ame     -10.021  11.320  68.348  0.00  0.00     0.092 C 
ATOM      8  H11 non d ame      -8.966  11.047  68.315  0.00  0.00     0.088 H 
BRANCH   7   9
ATOM      9  N3  non d ame     -10.093  12.727  68.753  0.00  0.00    -0.346 N 
ATOM     10  C7  non d ame      -9.174  13.686  68.190  0.00  0.00     0.240 C 
ATOM     11  O3  non d ame      -8.370  13.342  67.412  0.00  0.00    -0.271 OA
ATOM     12  H10 non d ame     -10.780  13.038  69.424  0.00  0.00     0.163 HD
BRANCH  10  13
ATOM     13  C6  non d ame      -9.253  15.182  68.627  0.00  0.00     0.086 C 
ATOM     14  H6  non d ame      -9.816  15.797  67.925  0.00  0.00     0.086 H 
BRANCH  13  15
ATOM     15  N2  non d ame      -9.947  15.265  69.901  0.00  0.00    -0.343 N 
ATOM     16  C5  non d ame     -11.395  15.486  69.922  0.00  0.00     0.273 C 
ATOM     17  O2  non d ame     -11.991  15.600  68.907  0.00  0.00    -0.266 OA
ATOM     18  H5  non d ame      -9.429  15.169  70.763  0.00  0.00     0.163 HD
BRANCH  16  19
ATOM     19  C4  non d ame     -12.141  15.574  71.262  0.00  0.00     0.154 A 
ATOM     20  C1  non d ame     -11.565  15.664  72.568  0.00  0.00    -0.017 A 
ATOM     21  C2  non d ame     -12.668  15.720  73.449  0.00  0.00     0.077 A 
ATOM     22  H1  non d ame     -10.508  15.684  72.837  0.00  0.00     0.091 H 
ATOM     23  O1  non d ame     -13.746  15.671  72.723  0.00  0.00    -0.218 OA
ATOM     24  N1  non d ame     -13.465  15.585  71.444  0.00  0.00    -0.123 NA
BRANCH  21  25
ATOM     25  C3  non d ame     -12.605  15.822  74.967  0.00  0.00    -0.029 C 
ATOM     26  H2  non d ame     -12.528  16.870  75.259  0.00  0.00     0.036 H 
ATOM     27  H3  non d ame     -13.509  15.391  75.398  0.00  0.00     0.036 H 
ATOM     28  H4  non d ame     -11.734  15.278  75.333  0.00  0.00     0.036 H 
ENDBRANCH  21  25
ENDBRANCH  16  19
ENDBRANCH  13  15
BRANCH  13  29
ATOM     29  C8  non d ame      -7.861  15.744  68.760  0.00  0.00    -0.049 C 
ATOM     30  H7  non d ame      -7.709  16.104  69.777  0.00  0.00     0.030 H 
ATOM     31  H8  non d ame      -7.132  14.965  68.538  0.00  0.00     0.030 H 
ATOM     32  H9  non d ame      -7.735  16.570  68.060  0.00  0.00     0.030 H 
ENDBRANCH  13  29
ENDBRANCH  10  13
ENDBRANCH   7   9
BRANCH   7  33
ATOM     33  C11 non d ame     -10.819  10.450  69.363  0.00  0.00    -0.033 C 
ATOM     34  H12 non d ame     -11.435   9.757  68.789  0.00  0.00     0.042 H 
BRANCH  33  35
ATOM     35  C12 non d ame      -9.864   9.598  70.256  0.00  0.00    -0.071 C 
ATOM     36  H13 non d ame     -10.452   9.035  70.982  0.00  0.00     0.028 H 
ATOM     37  H14 non d ame      -9.302   8.906  69.630  0.00  0.00     0.028 H 
ATOM     38  H15 non d ame      -9.174  10.258  70.780  0.00  0.00     0.028 H 
ENDBRANCH  33  35
BRANCH  33  39
ATOM     39  C13 non d ame     -11.769  11.335  70.232  0.00  0.00    -0.071 C 
ATOM     40  H16 non d ame     -11.262  11.615  71.155  0.00  0.00     0.028 H 
ATOM     41  H17 non d ame     -12.037  12.234  69.677  0.00  0.00     0.028 H 
ATOM     42  H18 non d ame     -12.672  10.772  70.470  0.00  0.00     0.028 H 
ENDBRANCH  33  39
ENDBRANCH   7  33
ENDBRANCH   4   7
ENDBRANCH   1   3
BRANCH   1  43
ATOM     43  C15 non d ame      -9.397   9.838  63.662  0.00  0.00     0.240 C 
ATOM     44  O5  non d ame      -9.163  10.017  62.511  0.00  0.00    -0.271 OA
ATOM     45  N6  non d ame      -8.849   8.635  64.352  0.00  0.00    -0.355 N 
ATOM     46  H46 non d ame      -9.037   8.474  65.331  0.00  0.00     0.162 HD
BRANCH  45  47
ATOM     47  C20 non d ame      -8.023   7.670  63.595  0.00  0.00     0.013 C 
ATOM     48  H30 non d ame      -8.627   7.282  62.775  0.00  0.00     0.072 H 
BRANCH  47  49
ATOM     49  C21 non d ame      -7.609   6.540  64.511  0.00  0.00    -0.038 C 
ATOM     50  H31 non d ame      -6.597   6.271  64.208  0.00  0.00     0.036 H 
ATOM     51  H32 non d ame      -7.798   6.898  65.523  0.00  0.00     0.036 H 
BRANCH  49  52
ATOM     52  C22 non d ame      -8.472   5.273  64.328  0.00  0.00     0.018 C 
ATOM     53  H33 non d ame      -9.136   5.487  63.490  0.00  0.00     0.048 H 
ATOM     54  H34 non d ame      -7.768   4.443  64.267  0.00  0.00     0.048 H 
BRANCH  52  55
ATOM     55  C23 non d ame      -9.395   4.963  65.538  0.00  0.00     0.259 C 
ATOM     56  O7  non d ame     -10.034   3.962  65.569  0.00  0.00    -0.265 OA
BRANCH  55  57
ATOM     57  O8  non d ame      -9.478   5.898  66.608  0.00  0.00    -0.317 OA
BRANCH  57  58
ATOM     58  C29 non d ame     -10.788   6.025  67.169  0.00  0.00     0.052 C 
ATOM     59  H47 non d ame     -11.075   7.065  67.013  0.00  0.00     0.082 H 
ATOM     60  H48 non d ame     -11.379   5.225  66.724  0.00  0.00     0.082 H 
BRANCH  58  61
ATOM     61  C35 non d ame     -10.683   5.768  68.695  0.00  0.00    -0.034 A 
ATOM     62  C30 non d ame     -11.507   6.459  69.577  0.00  0.00    -0.075 A 
ATOM     63  C31 non d ame     -11.412   6.228  70.949  0.00  0.00    -0.082 A 
ATOM     64  H49 non d ame     -12.228   7.181  69.194  0.00  0.00     0.084 H 
ATOM     65  C32 non d ame     -10.486   5.303  71.438  0.00  0.00    -0.083 A 
ATOM     66  H50 non d ame     -12.061   6.770  71.637  0.00  0.00     0.083 H 
ATOM     67  C33 non d ame      -9.663   4.618  70.555  0.00  0.00    -0.082 A 
ATOM     68  H51 non d ame     -10.406   5.116  72.509  0.00  0.00     0.083 H 
ATOM     69  C34 non d ame      -9.756   4.844  69.183  0.00  0.00    -0.075 A 
ATOM     70  H52 non d ame      -8.940   3.898  70.940  0.00  0.00     0.083 H 
ATOM     71  H53 non d ame      -9.107   4.301  68.495  0.00  0.00     0.084 H 
ENDBRANCH  58  61
ENDBRANCH  57  58
ENDBRANCH  55  57
ENDBRANCH  52  55
ENDBRANCH  49  52
ENDBRANCH  47  49
BRANCH  47  72
ATOM     72  C24 non d ame      -6.778   8.369  63.053  0.00  0.00    -0.039 C 
ATOM     73  H35 non d ame      -6.312   7.650  62.378  0.00  0.00     0.036 H 
ATOM     74  H36 non d ame      -7.127   9.328  62.670  0.00  0.00     0.036 H 
BRANCH  72  75
ATOM     75  C25 non d ame      -5.720   8.681  64.214  0.00  0.00    -0.001 C 
ATOM     76  C26 non d ame      -5.736  10.286  64.570  0.00  0.00    -0.035 C 
ATOM     77  C27 non d ame      -4.466  10.755  64.531  0.00  0.00     0.085 C 
ATOM     78  H38 non d ame      -6.236  10.840  63.776  0.00  0.00     0.036 H 
ATOM     79  H39 non d ame      -6.032  10.436  65.609  0.00  0.00     0.036 H 
ATOM     80  N5  non d ame      -3.624   9.694  63.864  0.00  0.00    -0.049 N 
ATOM     81  H40 non d ame      -4.500  11.637  63.891  0.00  0.00     0.075 H 
ATOM     82  H41 non d ame      -4.158  10.849  65.572  0.00  0.00     0.075 H 
ATOM     83  C28 non d ame      -4.523   8.353  63.857  0.00  0.00     0.193 C 
ATOM     84  H42 non d ame      -3.489   9.995  62.909  0.00  0.00     0.280 HD
ATOM     85  H43 non d ame      -2.826   9.543  64.463  0.00  0.00     0.280 HD
ATOM     86  H44 non d ame      -4.320   7.547  64.562  0.00  0.00     0.129 H 
ATOM     87  H37 non d ame      -5.808   7.987  65.050  0.00  0.00     0.046 H 
BRANCH  83  88
ATOM     88  O6  non d ame      -4.494   7.746  62.564  0.00  0.00    -0.369 OA
ATOM     89  H45 non d ame      -4.522   6.792  62.658  0.00  0.00     0.212 HD
ENDBRANCH  83  88
ENDBRANCH  72  75
ENDBRANCH  47  72
ENDBRANCH  45  47
ENDBRANCH   1  43
BRANCH   1  90
ATOM     90  C16 non d ame     -10.239  12.206  63.731  0.00  0.00    -0.035 C 
ATOM     91  H21 non d ame      -9.711  12.881  64.406  0.00  0.00     0.037 H 
ATOM     92  H22 non d ame      -9.832  11.998  62.741  0.00  0.00     0.037 H 
BRANCH  90  93
ATOM     93  C17 non d ame     -11.655  12.825  63.506  0.00  0.00    -0.059 C 
ATOM     94  H23 non d ame     -11.641  13.342  62.546  0.00  0.00     0.038 H 
BRANCH  93  95
ATOM     95  C18 non d ame     -12.772  11.735  63.443  0.00  0.00    -0.073 C 
ATOM     96  H24 non d ame     -13.677  12.116  63.915  0.00  0.00     0.028 H 
ATOM     97  H25 non d ame     -12.981  11.488  62.402  0.00  0.00     0.028 H 
ATOM     98  H26 non d ame     -12.436  10.841  63.969  0.00  0.00     0.028 H 
ENDBRANCH  93  95
BRANCH  93  99
ATOM     99  C19 non d ame     -11.972  13.869  64.579  0.00  0.00    -0.073 C 
ATOM    100  H27 non d ame     -12.202  14.823  64.103  0.00  0.00     0.028 H 
ATOM    101  H28 non d ame     -12.831  13.539  65.165  0.00  0.00     0.028 H 
ATOM    102  H29 non d ame     -11.110  13.989  65.236  0.00  0.00     0.028 H 
ENDBRANCH  93  99
ENDBRANCH  90  93
ENDBRANCH   1  90
TORSDOF 26
ENDMDL
MODEL 5
REMARK VINA RESULT:      -7.3      2.183      5.752
REMARK  26 active torsions:
REMARK  status: ('A' for Active; 'I' for Inactive)
REMARK    1  A    between atoms: C2_2  and  C3_3 
REMARK    2  A    between atoms: C4_6  and  C5_7 
REMARK       I    between atoms: C5_7  and  N2_9 
REMARK    3  A    between atoms: N2_9  and  C6_10 
REMARK    4  A    between atoms: C6_10  and  C7_11 
REMARK    5  A    between atoms: C6_10  and  C8_13 
REMARK       I    between atoms: C7_11  and  N3_14 
REMARK    6  A    between atoms: N3_14  and  C9_15 
REMARK    7  A    between atoms: C9_15  and  C10_16 
REMARK    8  A    between atoms: C9_15  and  C11_18 
REMARK       I    between atoms: C10_16  and  N4_21 
REMARK    9  A    between atoms: C11_18  and  C12_19 
REMARK   10  A    between atoms: C11_18  and  C13_20 
REMARK   11  A    between atoms: N4_21  and  C14_22 
REMARK   12  A    between atoms: C14_22  and  C15_23 
REMARK   13  A    between atoms: C14_22  and  C16_25 
REMARK       I    between atoms: C15_23  and  N6_40 
REMARK   14  A    between atoms: C16_25  and  C17_26 
REMARK   15  A    between atoms: C17_26  and  C18_27 
REMARK   16  A    between atoms: C17_26  and  C19_28 
REMARK   17  A    between atoms: C20_29  and  C21_30 
REMARK   18  A    between atoms: C20_29  and  C24_33 
REMARK   19  A    between atoms: C20_29  and  N6_40 
REMARK   20  A    between atoms: C21_30  and  C22_31 
REMARK   21  A    between atoms: C22_31  and  C23_32 
REMARK   22  A    between atoms: C23_32  and  O8_43 
REMARK   23  A    between atoms: C24_33  and  C25_34 
REMARK   24  A    between atoms: C28_38  and  O6_39 
REMARK   25  A    between atoms: C29_42  and  O8_43 
REMARK   26  A    between atoms: C29_42  and  C35_49 
ROOT
ATOM      1  C14 non d ame     -12.126  13.928  69.849  0.00  0.00     0.089 C 
ATOM      2  H20 non d ame     -13.137  13.583  69.631  0.00  0.00     0.087 H 
ENDROOT
BRANCH   1   3
ATOM      3  N4  non d ame     -11.267  12.755  69.910  0.00  0.00    -0.346 N 
ATOM      4  C10 non d ame     -11.488  11.598  68.968  0.00  0.00     0.241 C 
ATOM      5  O4  non d ame     -12.367  11.634  68.171  0.00  0.00    -0.271 OA
ATOM      6  H19 non d ame     -10.526  12.743  70.598  0.00  0.00     0.163 HD
BRANCH   4   7
ATOM      7  C9  non d ame     -10.586  10.394  69.041  0.00  0.00     0.092 C 
ATOM      8  H11 non d ame      -9.797  10.581  69.770  0.00  0.00     0.088 H 
BRANCH   7   9
ATOM      9  N3  non d ame     -11.351   9.238  69.518  0.00  0.00    -0.346 N 
ATOM     10  C7  non d ame     -11.877   9.227  70.861  0.00  0.00     0.240 C 
ATOM     11  O3  non d ame     -11.694  10.138  71.572  0.00  0.00    -0.271 OA
ATOM     12  H10 non d ame     -11.517   8.444  68.917  0.00  0.00     0.163 HD
BRANCH  10  13
ATOM     13  C6  non d ame     -12.688   7.992  71.364  0.00  0.00     0.086 C 
ATOM     14  H6  non d ame     -12.732   7.188  70.629  0.00  0.00     0.086 H 
BRANCH  13  15
ATOM     15  N2  non d ame     -12.033   7.445  72.540  0.00  0.00    -0.343 N 
ATOM     16  C5  non d ame     -11.295   6.184  72.434  0.00  0.00     0.273 C 
ATOM     17  O2  non d ame     -11.237   5.617  71.399  0.00  0.00    -0.266 OA
ATOM     18  H5  non d ame     -12.090   7.935  73.421  0.00  0.00     0.163 HD
BRANCH  16  19
ATOM     19  C4  non d ame     -10.596   5.595  73.669  0.00  0.00     0.154 A 
ATOM     20  C1  non d ame     -10.344   4.213  73.943  0.00  0.00    -0.017 A 
ATOM     21  C2  non d ame      -9.683   4.205  75.191  0.00  0.00     0.077 A 
ATOM     22  H1  non d ame     -10.600   3.349  73.330  0.00  0.00     0.091 H 
ATOM     23  O1  non d ame      -9.572   5.442  75.580  0.00  0.00    -0.218 OA
ATOM     24  N1  non d ame     -10.099   6.271  74.708  0.00  0.00    -0.123 NA
BRANCH  21  25
ATOM     25  C3  non d ame      -9.190   2.975  75.942  0.00  0.00    -0.029 C 
ATOM     26  H2  non d ame     -10.044   2.379  76.264  0.00  0.00     0.036 H 
ATOM     27  H3  non d ame      -8.556   2.379  75.286  0.00  0.00     0.036 H 
ATOM     28  H4  non d ame      -8.615   3.288  76.815  0.00  0.00     0.036 H 
ENDBRANCH  21  25
ENDBRANCH  16  19
ENDBRANCH  13  15
BRANCH  13  29
ATOM     29  C8  non d ame     -14.094   8.416  71.706  0.00  0.00    -0.049 C 
ATOM     30  H7  non d ame     -14.470   9.086  70.932  0.00  0.00     0.030 H 
ATOM     31  H8  non d ame     -14.734   7.536  71.767  0.00  0.00     0.030 H 
ATOM     32  H9  non d ame     -14.094   8.933  72.665  0.00  0.00     0.030 H 
ENDBRANCH  13  29
ENDBRANCH  10  13
ENDBRANCH   7   9
BRANCH   7  33
ATOM     33  C11 non d ame     -10.015  10.087  67.626  0.00  0.00    -0.033 C 
ATOM     34  H12 non d ame     -10.584  10.677  66.907  0.00  0.00     0.042 H 
BRANCH  33  35
ATOM     35  C12 non d ame      -8.521  10.520  67.510  0.00  0.00    -0.071 C 
ATOM     36  H13 non d ame      -8.234  11.081  68.400  0.00  0.00     0.028 H 
ATOM     37  H14 non d ame      -7.892   9.634  67.421  0.00  0.00     0.028 H 
ATOM     38  H15 non d ame      -8.392  11.147  66.628  0.00  0.00     0.028 H 
ENDBRANCH  33  35
BRANCH  33  39
ATOM     39  C13 non d ame     -10.198   8.578  67.265  0.00  0.00    -0.071 C 
ATOM     40  H16 non d ame      -9.961   8.425  66.212  0.00  0.00     0.028 H 
ATOM     41  H17 non d ame      -9.529   7.974  67.879  0.00  0.00     0.028 H 
ATOM     42  H18 non d ame     -11.230   8.282  67.452  0.00  0.00     0.028 H 
ENDBRANCH  33  39
ENDBRANCH   7  33
ENDBRANCH   4   7
ENDBRANCH   1   3
BRANCH   1  43
ATOM     43  C15 non d ame     -11.580  14.884  68.751  0.00  0.00     0.240 C 
ATOM     44  O5  non d ame     -11.712  16.059  68.871  0.00  0.00    -0.271 OA
ATOM     45  N6  non d ame     -10.885  14.336  67.551  0.00  0.00    -0.355 N 
ATOM     46  H46 non d ame     -10.763  13.340  67.440  0.00  0.00     0.162 HD
BRANCH  45  47
ATOM     47  C20 non d ame     -10.371  15.258  66.516  0.00  0.00     0.013 C 
ATOM     48  H30 non d ame     -10.979  16.163  66.542  0.00  0.00     0.072 H 
BRANCH  47  49
ATOM     49  C21 non d ame     -10.483  14.600  65.160  0.00  0.00    -0.038 C 
ATOM     50  H31 non d ame     -11.142  15.241  64.574  0.00  0.00     0.036 H 
ATOM     51  H32 non d ame      -9.458  14.426  64.832  0.00  0.00     0.036 H 
BRANCH  49  52
ATOM     52  C22 non d ame     -11.163  13.215  65.220  0.00  0.00     0.018 C 
ATOM     53  H33 non d ame     -10.476  12.572  65.772  0.00  0.00     0.048 H 
ATOM     54  H34 non d ame     -12.167  13.395  65.604  0.00  0.00     0.048 H 
BRANCH  52  55
ATOM     55  C23 non d ame     -11.349  12.547  63.829  0.00  0.00     0.259 C 
ATOM     56  O7  non d ame     -12.355  12.702  63.216  0.00  0.00    -0.265 OA
BRANCH  55  57
ATOM     57  O8  non d ame     -10.307  11.737  63.300  0.00  0.00    -0.317 OA
BRANCH  57  58
ATOM     58  C29 non d ame     -10.081  10.528  64.031  0.00  0.00     0.052 C 
ATOM     59  H47 non d ame      -9.893  10.836  65.059  0.00  0.00     0.082 H 
ATOM     60  H48 non d ame     -10.928   9.882  63.802  0.00  0.00     0.082 H 
BRANCH  58  61
ATOM     61  C35 non d ame      -8.794   9.865  63.473  0.00  0.00    -0.034 A 
ATOM     62  C30 non d ame      -8.185   8.827  64.172  0.00  0.00    -0.075 A 
ATOM     63  C31 non d ame      -7.029   8.231  63.672  0.00  0.00    -0.082 A 
ATOM     64  H49 non d ame      -8.615   8.480  65.112  0.00  0.00     0.084 H 
ATOM     65  C32 non d ame      -6.479   8.679  62.467  0.00  0.00    -0.083 A 
ATOM     66  H50 non d ame      -6.556   7.417  64.221  0.00  0.00     0.083 H 
ATOM     67  C33 non d ame      -7.087   9.717  61.775  0.00  0.00    -0.082 A 
ATOM     68  H51 non d ame      -5.575   8.218  62.069  0.00  0.00     0.083 H 
ATOM     69  C34 non d ame      -8.244  10.314  62.270  0.00  0.00    -0.075 A 
ATOM     70  H52 non d ame      -6.654  10.065  60.837  0.00  0.00     0.083 H 
ATOM     71  H53 non d ame      -8.717  11.128  61.720  0.00  0.00     0.084 H 
ENDBRANCH  58  61
ENDBRANCH  57  58
ENDBRANCH  55  57
ENDBRANCH  52  55
ENDBRANCH  49  52
ENDBRANCH  47  49
BRANCH  47  72
ATOM     72  C24 non d ame      -8.909  15.593  66.802  0.00  0.00    -0.039 C 
ATOM     73  H35 non d ame      -8.677  15.096  67.745  0.00  0.00     0.036 H 
ATOM     74  H36 non d ame      -8.367  15.322  65.896  0.00  0.00     0.036 H 
BRANCH  72  75
ATOM     75  C25 non d ame      -8.693  17.163  67.030  0.00  0.00    -0.001 C 
ATOM     76  C26 non d ame      -7.375  17.676  66.190  0.00  0.00    -0.035 C 
ATOM     77  C27 non d ame      -6.563  18.363  67.029  0.00  0.00     0.085 C 
ATOM     78  H38 non d ame      -6.769  16.822  65.890  0.00  0.00     0.036 H 
ATOM     79  H39 non d ame      -7.669  18.422  65.452  0.00  0.00     0.036 H 
ATOM     80  N5  non d ame      -7.044  18.087  68.433  0.00  0.00    -0.049 N 
ATOM     81  H40 non d ame      -5.573  17.924  66.900  0.00  0.00     0.075 H 
ATOM     82  H41 non d ame      -6.728  19.414  66.797  0.00  0.00     0.075 H 
ATOM     83  C28 non d ame      -8.513  17.434  68.280  0.00  0.00     0.193 C 
ATOM     84  H42 non d ame      -6.421  17.391  68.817  0.00  0.00     0.280 HD
ATOM     85  H43 non d ame      -7.138  18.985  68.885  0.00  0.00     0.280 HD
ATOM     86  H44 non d ame      -9.405  18.025  68.486  0.00  0.00     0.129 H 
ATOM     87  H37 non d ame      -9.615  17.730  66.899  0.00  0.00     0.046 H 
BRANCH  83  88
ATOM     88  O6  non d ame      -8.624  16.273  69.104  0.00  0.00    -0.369 OA
ATOM     89  H45 non d ame      -8.847  16.537  70.000  0.00  0.00     0.212 HD
ENDBRANCH  83  88
ENDBRANCH  72  75
ENDBRANCH  47  72
ENDBRANCH  45  47
ENDBRANCH   1  43
BRANCH   1  90
ATOM     90  C16 non d ame     -12.101  14.631  71.197  0.00  0.00    -0.035 C 
ATOM     91  H21 non d ame     -11.282  14.169  71.749  0.00  0.00     0.037 H 
ATOM     92  H22 non d ame     -12.070  15.696  70.967  0.00  0.00     0.037 H 
BRANCH  90  93
ATOM     93  C17 non d ame     -13.391  14.401  72.047  0.00  0.00    -0.059 C 
ATOM     94  H23 non d ame     -13.206  14.799  73.044  0.00  0.00     0.038 H 
BRANCH  93  95
ATOM     95  C18 non d ame     -14.628  15.151  71.457  0.00  0.00    -0.073 C 
ATOM     96  H24 non d ame     -15.513  14.911  72.045  0.00  0.00     0.028 H 
ATOM     97  H25 non d ame     -14.450  16.226  71.490  0.00  0.00     0.028 H 
ATOM     98  H26 non d ame     -14.782  14.840  70.423  0.00  0.00     0.028 H 
ENDBRANCH  93  95
BRANCH  93  99
ATOM     99  C19 non d ame     -13.684  12.906  72.202  0.00  0.00    -0.073 C 
ATOM    100  H27 non d ame     -14.291  12.565  71.363  0.00  0.00     0.028 H 
ATOM    101  H28 non d ame     -12.745  12.352  72.221  0.00  0.00     0.028 H 
ATOM    102  H29 non d ame     -14.224  12.736  73.133  0.00  0.00     0.028 H 
ENDBRANCH  93  99
ENDBRANCH  90  93
ENDBRANCH   1  90
TORSDOF 26
ENDMDL
MODEL 6
REMARK VINA RESULT:      -7.3      3.477      7.198
REMARK  26 active torsions:
REMARK  status: ('A' for Active; 'I' for Inactive)
REMARK    1  A    between atoms: C2_2  and  C3_3 
REMARK    2  A    between atoms: C4_6  and  C5_7 
REMARK       I    between atoms: C5_7  and  N2_9 
REMARK    3  A    between atoms: N2_9  and  C6_10 
REMARK    4  A    between atoms: C6_10  and  C7_11 
REMARK    5  A    between atoms: C6_10  and  C8_13 
REMARK       I    between atoms: C7_11  and  N3_14 
REMARK    6  A    between atoms: N3_14  and  C9_15 
REMARK    7  A    between atoms: C9_15  and  C10_16 
REMARK    8  A    between atoms: C9_15  and  C11_18 
REMARK       I    between atoms: C10_16  and  N4_21 
REMARK    9  A    between atoms: C11_18  and  C12_19 
REMARK   10  A    between atoms: C11_18  and  C13_20 
REMARK   11  A    between atoms: N4_21  and  C14_22 
REMARK   12  A    between atoms: C14_22  and  C15_23 
REMARK   13  A    between atoms: C14_22  and  C16_25 
REMARK       I    between atoms: C15_23  and  N6_40 
REMARK   14  A    between atoms: C16_25  and  C17_26 
REMARK   15  A    between atoms: C17_26  and  C18_27 
REMARK   16  A    between atoms: C17_26  and  C19_28 
REMARK   17  A    between atoms: C20_29  and  C21_30 
REMARK   18  A    between atoms: C20_29  and  C24_33 
REMARK   19  A    between atoms: C20_29  and  N6_40 
REMARK   20  A    between atoms: C21_30  and  C22_31 
REMARK   21  A    between atoms: C22_31  and  C23_32 
REMARK   22  A    between atoms: C23_32  and  O8_43 
REMARK   23  A    between atoms: C24_33  and  C25_34 
REMARK   24  A    between atoms: C28_38  and  O6_39 
REMARK   25  A    between atoms: C29_42  and  O8_43 
REMARK   26  A    between atoms: C29_42  and  C35_49 
ROOT
ATOM      1  C14 non d ame     -11.128   8.803  70.090  0.00  0.00     0.089 C 
ATOM      2  H20 non d ame     -12.006   8.410  69.577  0.00  0.00     0.087 H 
ENDROOT
BRANCH   1   3
ATOM      3  N4  non d ame     -10.230   7.685  70.341  0.00  0.00    -0.346 N 
ATOM      4  C10 non d ame     -10.506   6.335  69.729  0.00  0.00     0.241 C 
ATOM      5  O4  non d ame     -11.458   6.171  69.040  0.00  0.00    -0.271 OA
ATOM      6  H19 non d ame      -9.426   7.845  70.931  0.00  0.00     0.163 HD
BRANCH   4   7
ATOM      7  C9  non d ame      -9.563   5.191  69.994  0.00  0.00     0.092 C 
ATOM      8  H11 non d ame     -10.122   4.255  69.981  0.00  0.00     0.088 H 
BRANCH   7   9
ATOM      9  N3  non d ame      -8.568   5.117  68.919  0.00  0.00    -0.346 N 
ATOM     10  C7  non d ame      -8.682   4.101  67.901  0.00  0.00     0.240 C 
ATOM     11  O3  non d ame      -9.567   3.335  67.933  0.00  0.00    -0.271 OA
ATOM     12  H10 non d ame      -7.799   5.770  68.880  0.00  0.00     0.163 HD
BRANCH  10  13
ATOM     13  C6  non d ame      -7.620   4.026  66.762  0.00  0.00     0.086 C 
ATOM     14  H6  non d ame      -7.897   3.328  65.972  0.00  0.00     0.086 H 
BRANCH  13  15
ATOM     15  N2  non d ame      -7.503   5.334  66.139  0.00  0.00    -0.343 N 
ATOM     16  C5  non d ame      -8.245   5.616  64.908  0.00  0.00     0.273 C 
ATOM     17  O2  non d ame      -8.932   4.783  64.426  0.00  0.00    -0.266 OA
ATOM     18  H5  non d ame      -6.912   6.039  66.556  0.00  0.00     0.163 HD
BRANCH  16  19
ATOM     19  C4  non d ame      -8.132   6.995  64.240  0.00  0.00     0.154 A 
ATOM     20  C1  non d ame      -7.806   7.269  62.873  0.00  0.00    -0.017 A 
ATOM     21  C2  non d ame      -7.834   8.678  62.769  0.00  0.00     0.077 A 
ATOM     22  H1  non d ame      -7.583   6.556  62.080  0.00  0.00     0.091 H 
ATOM     23  O1  non d ame      -8.142   9.147  63.943  0.00  0.00    -0.218 OA
ATOM     24  N1  non d ame      -8.321   8.184  64.817  0.00  0.00    -0.123 NA
BRANCH  21  25
ATOM     25  C3  non d ame      -7.555   9.494  61.514  0.00  0.00    -0.029 C 
ATOM     26  H2  non d ame      -6.643   9.132  61.040  0.00  0.00     0.036 H 
ATOM     27  H3  non d ame      -8.391   9.392  60.822  0.00  0.00     0.036 H 
ATOM     28  H4  non d ame      -7.433  10.544  61.783  0.00  0.00     0.036 H 
ENDBRANCH  21  25
ENDBRANCH  16  19
ENDBRANCH  13  15
BRANCH  13  29
ATOM     29  C8  non d ame      -6.291   3.607  67.337  0.00  0.00    -0.049 C 
ATOM     30  H7  non d ame      -6.440   3.193  68.334  0.00  0.00     0.030 H 
ATOM     31  H8  non d ame      -5.838   2.852  66.694  0.00  0.00     0.030 H 
ATOM     32  H9  non d ame      -5.633   4.474  67.400  0.00  0.00     0.030 H 
ENDBRANCH  13  29
ENDBRANCH  10  13
ENDBRANCH   7   9
BRANCH   7  33
ATOM     33  C11 non d ame      -8.837   5.421  71.353  0.00  0.00    -0.033 C 
ATOM     34  H12 non d ame      -8.769   6.497  71.511  0.00  0.00     0.042 H 
BRANCH  33  35
ATOM     35  C12 non d ame      -9.654   4.823  72.541  0.00  0.00    -0.071 C 
ATOM     36  H13 non d ame      -9.538   5.461  73.418  0.00  0.00     0.028 H 
ATOM     37  H14 non d ame     -10.707   4.771  72.268  0.00  0.00     0.028 H 
ATOM     38  H15 non d ame      -9.286   3.823  72.767  0.00  0.00     0.028 H 
ENDBRANCH  33  35
BRANCH  33  39
ATOM     39  C13 non d ame      -7.385   4.845  71.316  0.00  0.00    -0.071 C 
ATOM     40  H16 non d ame      -7.342   4.013  70.614  0.00  0.00     0.028 H 
ATOM     41  H17 non d ame      -6.693   5.625  70.999  0.00  0.00     0.028 H 
ATOM     42  H18 non d ame      -7.109   4.496  72.311  0.00  0.00     0.028 H 
ENDBRANCH  33  39
ENDBRANCH   7  33
ENDBRANCH   4   7
ENDBRANCH   1   3
BRANCH   1  43
ATOM     43  C15 non d ame     -10.374   9.862  69.236  0.00  0.00     0.240 C 
ATOM     44  O5  non d ame      -9.186   9.846  69.187  0.00  0.00    -0.271 OA
ATOM     45  N6  non d ame     -11.133  10.893  68.472  0.00  0.00    -0.355 N 
ATOM     46  H46 non d ame     -12.142  10.914  68.502  0.00  0.00     0.162 HD
BRANCH  45  47
ATOM     47  C20 non d ame     -10.402  11.892  67.663  0.00  0.00     0.013 C 
ATOM     48  H30 non d ame      -9.394  11.979  68.069  0.00  0.00     0.072 H 
BRANCH  47  49
ATOM     49  C21 non d ame     -11.111  13.224  67.754  0.00  0.00    -0.038 C 
ATOM     50  H31 non d ame     -11.520  13.408  66.760  0.00  0.00     0.036 H 
ATOM     51  H32 non d ame     -11.779  13.144  68.612  0.00  0.00     0.036 H 
BRANCH  49  52
ATOM     52  C22 non d ame     -10.151  14.395  68.055  0.00  0.00     0.018 C 
ATOM     53  H33 non d ame      -9.998  14.382  69.135  0.00  0.00     0.048 H 
ATOM     54  H34 non d ame      -9.303  14.262  67.383  0.00  0.00     0.048 H 
BRANCH  52  55
ATOM     55  C23 non d ame     -10.744  15.793  67.724  0.00  0.00     0.259 C 
ATOM     56  O7  non d ame     -10.666  16.236  66.624  0.00  0.00    -0.265 OA
BRANCH  55  57
ATOM     57  O8  non d ame     -11.372  16.545  68.755  0.00  0.00    -0.317 OA
BRANCH  57  58
ATOM     58  C29 non d ame     -10.816  16.328  70.055  0.00  0.00     0.052 C 
ATOM     59  H47 non d ame     -10.148  15.473  69.951  0.00  0.00     0.082 H 
ATOM     60  H48 non d ame     -10.421  17.293  70.372  0.00  0.00     0.082 H 
BRANCH  58  61
ATOM     61  C35 non d ame     -11.974  15.934  71.011  0.00  0.00    -0.034 A 
ATOM     62  C30 non d ame     -13.096  15.279  70.514  0.00  0.00    -0.075 A 
ATOM     63  C31 non d ame     -14.135  14.926  71.373  0.00  0.00    -0.082 A 
ATOM     64  H49 non d ame     -13.160  15.043  69.452  0.00  0.00     0.084 H 
ATOM     65  C32 non d ame     -14.051  15.232  72.734  0.00  0.00    -0.083 A 
ATOM     66  H50 non d ame     -15.012  14.410  70.980  0.00  0.00     0.083 H 
ATOM     67  C33 non d ame     -12.931  15.889  73.225  0.00  0.00    -0.082 A 
ATOM     68  H51 non d ame     -14.859  14.958  73.412  0.00  0.00     0.083 H 
ATOM     69  C34 non d ame     -11.889  16.242  72.370  0.00  0.00    -0.075 A 
ATOM     70  H52 non d ame     -12.870  16.128  74.287  0.00  0.00     0.083 H 
ATOM     71  H53 non d ame     -11.012  16.757  72.764  0.00  0.00     0.084 H 
ENDBRANCH  58  61
ENDBRANCH  57  58
ENDBRANCH  55  57
ENDBRANCH  52  55
ENDBRANCH  49  52
ENDBRANCH  47  49
BRANCH  47  72
ATOM     72  C24 non d ame     -10.350  11.439  66.205  0.00  0.00    -0.039 C 
ATOM     73  H35 non d ame      -9.292  11.311  65.979  0.00  0.00     0.036 H 
ATOM     74  H36 non d ame     -11.028  10.588  66.142  0.00  0.00     0.036 H 
BRANCH  72  75
ATOM     75  C25 non d ame     -10.913  12.566  65.215  0.00  0.00    -0.001 C 
ATOM     76  C26 non d ame     -12.472  12.231  64.814  0.00  0.00    -0.035 C 
ATOM     77  C27 non d ame     -12.593  12.268  63.465  0.00  0.00     0.085 C 
ATOM     78  H38 non d ame     -12.708  11.197  65.063  0.00  0.00     0.036 H 
ATOM     79  H39 non d ame     -13.126  13.036  65.151  0.00  0.00     0.036 H 
ATOM     80  N5  non d ame     -11.195  12.274  62.896  0.00  0.00    -0.049 N 
ATOM     81  H40 non d ame     -13.085  11.334  63.191  0.00  0.00     0.075 H 
ATOM     82  H41 non d ame     -13.071  13.222  63.242  0.00  0.00     0.075 H 
ATOM     83  C28 non d ame     -10.215  12.625  64.130  0.00  0.00     0.193 C 
ATOM     84  H42 non d ame     -11.005  11.329  62.594  0.00  0.00     0.280 HD
ATOM     85  H43 non d ame     -11.160  13.034  62.232  0.00  0.00     0.280 HD
ATOM     86  H44 non d ame      -9.782  13.621  64.227  0.00  0.00     0.129 H 
ATOM     87  H37 non d ame     -10.698  13.574  65.571  0.00  0.00     0.046 H 
BRANCH  83  88
ATOM     88  O6  non d ame      -9.107  11.724  64.152  0.00  0.00    -0.369 OA
ATOM     89  H45 non d ame      -8.967  11.368  63.272  0.00  0.00     0.212 HD
ENDBRANCH  83  88
ENDBRANCH  72  75
ENDBRANCH  47  72
ENDBRANCH  45  47
ENDBRANCH   1  43
BRANCH   1  90
ATOM     90  C16 non d ame     -11.539   9.417  71.419  0.00  0.00    -0.035 C 
ATOM     91  H21 non d ame     -11.452   8.611  72.148  0.00  0.00     0.037 H 
ATOM     92  H22 non d ame     -10.929  10.314  71.524  0.00  0.00     0.037 H 
BRANCH  90  93
ATOM     93  C17 non d ame     -13.028   9.888  71.457  0.00  0.00    -0.059 C 
ATOM     94  H23 non d ame     -13.432   9.789  70.450  0.00  0.00     0.038 H 
BRANCH  93  95
ATOM     95  C18 non d ame     -13.900   9.007  72.409  0.00  0.00    -0.073 C 
ATOM     96  H24 non d ame     -13.630   7.959  72.283  0.00  0.00     0.028 H 
ATOM     97  H25 non d ame     -13.725   9.306  73.443  0.00  0.00     0.028 H 
ATOM     98  H26 non d ame     -14.954   9.143  72.165  0.00  0.00     0.028 H 
ENDBRANCH  93  95
BRANCH  93  99
ATOM     99  C19 non d ame     -13.124  11.366  71.843  0.00  0.00    -0.073 C 
ATOM    100  H27 non d ame     -14.109  11.569  72.263  0.00  0.00     0.028 H 
ATOM    101  H28 non d ame     -12.358  11.598  72.585  0.00  0.00     0.028 H 
ATOM    102  H29 non d ame     -12.971  11.983  70.958  0.00  0.00     0.028 H 
ENDBRANCH  93  99
ENDBRANCH  90  93
ENDBRANCH   1  90
TORSDOF 26
ENDMDL
MODEL 7
REMARK VINA RESULT:      -7.2      3.724     10.455
REMARK  26 active torsions:
REMARK  status: ('A' for Active; 'I' for Inactive)
REMARK    1  A    between atoms: C2_2  and  C3_3 
REMARK    2  A    between atoms: C4_6  and  C5_7 
REMARK       I    between atoms: C5_7  and  N2_9 
REMARK    3  A    between atoms: N2_9  and  C6_10 
REMARK    4  A    between atoms: C6_10  and  C7_11 
REMARK    5  A    between atoms: C6_10  and  C8_13 
REMARK       I    between atoms: C7_11  and  N3_14 
REMARK    6  A    between atoms: N3_14  and  C9_15 
REMARK    7  A    between atoms: C9_15  and  C10_16 
REMARK    8  A    between atoms: C9_15  and  C11_18 
REMARK       I    between atoms: C10_16  and  N4_21 
REMARK    9  A    between atoms: C11_18  and  C12_19 
REMARK   10  A    between atoms: C11_18  and  C13_20 
REMARK   11  A    between atoms: N4_21  and  C14_22 
REMARK   12  A    between atoms: C14_22  and  C15_23 
REMARK   13  A    between atoms: C14_22  and  C16_25 
REMARK       I    between atoms: C15_23  and  N6_40 
REMARK   14  A    between atoms: C16_25  and  C17_26 
REMARK   15  A    between atoms: C17_26  and  C18_27 
REMARK   16  A    between atoms: C17_26  and  C19_28 
REMARK   17  A    between atoms: C20_29  and  C21_30 
REMARK   18  A    between atoms: C20_29  and  C24_33 
REMARK   19  A    between atoms: C20_29  and  N6_40 
REMARK   20  A    between atoms: C21_30  and  C22_31 
REMARK   21  A    between atoms: C22_31  and  C23_32 
REMARK   22  A    between atoms: C23_32  and  O8_43 
REMARK   23  A    between atoms: C24_33  and  C25_34 
REMARK   24  A    between atoms: C28_38  and  O6_39 
REMARK   25  A    between atoms: C29_42  and  O8_43 
REMARK   26  A    between atoms: C29_42  and  C35_49 
ROOT
ATOM      1  C14 non d ame      -7.517   9.715  64.705  0.00  0.00     0.089 C 
ATOM      2  H20 non d ame      -8.050   8.781  64.526  0.00  0.00     0.087 H 
ENDROOT
BRANCH   1   3
ATOM      3  N4  non d ame      -8.512  10.772  64.817  0.00  0.00    -0.346 N 
ATOM      4  C10 non d ame      -9.880  10.474  65.377  0.00  0.00     0.241 C 
ATOM      5  O4  non d ame     -10.159   9.375  65.728  0.00  0.00    -0.271 OA
ATOM      6  H19 non d ame      -8.255  11.700  64.511  0.00  0.00     0.163 HD
BRANCH   4   7
ATOM      7  C9  non d ame     -10.895  11.581  65.491  0.00  0.00     0.092 C 
ATOM      8  H11 non d ame     -11.888  11.146  65.604  0.00  0.00     0.088 H 
BRANCH   7   9
ATOM      9  N3  non d ame     -10.626  12.369  66.698  0.00  0.00    -0.346 N 
ATOM     10  C7  non d ame     -11.402  12.143  67.893  0.00  0.00     0.240 C 
ATOM     11  O3  non d ame     -12.246  11.333  67.900  0.00  0.00    -0.271 OA
ATOM     12  H10 non d ame      -9.902  13.072  66.706  0.00  0.00     0.163 HD
BRANCH  10  13
ATOM     13  C6  non d ame     -11.113  12.987  69.173  0.00  0.00     0.086 C 
ATOM     14  H6  non d ame     -10.093  12.865  69.537  0.00  0.00     0.086 H 
BRANCH  13  15
ATOM     15  N2  non d ame     -11.276  14.396  68.856  0.00  0.00    -0.343 N 
ATOM     16  C5  non d ame     -10.142  15.150  68.317  0.00  0.00     0.273 C 
ATOM     17  O2  non d ame      -9.102  14.614  68.145  0.00  0.00    -0.266 OA
ATOM     18  H5  non d ame     -12.167  14.846  69.009  0.00  0.00     0.163 HD
BRANCH  16  19
ATOM     19  C4  non d ame     -10.300  16.639  67.975  0.00  0.00     0.154 A 
ATOM     20  C1  non d ame     -10.261  17.238  66.676  0.00  0.00    -0.017 A 
ATOM     21  C2  non d ame     -10.457  18.618  66.905  0.00  0.00     0.077 A 
ATOM     22  H1  non d ame     -10.114  16.746  65.714  0.00  0.00     0.091 H 
ATOM     23  O1  non d ame     -10.593  18.782  68.189  0.00  0.00    -0.218 OA
ATOM     24  N1  non d ame     -10.505  17.642  68.834  0.00  0.00    -0.123 NA
BRANCH  21  25
ATOM     25  C3  non d ame     -10.501  19.711  65.845  0.00  0.00    -0.029 C 
ATOM     26  H2  non d ame      -9.694  20.422  66.022  0.00  0.00     0.036 H 
ATOM     27  H3  non d ame     -10.383  19.264  64.858  0.00  0.00     0.036 H 
ATOM     28  H4  non d ame     -11.460  20.229  65.897  0.00  0.00     0.036 H 
ENDBRANCH  21  25
ENDBRANCH  16  19
ENDBRANCH  13  15
BRANCH  13  29
ATOM     29  C8  non d ame     -12.071  12.589  70.267  0.00  0.00    -0.049 C 
ATOM     30  H7  non d ame     -13.052  12.388  69.835  0.00  0.00     0.030 H 
ATOM     31  H8  non d ame     -11.702  11.693  70.765  0.00  0.00     0.030 H 
ATOM     32  H9  non d ame     -12.153  13.400  70.990  0.00  0.00     0.030 H 
ENDBRANCH  13  29
ENDBRANCH  10  13
ENDBRANCH   7   9
BRANCH   7  33
ATOM     33  C11 non d ame     -10.798  12.503  64.240  0.00  0.00    -0.033 C 
ATOM     34  H12 non d ame      -9.893  12.230  63.699  0.00  0.00     0.042 H 
BRANCH  33  35
ATOM     35  C12 non d ame     -12.006  12.282  63.277  0.00  0.00    -0.071 C 
ATOM     36  H13 non d ame     -12.393  11.272  63.405  0.00  0.00     0.028 H 
ATOM     37  H14 non d ame     -12.790  13.003  63.506  0.00  0.00     0.028 H 
ATOM     38  H15 non d ame     -11.677  12.418  62.247  0.00  0.00     0.028 H 
ENDBRANCH  33  35
BRANCH  33  39
ATOM     39  C13 non d ame     -10.676  14.004  64.660  0.00  0.00    -0.071 C 
ATOM     40  H16 non d ame     -10.193  14.070  65.635  0.00  0.00     0.028 H 
ATOM     41  H17 non d ame     -10.080  14.540  63.922  0.00  0.00     0.028 H 
ATOM     42  H18 non d ame     -11.670  14.447  64.716  0.00  0.00     0.028 H 
ENDBRANCH  33  39
ENDBRANCH   7  33
ENDBRANCH   4   7
ENDBRANCH   1   3
BRANCH   1  43
ATOM     43  C15 non d ame      -6.687   9.675  66.020  0.00  0.00     0.240 C 
ATOM     44  O5  non d ame      -5.588  10.128  66.040  0.00  0.00    -0.271 OA
ATOM     45  N6  non d ame      -7.265   9.079  67.258  0.00  0.00    -0.355 N 
ATOM     46  H46 non d ame      -8.199   8.695  67.255  0.00  0.00     0.162 HD
BRANCH  45  47
ATOM     47  C20 non d ame      -6.463   9.050  68.501  0.00  0.00     0.013 C 
ATOM     48  H30 non d ame      -5.414   9.159  68.226  0.00  0.00     0.072 H 
BRANCH  47  49
ATOM     49  C21 non d ame      -6.679   7.728  69.203  0.00  0.00    -0.038 C 
ATOM     50  H31 non d ame      -5.818   7.600  69.860  0.00  0.00     0.036 H 
ATOM     51  H32 non d ame      -7.683   7.779  69.625  0.00  0.00     0.036 H 
BRANCH  49  52
ATOM     52  C22 non d ame      -6.672   6.526  68.234  0.00  0.00     0.018 C 
ATOM     53  H33 non d ame      -6.368   6.928  67.267  0.00  0.00     0.048 H 
ATOM     54  H34 non d ame      -6.069   5.759  68.720  0.00  0.00     0.048 H 
BRANCH  52  55
ATOM     55  C23 non d ame      -8.074   5.893  68.013  0.00  0.00     0.259 C 
ATOM     56  O7  non d ame      -8.210   4.712  68.014  0.00  0.00    -0.265 OA
BRANCH  55  57
ATOM     57  O8  non d ame      -9.195   6.741  67.795  0.00  0.00    -0.317 OA
BRANCH  57  58
ATOM     58  C29 non d ame     -10.399   6.286  68.419  0.00  0.00     0.052 C 
ATOM     59  H47 non d ame     -11.177   6.375  67.660  0.00  0.00     0.082 H 
ATOM     60  H48 non d ame     -10.162   5.310  68.843  0.00  0.00     0.082 H 
BRANCH  58  61
ATOM     61  C35 non d ame     -10.734   7.258  69.581  0.00  0.00    -0.034 A 
ATOM     62  C30 non d ame     -10.174   8.531  69.607  0.00  0.00    -0.075 A 
ATOM     63  C31 non d ame     -10.474   9.405  70.651  0.00  0.00    -0.082 A 
ATOM     64  H49 non d ame      -9.502   8.845  68.809  0.00  0.00     0.084 H 
ATOM     65  C32 non d ame     -11.335   8.999  71.675  0.00  0.00    -0.083 A 
ATOM     66  H50 non d ame     -10.037  10.403  70.667  0.00  0.00     0.083 H 
ATOM     67  C33 non d ame     -11.888   7.726  71.646  0.00  0.00    -0.082 A 
ATOM     68  H51 non d ame     -11.576   9.676  72.495  0.00  0.00     0.083 H 
ATOM     69  C34 non d ame     -11.593   6.851  70.603  0.00  0.00    -0.075 A 
ATOM     70  H52 non d ame     -12.558   7.412  72.448  0.00  0.00     0.083 H 
ATOM     71  H53 non d ame     -12.032   5.853  70.588  0.00  0.00     0.084 H 
ENDBRANCH  58  61
ENDBRANCH  57  58
ENDBRANCH  55  57
ENDBRANCH  52  55
ENDBRANCH  49  52
ENDBRANCH  47  49
BRANCH  47  72
ATOM     72  C24 non d ame      -6.893  10.192  69.420  0.00  0.00    -0.039 C 
ATOM     73  H35 non d ame      -7.901  10.458  69.100  0.00  0.00     0.036 H 
ATOM     74  H36 non d ame      -6.720   9.829  70.433  0.00  0.00     0.036 H 
BRANCH  72  75
ATOM     75  C25 non d ame      -5.976  11.490  69.220  0.00  0.00    -0.001 C 
ATOM     76  C26 non d ame      -5.463  12.044  70.681  0.00  0.00    -0.035 C 
ATOM     77  C27 non d ame      -5.741  13.367  70.768  0.00  0.00     0.085 C 
ATOM     78  H38 non d ame      -6.062  11.605  71.478  0.00  0.00     0.036 H 
ATOM     79  H39 non d ame      -4.375  12.008  70.733  0.00  0.00     0.036 H 
ATOM     80  N5  non d ame      -6.687  13.694  69.638  0.00  0.00    -0.049 N 
ATOM     81  H40 non d ame      -6.263  13.493  71.717  0.00  0.00     0.075 H 
ATOM     82  H41 non d ame      -4.793  13.875  70.595  0.00  0.00     0.075 H 
ATOM     83  C28 non d ame      -6.627  12.436  68.629  0.00  0.00     0.193 C 
ATOM     84  H42 non d ame      -7.612  13.738  70.043  0.00  0.00     0.280 HD
ATOM     85  H43 non d ame      -6.303  14.502  69.168  0.00  0.00     0.280 HD
ATOM     86  H44 non d ame      -6.073  12.503  67.693  0.00  0.00     0.129 H 
ATOM     87  H37 non d ame      -5.217  11.345  68.450  0.00  0.00     0.046 H 
BRANCH  83  88
ATOM     88  O6  non d ame      -7.948  12.033  68.263  0.00  0.00    -0.369 OA
ATOM     89  H45 non d ame      -7.914  11.526  67.449  0.00  0.00     0.212 HD
ENDBRANCH  83  88
ENDBRANCH  72  75
ENDBRANCH  47  72
ENDBRANCH  45  47
ENDBRANCH   1  43
BRANCH   1  90
ATOM     90  C16 non d ame      -6.601  10.019  63.531  0.00  0.00    -0.035 C 
ATOM     91  H21 non d ame      -6.645  11.101  63.402  0.00  0.00     0.037 H 
ATOM     92  H22 non d ame      -5.652   9.538  63.773  0.00  0.00     0.037 H 
BRANCH  90  93
ATOM     93  C17 non d ame      -7.081   9.393  62.183  0.00  0.00    -0.059 C 
ATOM     94  H23 non d ame      -6.197   9.066  61.636  0.00  0.00     0.038 H 
BRANCH  93  95
ATOM     95  C18 non d ame      -7.993   8.144  62.405  0.00  0.00    -0.073 C 
ATOM     96  H24 non d ame      -9.009   8.471  62.625  0.00  0.00     0.028 H 
ATOM     97  H25 non d ame      -7.995   7.531  61.503  0.00  0.00     0.028 H 
ATOM     98  H26 non d ame      -7.609   7.558  63.241  0.00  0.00     0.028 H 
ENDBRANCH  93  95
BRANCH  93  99
ATOM     99  C19 non d ame      -7.790  10.438  61.318  0.00  0.00    -0.073 C 
ATOM    100  H27 non d ame      -7.094  11.240  61.072  0.00  0.00     0.028 H 
ATOM    101  H28 non d ame      -8.144   9.969  60.399  0.00  0.00     0.028 H 
ATOM    102  H29 non d ame      -8.639  10.848  61.865  0.00  0.00     0.028 H 
ENDBRANCH  93  99
ENDBRANCH  90  93
ENDBRANCH   1  90
TORSDOF 26
ENDMDL
MODEL 8
REMARK VINA RESULT:      -7.2      3.753      7.815
REMARK  26 active torsions:
REMARK  status: ('A' for Active; 'I' for Inactive)
REMARK    1  A    between atoms: C2_2  and  C3_3 
REMARK    2  A    between atoms: C4_6  and  C5_7 
REMARK       I    between atoms: C5_7  and  N2_9 
REMARK    3  A    between atoms: N2_9  and  C6_10 
REMARK    4  A    between atoms: C6_10  and  C7_11 
REMARK    5  A    between atoms: C6_10  and  C8_13 
REMARK       I    between atoms: C7_11  and  N3_14 
REMARK    6  A    between atoms: N3_14  and  C9_15 
REMARK    7  A    between atoms: C9_15  and  C10_16 
REMARK    8  A    between atoms: C9_15  and  C11_18 
REMARK       I    between atoms: C10_16  and  N4_21 
REMARK    9  A    between atoms: C11_18  and  C12_19 
REMARK   10  A    between atoms: C11_18  and  C13_20 
REMARK   11  A    between atoms: N4_21  and  C14_22 
REMARK   12  A    between atoms: C14_22  and  C15_23 
REMARK   13  A    between atoms: C14_22  and  C16_25 
REMARK       I    between atoms: C15_23  and  N6_40 
REMARK   14  A    between atoms: C16_25  and  C17_26 
REMARK   15  A    between atoms: C17_26  and  C18_27 
REMARK   16  A    between atoms: C17_26  and  C19_28 
REMARK   17  A    between atoms: C20_29  and  C21_30 
REMARK   18  A    between atoms: C20_29  and  C24_33 
REMARK   19  A    between atoms: C20_29  and  N6_40 
REMARK   20  A    between atoms: C21_30  and  C22_31 
REMARK   21  A    between atoms: C22_31  and  C23_32 
REMARK   22  A    between atoms: C23_32  and  O8_43 
REMARK   23  A    between atoms: C24_33  and  C25_34 
REMARK   24  A    between atoms: C28_38  and  O6_39 
REMARK   25  A    between atoms: C29_42  and  O8_43 
REMARK   26  A    between atoms: C29_42  and  C35_49 
ROOT
ATOM      1  C14 non d ame     -10.271  10.309  68.847  0.00  0.00     0.089 C 
ATOM      2  H20 non d ame      -9.518  10.231  69.632  0.00  0.00     0.087 H 
ENDROOT
BRANCH   1   3
ATOM      3  N4  non d ame     -10.952   9.025  68.764  0.00  0.00    -0.346 N 
ATOM      4  C10 non d ame     -10.375   7.811  69.446  0.00  0.00     0.241 C 
ATOM      5  O4  non d ame      -9.358   7.890  70.053  0.00  0.00    -0.271 OA
ATOM      6  H19 non d ame     -11.815   8.978  68.240  0.00  0.00     0.163 HD
BRANCH   4   7
ATOM      7  C9  non d ame     -11.096   6.492  69.354  0.00  0.00     0.092 C 
ATOM      8  H11 non d ame     -12.066   6.646  68.881  0.00  0.00     0.088 H 
BRANCH   7   9
ATOM      9  N3  non d ame     -10.336   5.577  68.497  0.00  0.00    -0.346 N 
ATOM     10  C7  non d ame     -10.440   5.682  67.062  0.00  0.00     0.240 C 
ATOM     11  O3  non d ame     -11.130   6.495  66.581  0.00  0.00    -0.271 OA
ATOM     12  H10 non d ame      -9.738   4.869  68.897  0.00  0.00     0.163 HD
BRANCH  10  13
ATOM     13  C6  non d ame      -9.631   4.703  66.155  0.00  0.00     0.086 C 
ATOM     14  H6  non d ame     -10.189   4.387  65.273  0.00  0.00     0.086 H 
BRANCH  13  15
ATOM     15  N2  non d ame      -8.441   5.384  65.671  0.00  0.00    -0.343 N 
ATOM     16  C5  non d ame      -8.159   5.411  64.234  0.00  0.00     0.273 C 
ATOM     17  O2  non d ame      -8.894   4.881  63.476  0.00  0.00    -0.266 OA
ATOM     18  H5  non d ame      -7.816   5.832  66.327  0.00  0.00     0.163 HD
BRANCH  16  19
ATOM     19  C4  non d ame      -6.905   6.128  63.709  0.00  0.00     0.154 A 
ATOM     20  C1  non d ame      -6.671   7.539  63.665  0.00  0.00    -0.017 A 
ATOM     21  C2  non d ame      -5.383   7.676  63.100  0.00  0.00     0.077 A 
ATOM     22  H1  non d ame      -7.334   8.341  63.991  0.00  0.00     0.091 H 
ATOM     23  O1  non d ame      -4.938   6.478  62.855  0.00  0.00    -0.218 OA
ATOM     24  N1  non d ame      -5.809   5.558  63.201  0.00  0.00    -0.123 NA
BRANCH  21  25
ATOM     25  C3  non d ame      -4.651   8.984  62.831  0.00  0.00    -0.029 C 
ATOM     26  H2  non d ame      -4.896   9.705  63.611  0.00  0.00     0.036 H 
ATOM     27  H3  non d ame      -3.576   8.804  62.827  0.00  0.00     0.036 H 
ATOM     28  H4  non d ame      -4.957   9.379  61.862  0.00  0.00     0.036 H 
ENDBRANCH  21  25
ENDBRANCH  16  19
ENDBRANCH  13  15
BRANCH  13  29
ATOM     29  C8  non d ame      -9.241   3.483  66.949  0.00  0.00    -0.049 C 
ATOM     30  H7  non d ame     -10.008   3.275  67.695  0.00  0.00     0.030 H 
ATOM     31  H8  non d ame      -9.145   2.629  66.279  0.00  0.00     0.030 H 
ATOM     32  H9  non d ame      -8.289   3.663  67.448  0.00  0.00     0.030 H 
ENDBRANCH  13  29
ENDBRANCH  10  13
ENDBRANCH   7   9
BRANCH   7  33
ATOM     33  C11 non d ame     -11.230   5.874  70.777  0.00  0.00    -0.033 C 
ATOM     34  H12 non d ame     -12.099   5.216  70.769  0.00  0.00     0.042 H 
BRANCH  33  35
ATOM     35  C12 non d ame      -9.986   5.004  71.138  0.00  0.00    -0.071 C 
ATOM     36  H13 non d ame     -10.278   4.230  71.849  0.00  0.00     0.028 H 
ATOM     37  H14 non d ame      -9.595   4.537  70.234  0.00  0.00     0.028 H 
ATOM     38  H15 non d ame      -9.218   5.635  71.583  0.00  0.00     0.028 H 
ENDBRANCH  33  35
BRANCH  33  39
ATOM     39  C13 non d ame     -11.474   6.985  71.848  0.00  0.00    -0.071 C 
ATOM     40  H16 non d ame     -11.019   7.917  71.515  0.00  0.00     0.028 H 
ATOM     41  H17 non d ame     -12.547   7.131  71.982  0.00  0.00     0.028 H 
ATOM     42  H18 non d ame     -11.029   6.680  72.795  0.00  0.00     0.028 H 
ENDBRANCH  33  39
ENDBRANCH   7  33
ENDBRANCH   4   7
ENDBRANCH   1   3
BRANCH   1  43
ATOM     43  C15 non d ame     -11.326  11.411  69.152  0.00  0.00     0.240 C 
ATOM     44  O5  non d ame     -12.484  11.145  69.122  0.00  0.00    -0.271 OA
ATOM     45  N6  non d ame     -10.891  12.796  69.490  0.00  0.00    -0.355 N 
ATOM     46  H46 non d ame      -9.910  13.032  69.524  0.00  0.00     0.162 HD
BRANCH  45  47
ATOM     47  C20 non d ame     -11.906  13.832  69.780  0.00  0.00     0.013 C 
ATOM     48  H30 non d ame     -12.873  13.337  69.876  0.00  0.00     0.072 H 
BRANCH  47  49
ATOM     49  C21 non d ame     -11.946  14.825  68.640  0.00  0.00    -0.038 C 
ATOM     50  H31 non d ame     -11.447  14.334  67.804  0.00  0.00     0.036 H 
ATOM     51  H32 non d ame     -12.989  15.129  68.550  0.00  0.00     0.036 H 
BRANCH  49  52
ATOM     52  C22 non d ame     -11.141  16.109  68.936  0.00  0.00     0.018 C 
ATOM     53  H33 non d ame     -11.629  16.901  68.367  0.00  0.00     0.048 H 
ATOM     54  H34 non d ame     -11.080  16.176  70.022  0.00  0.00     0.048 H 
BRANCH  52  55
ATOM     55  C23 non d ame      -9.673  16.059  68.428  0.00  0.00     0.259 C 
ATOM     56  O7  non d ame      -8.849  15.446  69.025  0.00  0.00    -0.265 OA
BRANCH  55  57
ATOM     57  O8  non d ame      -9.320  16.767  67.245  0.00  0.00    -0.317 OA
BRANCH  57  58
ATOM     58  C29 non d ame      -8.757  15.944  66.220  0.00  0.00     0.052 C 
ATOM     59  H47 non d ame      -8.354  16.632  65.477  0.00  0.00     0.082 H 
ATOM     60  H48 non d ame      -8.096  15.246  66.732  0.00  0.00     0.082 H 
BRANCH  58  61
ATOM     61  C35 non d ame      -9.911  15.137  65.566  0.00  0.00    -0.034 A 
ATOM     62  C30 non d ame     -10.949  15.803  64.923  0.00  0.00    -0.075 A 
ATOM     63  C31 non d ame     -11.985  15.078  64.336  0.00  0.00    -0.082 A 
ATOM     64  H49 non d ame     -10.950  16.892  64.878  0.00  0.00     0.084 H 
ATOM     65  C32 non d ame     -11.982  13.682  64.396  0.00  0.00    -0.083 A 
ATOM     66  H50 non d ame     -12.796  15.603  63.830  0.00  0.00     0.083 H 
ATOM     67  C33 non d ame     -10.946  13.022  65.042  0.00  0.00    -0.082 A 
ATOM     68  H51 non d ame     -12.788  13.108  63.939  0.00  0.00     0.083 H 
ATOM     69  C34 non d ame      -9.907  13.742  65.629  0.00  0.00    -0.075 A 
ATOM     70  H52 non d ame     -10.948  11.933  65.090  0.00  0.00     0.083 H 
ATOM     71  H53 non d ame      -9.096  13.217  66.133  0.00  0.00     0.084 H 
ENDBRANCH  58  61
ENDBRANCH  57  58
ENDBRANCH  55  57
ENDBRANCH  52  55
ENDBRANCH  49  52
ENDBRANCH  47  49
BRANCH  47  72
ATOM     72  C24 non d ame     -11.550  14.557  71.076  0.00  0.00    -0.039 C 
ATOM     73  H35 non d ame     -10.678  14.034  71.470  0.00  0.00     0.036 H 
ATOM     74  H36 non d ame     -11.478  15.611  70.808  0.00  0.00     0.036 H 
BRANCH  72  75
ATOM     75  C25 non d ame     -12.714  14.425  72.168  0.00  0.00    -0.001 C 
ATOM     76  C26 non d ame     -14.122  13.996  71.436  0.00  0.00    -0.035 C 
ATOM     77  C27 non d ame     -15.096  14.854  71.826  0.00  0.00     0.085 C 
ATOM     78  H38 non d ame     -14.051  14.162  70.362  0.00  0.00     0.036 H 
ATOM     79  H39 non d ame     -14.464  13.033  71.818  0.00  0.00     0.036 H 
ATOM     80  N5  non d ame     -14.413  16.021  72.496  0.00  0.00    -0.049 N 
ATOM     81  H40 non d ame     -15.566  15.199  70.904  0.00  0.00     0.075 H 
ATOM     82  H41 non d ame     -15.682  14.312  72.567  0.00  0.00     0.075 H 
ATOM     83  C28 non d ame     -12.899  15.541  72.790  0.00  0.00     0.193 C 
ATOM     84  H42 non d ame     -14.387  16.767  71.816  0.00  0.00     0.280 HD
ATOM     85  H43 non d ame     -14.883  16.159  73.380  0.00  0.00     0.280 HD
ATOM     86  H44 non d ame     -12.594  15.259  73.798  0.00  0.00     0.129 H 
ATOM     87  H37 non d ame     -12.404  13.837  73.032  0.00  0.00     0.046 H 
BRANCH  83  88
ATOM     88  O6  non d ame     -11.974  16.549  72.378  0.00  0.00    -0.369 OA
ATOM     89  H45 non d ame     -11.214  16.134  71.965  0.00  0.00     0.212 HD
ENDBRANCH  83  88
ENDBRANCH  72  75
ENDBRANCH  47  72
ENDBRANCH  45  47
ENDBRANCH   1  43
BRANCH   1  90
ATOM     90  C16 non d ame      -9.598  10.600  67.515  0.00  0.00    -0.035 C 
ATOM     91  H21 non d ame     -10.314  11.203  66.956  0.00  0.00     0.037 H 
ATOM     92  H22 non d ame      -8.621  11.011  67.769  0.00  0.00     0.037 H 
BRANCH  90  93
ATOM     93  C17 non d ame      -9.330   9.323  66.656  0.00  0.00    -0.059 C 
ATOM     94  H23 non d ame      -9.998   8.539  67.012  0.00  0.00     0.038 H 
BRANCH  93  95
ATOM     95  C18 non d ame      -9.635   9.558  65.141  0.00  0.00    -0.073 C 
ATOM     96  H24 non d ame      -8.986   8.923  64.538  0.00  0.00     0.028 H 
ATOM     97  H25 non d ame     -10.677   9.311  64.938  0.00  0.00     0.028 H 
ATOM     98  H26 non d ame      -9.454  10.603  64.892  0.00  0.00     0.028 H 
ENDBRANCH  93  95
BRANCH  93  99
ATOM     99  C19 non d ame      -7.896   8.824  66.852  0.00  0.00    -0.073 C 
ATOM    100  H27 non d ame      -7.363   8.866  65.902  0.00  0.00     0.028 H 
ATOM    101  H28 non d ame      -7.389   9.455  67.582  0.00  0.00     0.028 H 
ATOM    102  H29 non d ame      -7.916   7.795  67.213  0.00  0.00     0.028 H 
ENDBRANCH  93  99
ENDBRANCH  90  93
ENDBRANCH   1  90
TORSDOF 26
ENDMDL
MODEL 9
REMARK VINA RESULT:      -7.1      3.217     11.325
REMARK  26 active torsions:
REMARK  status: ('A' for Active; 'I' for Inactive)
REMARK    1  A    between atoms: C2_2  and  C3_3 
REMARK    2  A    between atoms: C4_6  and  C5_7 
REMARK       I    between atoms: C5_7  and  N2_9 
REMARK    3  A    between atoms: N2_9  and  C6_10 
REMARK    4  A    between atoms: C6_10  and  C7_11 
REMARK    5  A    between atoms: C6_10  and  C8_13 
REMARK       I    between atoms: C7_11  and  N3_14 
REMARK    6  A    between atoms: N3_14  and  C9_15 
REMARK    7  A    between atoms: C9_15  and  C10_16 
REMARK    8  A    between atoms: C9_15  and  C11_18 
REMARK       I    between atoms: C10_16  and  N4_21 
REMARK    9  A    between atoms: C11_18  and  C12_19 
REMARK   10  A    between atoms: C11_18  and  C13_20 
REMARK   11  A    between atoms: N4_21  and  C14_22 
REMARK   12  A    between atoms: C14_22  and  C15_23 
REMARK   13  A    between atoms: C14_22  and  C16_25 
REMARK       I    between atoms: C15_23  and  N6_40 
REMARK   14  A    between atoms: C16_25  and  C17_26 
REMARK   15  A    between atoms: C17_26  and  C18_27 
REMARK   16  A    between atoms: C17_26  and  C19_28 
REMARK   17  A    between atoms: C20_29  and  C21_30 
REMARK   18  A    between atoms: C20_29  and  C24_33 
REMARK   19  A    between atoms: C20_29  and  N6_40 
REMARK   20  A    between atoms: C21_30  and  C22_31 
REMARK   21  A    between atoms: C22_31  and  C23_32 
REMARK   22  A    between atoms: C23_32  and  O8_43 
REMARK   23  A    between atoms: C24_33  and  C25_34 
REMARK   24  A    between atoms: C28_38  and  O6_39 
REMARK   25  A    between atoms: C29_42  and  O8_43 
REMARK   26  A    between atoms: C29_42  and  C35_49 
ROOT
ATOM      1  C14 non d ame      -9.869   9.144  66.653  0.00  0.00     0.089 C 
ATOM      2  H20 non d ame     -10.860   8.690  66.671  0.00  0.00     0.087 H 
ENDROOT
BRANCH   1   3
ATOM      3  N4  non d ame     -10.039  10.557  66.349  0.00  0.00    -0.346 N 
ATOM      4  C10 non d ame     -11.145  11.348  67.001  0.00  0.00     0.241 C 
ATOM      5  O4  non d ame     -11.888  10.825  67.764  0.00  0.00    -0.271 OA
ATOM      6  H19 non d ame      -9.398  10.983  65.695  0.00  0.00     0.163 HD
BRANCH   4   7
ATOM      7  C9  non d ame     -11.304  12.811  66.679  0.00  0.00     0.092 C 
ATOM      8  H11 non d ame     -12.350  13.093  66.798  0.00  0.00     0.088 H 
BRANCH   7   9
ATOM      9  N3  non d ame     -10.528  13.608  67.634  0.00  0.00    -0.346 N 
ATOM     10  C7  non d ame     -11.192  14.252  68.741  0.00  0.00     0.240 C 
ATOM     11  O3  non d ame     -12.349  14.140  68.877  0.00  0.00    -0.271 OA
ATOM     12  H10 non d ame      -9.530  13.716  67.528  0.00  0.00     0.163 HD
BRANCH  10  13
ATOM     13  C6  non d ame     -10.362  15.102  69.752  0.00  0.00     0.086 C 
ATOM     14  H6  non d ame      -9.718  14.493  70.387  0.00  0.00     0.086 H 
BRANCH  13  15
ATOM     15  N2  non d ame      -9.488  15.996  69.011  0.00  0.00    -0.343 N 
ATOM     16  C5  non d ame     -10.069  17.101  68.244  0.00  0.00     0.273 C 
ATOM     17  O2  non d ame     -11.241  17.259  68.228  0.00  0.00    -0.266 OA
ATOM     18  H5  non d ame      -8.489  15.852  69.028  0.00  0.00     0.163 HD
BRANCH  16  19
ATOM     19  C4  non d ame      -9.158  18.055  67.457  0.00  0.00     0.154 A 
ATOM     20  C1  non d ame      -8.323  19.089  67.989  0.00  0.00    -0.017 A 
ATOM     21  C2  non d ame      -7.698  19.667  66.862  0.00  0.00     0.077 A 
ATOM     22  H1  non d ame      -8.192  19.376  69.032  0.00  0.00     0.091 H 
ATOM     23  O1  non d ame      -8.129  19.032  65.811  0.00  0.00    -0.218 OA
ATOM     24  N1  non d ame      -8.982  18.087  66.133  0.00  0.00    -0.123 NA
BRANCH  21  25
ATOM     25  C3  non d ame      -6.704  20.821  66.875  0.00  0.00    -0.029 C 
ATOM     26  H2  non d ame      -5.720  20.456  66.580  0.00  0.00     0.036 H 
ATOM     27  H3  non d ame      -7.031  21.590  66.176  0.00  0.00     0.036 H 
ATOM     28  H4  non d ame      -6.649  21.242  67.879  0.00  0.00     0.036 H 
ENDBRANCH  21  25
ENDBRANCH  16  19
ENDBRANCH  13  15
BRANCH  13  29
ATOM     29  C8  non d ame     -11.295  15.899  70.628  0.00  0.00    -0.049 C 
ATOM     30  H7  non d ame     -11.838  15.225  71.289  0.00  0.00     0.030 H 
ATOM     31  H8  non d ame     -10.718  16.607  71.224  0.00  0.00     0.030 H 
ATOM     32  H9  non d ame     -12.003  16.443  70.002  0.00  0.00     0.030 H 
ENDBRANCH  13  29
ENDBRANCH  10  13
ENDBRANCH   7   9
BRANCH   7  33
ATOM     33  C11 non d ame     -10.784  13.084  65.237  0.00  0.00    -0.033 C 
ATOM     34  H12 non d ame      -9.937  12.421  65.062  0.00  0.00     0.042 H 
BRANCH  33  35
ATOM     35  C12 non d ame     -11.870  12.749  64.168  0.00  0.00    -0.071 C 
ATOM     36  H13 non d ame     -12.724  13.415  64.296  0.00  0.00     0.028 H 
ATOM     37  H14 non d ame     -11.452  12.884  63.171  0.00  0.00     0.028 H 
ATOM     38  H15 non d ame     -12.194  11.716  64.291  0.00  0.00     0.028 H 
ENDBRANCH  33  35
BRANCH  33  39
ATOM     39  C13 non d ame     -10.282  14.557  65.092  0.00  0.00    -0.071 C 
ATOM     40  H16 non d ame     -10.623  15.142  65.946  0.00  0.00     0.028 H 
ATOM     41  H17 non d ame      -9.192  14.568  65.056  0.00  0.00     0.028 H 
ATOM     42  H18 non d ame     -10.681  14.987  64.174  0.00  0.00     0.028 H 
ENDBRANCH  33  39
ENDBRANCH   7  33
ENDBRANCH   4   7
ENDBRANCH   1   3
BRANCH   1  43
ATOM     43  C15 non d ame      -9.139   9.016  68.021  0.00  0.00     0.240 C 
ATOM     44  O5  non d ame      -7.995   9.323  68.112  0.00  0.00    -0.271 OA
ATOM     45  N6  non d ame      -9.870   8.518  69.221  0.00  0.00    -0.355 N 
ATOM     46  H46 non d ame     -10.844   8.259  69.158  0.00  0.00     0.162 HD
BRANCH  45  47
ATOM     47  C20 non d ame      -9.163   8.404  70.515  0.00  0.00     0.013 C 
ATOM     48  H30 non d ame      -8.281   9.042  70.473  0.00  0.00     0.072 H 
BRANCH  47  49
ATOM     49  C21 non d ame      -8.750   6.966  70.733  0.00  0.00    -0.038 C 
ATOM     50  H31 non d ame      -8.793   6.807  71.810  0.00  0.00     0.036 H 
ATOM     51  H32 non d ame      -9.380   6.375  70.069  0.00  0.00     0.036 H 
BRANCH  49  52
ATOM     52  C22 non d ame      -7.291   6.691  70.309  0.00  0.00     0.018 C 
ATOM     53  H33 non d ame      -6.937   7.614  69.849  0.00  0.00     0.048 H 
ATOM     54  H34 non d ame      -6.794   6.299  71.197  0.00  0.00     0.048 H 
BRANCH  52  55
ATOM     55  C23 non d ame      -7.151   5.590  69.221  0.00  0.00     0.259 C 
ATOM     56  O7  non d ame      -6.971   4.457  69.529  0.00  0.00    -0.265 OA
BRANCH  55  57
ATOM     57  O8  non d ame      -7.229   5.954  67.848  0.00  0.00    -0.317 OA
BRANCH  57  58
ATOM     58  C29 non d ame      -6.333   5.228  67.001  0.00  0.00     0.052 C 
ATOM     59  H47 non d ame      -5.365   5.718  67.108  0.00  0.00     0.082 H 
ATOM     60  H48 non d ame      -6.447   4.181  67.280  0.00  0.00     0.082 H 
BRANCH  58  61
ATOM     61  C35 non d ame      -6.812   5.402  65.536  0.00  0.00    -0.034 A 
ATOM     62  C30 non d ame      -5.935   5.880  64.567  0.00  0.00    -0.075 A 
ATOM     63  C31 non d ame      -6.365   6.036  63.251  0.00  0.00    -0.082 A 
ATOM     64  H49 non d ame      -4.910   6.131  64.840  0.00  0.00     0.084 H 
ATOM     65  C32 non d ame      -7.681   5.715  62.904  0.00  0.00    -0.083 A 
ATOM     66  H50 non d ame      -5.675   6.408  62.494  0.00  0.00     0.083 H 
ATOM     67  C33 non d ame      -8.554   5.241  63.874  0.00  0.00    -0.082 A 
ATOM     68  H51 non d ame      -8.025   5.833  61.877  0.00  0.00     0.083 H 
ATOM     69  C34 non d ame      -8.127   5.082  65.191  0.00  0.00    -0.075 A 
ATOM     70  H52 non d ame      -9.580   4.994  63.601  0.00  0.00     0.083 H 
ATOM     71  H53 non d ame      -8.818   4.709  65.947  0.00  0.00     0.084 H 
ENDBRANCH  58  61
ENDBRANCH  57  58
ENDBRANCH  55  57
ENDBRANCH  52  55
ENDBRANCH  49  52
ENDBRANCH  47  49
BRANCH  47  72
ATOM     72  C24 non d ame     -10.085   8.847  71.649  0.00  0.00    -0.039 C 
ATOM     73  H35 non d ame      -9.910   8.138  72.459  0.00  0.00     0.036 H 
ATOM     74  H36 non d ame      -9.875   9.906  71.797  0.00  0.00     0.036 H 
BRANCH  72  75
ATOM     75  C25 non d ame     -11.629   8.724  71.240  0.00  0.00    -0.001 C 
ATOM     76  C26 non d ame     -12.307  10.220  71.156  0.00  0.00    -0.035 C 
ATOM     77  C27 non d ame     -13.440  10.227  71.898  0.00  0.00     0.085 C 
ATOM     78  H38 non d ame     -11.669  10.947  71.658  0.00  0.00     0.036 H 
ATOM     79  H39 non d ame     -12.663  10.413  70.144  0.00  0.00     0.036 H 
ATOM     80  N5  non d ame     -13.424   8.975  72.741  0.00  0.00    -0.049 N 
ATOM     81  H40 non d ame     -13.356  11.097  72.551  0.00  0.00     0.075 H 
ATOM     82  H41 non d ame     -14.258  10.161  71.181  0.00  0.00     0.075 H 
ATOM     83  C28 non d ame     -12.287   8.024  72.102  0.00  0.00     0.193 C 
ATOM     84  H42 non d ame     -13.127   9.256  73.665  0.00  0.00     0.280 HD
ATOM     85  H43 non d ame     -14.323   8.532  72.613  0.00  0.00     0.280 HD
ATOM     86  H44 non d ame     -12.564   7.165  71.491  0.00  0.00     0.129 H 
ATOM     87  H37 non d ame     -11.778   8.063  70.385  0.00  0.00     0.046 H 
BRANCH  83  88
ATOM     88  O6  non d ame     -11.443   7.505  73.132  0.00  0.00    -0.369 OA
ATOM     89  H45 non d ame     -10.528   7.708  72.927  0.00  0.00     0.212 HD
ENDBRANCH  83  88
ENDBRANCH  72  75
ENDBRANCH  47  72
ENDBRANCH  45  47
ENDBRANCH   1  43
BRANCH   1  90
ATOM     90  C16 non d ame      -9.027   8.500  65.563  0.00  0.00    -0.035 C 
ATOM     91  H21 non d ame      -8.230   7.973  66.087  0.00  0.00     0.037 H 
ATOM     92  H22 non d ame      -9.733   7.944  64.945  0.00  0.00     0.037 H 
BRANCH  90  93
ATOM     93  C17 non d ame      -8.329   9.530  64.619  0.00  0.00    -0.059 C 
ATOM     94  H23 non d ame      -8.702  10.521  64.879  0.00  0.00     0.038 H 
BRANCH  93  95
ATOM     95  C18 non d ame      -6.778   9.541  64.803  0.00  0.00    -0.073 C 
ATOM     96  H24 non d ame      -6.532   9.252  65.825  0.00  0.00     0.028 H 
ATOM     97  H25 non d ame      -6.325   8.836  64.106  0.00  0.00     0.028 H 
ATOM     98  H26 non d ame      -6.396  10.543  64.606  0.00  0.00     0.028 H 
ENDBRANCH  93  95
BRANCH  93  99
ATOM     99  C19 non d ame      -8.703   9.273  63.157  0.00  0.00    -0.073 C 
ATOM    100  H27 non d ame      -7.867   8.792  62.648  0.00  0.00     0.028 H 
ATOM    101  H28 non d ame      -9.577   8.622  63.115  0.00  0.00     0.028 H 
ATOM    102  H29 non d ame      -8.931  10.219  62.668  0.00  0.00     0.028 H 
ENDBRANCH  93  99
ENDBRANCH  90  93
ENDBRANCH   1  90
TORSDOF 26
ENDMDL
MODEL 10
REMARK VINA RESULT:      -7.1      3.284      9.315
REMARK  26 active torsions:
REMARK  status: ('A' for Active; 'I' for Inactive)
REMARK    1  A    between atoms: C2_2  and  C3_3 
REMARK    2  A    between atoms: C4_6  and  C5_7 
REMARK       I    between atoms: C5_7  and  N2_9 
REMARK    3  A    between atoms: N2_9  and  C6_10 
REMARK    4  A    between atoms: C6_10  and  C7_11 
REMARK    5  A    between atoms: C6_10  and  C8_13 
REMARK       I    between atoms: C7_11  and  N3_14 
REMARK    6  A    between atoms: N3_14  and  C9_15 
REMARK    7  A    between atoms: C9_15  and  C10_16 
REMARK    8  A    between atoms: C9_15  and  C11_18 
REMARK       I    between atoms: C10_16  and  N4_21 
REMARK    9  A    between atoms: C11_18  and  C12_19 
REMARK   10  A    between atoms: C11_18  and  C13_20 
REMARK   11  A    between atoms: N4_21  and  C14_22 
REMARK   12  A    between atoms: C14_22  and  C15_23 
REMARK   13  A    between atoms: C14_22  and  C16_25 
REMARK       I    between atoms: C15_23  and  N6_40 
REMARK   14  A    between atoms: C16_25  and  C17_26 
REMARK   15  A    between atoms: C17_26  and  C18_27 
REMARK   16  A    between atoms: C17_26  and  C19_28 
REMARK   17  A    between atoms: C20_29  and  C21_30 
REMARK   18  A    between atoms: C20_29  and  C24_33 
REMARK   19  A    between atoms: C20_29  and  N6_40 
REMARK   20  A    between atoms: C21_30  and  C22_31 
REMARK   21  A    between atoms: C22_31  and  C23_32 
REMARK   22  A    between atoms: C23_32  and  O8_43 
REMARK   23  A    between atoms: C24_33  and  C25_34 
REMARK   24  A    between atoms: C28_38  and  O6_39 
REMARK   25  A    between atoms: C29_42  and  O8_43 
REMARK   26  A    between atoms: C29_42  and  C35_49 
ROOT
ATOM      1  C14 non d ame      -6.742  14.870  67.614  0.00  0.00     0.089 C 
ATOM      2  H20 non d ame      -6.039  15.193  66.846  0.00  0.00     0.087 H 
ENDROOT
BRANCH   1   3
ATOM      3  N4  non d ame      -8.031  15.471  67.310  0.00  0.00    -0.346 N 
ATOM      4  C10 non d ame      -8.123  16.629  66.348  0.00  0.00     0.241 C 
ATOM      5  O4  non d ame      -7.145  17.060  65.833  0.00  0.00    -0.271 OA
ATOM      6  H19 non d ame      -8.851  15.091  67.761  0.00  0.00     0.163 HD
BRANCH   4   7
ATOM      7  C9  non d ame      -9.467  17.236  66.040  0.00  0.00     0.092 C 
ATOM      8  H11 non d ame      -9.614  17.251  64.960  0.00  0.00     0.088 H 
BRANCH   7   9
ATOM      9  N3  non d ame     -10.525  16.396  66.609  0.00  0.00    -0.346 N 
ATOM     10  C7  non d ame     -10.747  15.068  66.093  0.00  0.00     0.240 C 
ATOM     11  O3  non d ame     -10.085  14.659  65.219  0.00  0.00    -0.271 OA
ATOM     12  H10 non d ame     -11.106  16.735  67.363  0.00  0.00     0.163 HD
BRANCH  10  13
ATOM     13  C6  non d ame     -11.877  14.180  66.701  0.00  0.00     0.086 C 
ATOM     14  H6  non d ame     -11.565  13.147  66.855  0.00  0.00     0.086 H 
BRANCH  13  15
ATOM     15  N2  non d ame     -12.237  14.704  68.008  0.00  0.00    -0.343 N 
ATOM     16  C5  non d ame     -11.262  14.650  69.100  0.00  0.00     0.273 C 
ATOM     17  O2  non d ame     -10.193  14.180  68.918  0.00  0.00    -0.266 OA
ATOM     18  H5  non d ame     -13.153  15.102  68.156  0.00  0.00     0.163 HD
BRANCH  16  19
ATOM     19  C4  non d ame     -11.628  15.202  70.487  0.00  0.00     0.154 A 
ATOM     20  C1  non d ame     -12.059  14.455  71.629  0.00  0.00    -0.017 A 
ATOM     21  C2  non d ame     -12.265  15.422  72.639  0.00  0.00     0.077 A 
ATOM     22  H1  non d ame     -12.200  13.378  71.712  0.00  0.00     0.091 H 
ATOM     23  O1  non d ame     -11.981  16.584  72.127  0.00  0.00    -0.218 OA
ATOM     24  N1  non d ame     -11.608  16.481  70.872  0.00  0.00    -0.123 NA
BRANCH  21  25
ATOM     25  C3  non d ame     -12.730  15.152  74.063  0.00  0.00    -0.029 C 
ATOM     26  H2  non d ame     -11.863  15.030  74.713  0.00  0.00     0.036 H 
ATOM     27  H3  non d ame     -13.332  15.991  74.414  0.00  0.00     0.036 H 
ATOM     28  H4  non d ame     -13.330  14.242  74.084  0.00  0.00     0.036 H 
ENDBRANCH  21  25
ENDBRANCH  16  19
ENDBRANCH  13  15
BRANCH  13  29
ATOM     29  C8  non d ame     -13.078  14.196  65.790  0.00  0.00    -0.049 C 
ATOM     30  H7  non d ame     -12.818  13.731  64.839  0.00  0.00     0.030 H 
ATOM     31  H8  non d ame     -13.894  13.642  66.254  0.00  0.00     0.030 H 
ATOM     32  H9  non d ame     -13.389  15.226  65.618  0.00  0.00     0.030 H 
ENDBRANCH  13  29
ENDBRANCH  10  13
ENDBRANCH   7   9
BRANCH   7  33
ATOM     33  C11 non d ame      -9.547  18.660  66.662  0.00  0.00    -0.033 C 
ATOM     34  H12 non d ame      -8.546  19.090  66.631  0.00  0.00     0.042 H 
BRANCH  33  35
ATOM     35  C12 non d ame     -10.483  19.592  65.831  0.00  0.00    -0.071 C 
ATOM     36  H13 non d ame     -10.624  20.534  66.362  0.00  0.00     0.028 H 
ATOM     37  H14 non d ame     -10.030  19.788  64.859  0.00  0.00     0.028 H 
ATOM     38  H15 non d ame     -11.448  19.106  65.691  0.00  0.00     0.028 H 
ENDBRANCH  33  35
BRANCH  33  39
ATOM     39  C13 non d ame      -9.998  18.593  68.157  0.00  0.00    -0.071 C 
ATOM     40  H16 non d ame      -9.957  19.590  68.594  0.00  0.00     0.028 H 
ATOM     41  H17 non d ame     -11.019  18.214  68.212  0.00  0.00     0.028 H 
ATOM     42  H18 non d ame      -9.333  17.927  68.707  0.00  0.00     0.028 H 
ENDBRANCH  33  39
ENDBRANCH   7  33
ENDBRANCH   4   7
ENDBRANCH   1   3
BRANCH   1  43
ATOM     43  C15 non d ame      -6.911  13.323  67.642  0.00  0.00     0.240 C 
ATOM     44  O5  non d ame      -6.062  12.645  68.122  0.00  0.00    -0.271 OA
ATOM     45  N6  non d ame      -8.136  12.689  67.078  0.00  0.00    -0.355 N 
ATOM     46  H46 non d ame      -8.866  13.256  66.672  0.00  0.00     0.162 HD
BRANCH  45  47
ATOM     47  C20 non d ame      -8.283  11.218  67.113  0.00  0.00     0.013 C 
ATOM     48  H30 non d ame      -7.624  10.834  67.892  0.00  0.00     0.072 H 
BRANCH  47  49
ATOM     49  C21 non d ame      -7.886  10.644  65.771  0.00  0.00    -0.038 C 
ATOM     50  H31 non d ame      -7.448  11.473  65.214  0.00  0.00     0.036 H 
ATOM     51  H32 non d ame      -7.288   9.760  65.995  0.00  0.00     0.036 H 
BRANCH  49  52
ATOM     52  C22 non d ame      -9.097  10.156  64.947  0.00  0.00     0.018 C 
ATOM     53  H33 non d ame      -9.056   9.067  64.979  0.00  0.00     0.048 H 
ATOM     54  H34 non d ame      -9.962  10.681  65.354  0.00  0.00     0.048 H 
BRANCH  52  55
ATOM     55  C23 non d ame      -9.029  10.543  63.444  0.00  0.00     0.259 C 
ATOM     56  O7  non d ame     -10.022  10.777  62.836  0.00  0.00    -0.265 OA
BRANCH  55  57
ATOM     57  O8  non d ame      -7.764  10.603  62.797  0.00  0.00    -0.317 OA
BRANCH  57  58
ATOM     58  C29 non d ame      -7.576   9.603  61.791  0.00  0.00     0.052 C 
ATOM     59  H47 non d ame      -8.572   9.379  61.408  0.00  0.00     0.082 H 
ATOM     60  H48 non d ame      -6.812   9.997  61.122  0.00  0.00     0.082 H 
BRANCH  58  61
ATOM     61  C35 non d ame      -7.017   8.330  62.479  0.00  0.00    -0.034 A 
ATOM     62  C30 non d ame      -7.860   7.256  62.749  0.00  0.00    -0.075 A 
ATOM     63  C31 non d ame      -7.357   6.113  63.368  0.00  0.00    -0.082 A 
ATOM     64  H49 non d ame      -8.913   7.311  62.476  0.00  0.00     0.084 H 
ATOM     65  C32 non d ame      -6.006   6.046  63.719  0.00  0.00    -0.083 A 
ATOM     66  H50 non d ame      -8.020   5.272  63.576  0.00  0.00     0.083 H 
ATOM     67  C33 non d ame      -5.170   7.121  63.451  0.00  0.00    -0.082 A 
ATOM     68  H51 non d ame      -5.605   5.155  64.203  0.00  0.00     0.083 H 
ATOM     69  C34 non d ame      -5.667   8.265  62.831  0.00  0.00    -0.075 A 
ATOM     70  H52 non d ame      -4.117   7.066  63.728  0.00  0.00     0.083 H 
ATOM     71  H53 non d ame      -5.004   9.105  62.622  0.00  0.00     0.084 H 
ENDBRANCH  58  61
ENDBRANCH  57  58
ENDBRANCH  55  57
ENDBRANCH  52  55
ENDBRANCH  49  52
ENDBRANCH  47  49
BRANCH  47  72
ATOM     72  C24 non d ame      -9.733  10.851  67.416  0.00  0.00    -0.039 C 
ATOM     73  H35 non d ame     -10.326  11.699  67.072  0.00  0.00     0.036 H 
ATOM     74  H36 non d ame      -9.882   9.866  66.972  0.00  0.00     0.036 H 
BRANCH  72  75
ATOM     75  C25 non d ame      -9.991  10.703  68.991  0.00  0.00    -0.001 C 
ATOM     76  C26 non d ame      -9.283   9.326  69.547  0.00  0.00    -0.035 C 
ATOM     77  C27 non d ame     -10.199   8.617  70.248  0.00  0.00     0.085 C 
ATOM     78  H38 non d ame      -9.037   8.670  68.713  0.00  0.00     0.036 H 
ATOM     79  H39 non d ame      -8.525   9.570  70.291  0.00  0.00     0.036 H 
ATOM     80  N5  non d ame     -11.550   9.221  69.947  0.00  0.00    -0.049 N 
ATOM     81  H40 non d ame     -10.162   7.607  69.839  0.00  0.00     0.075 H 
ATOM     82  H41 non d ame      -9.959   8.789  71.297  0.00  0.00     0.075 H 
ATOM     83  C28 non d ame     -11.253  10.649  69.255  0.00  0.00     0.193 C 
ATOM     84  H42 non d ame     -11.987   8.618  69.265  0.00  0.00     0.280 HD
ATOM     85  H43 non d ame     -11.996   9.382  70.839  0.00  0.00     0.280 HD
ATOM     86  H44 non d ame     -11.377  11.574  69.819  0.00  0.00     0.129 H 
ATOM     87  H37 non d ame      -9.777  11.624  69.532  0.00  0.00     0.046 H 
BRANCH  83  88
ATOM     88  O6  non d ame     -12.056  10.805  68.084  0.00  0.00    -0.369 OA
ATOM     89  H45 non d ame     -12.832  10.244  68.151  0.00  0.00     0.212 HD
ENDBRANCH  83  88
ENDBRANCH  72  75
ENDBRANCH  47  72
ENDBRANCH  45  47
ENDBRANCH   1  43
BRANCH   1  90
ATOM     90  C16 non d ame      -6.276  15.357  68.977  0.00  0.00    -0.035 C 
ATOM     91  H21 non d ame      -7.186  15.627  69.514  0.00  0.00     0.037 H 
ATOM     92  H22 non d ame      -5.630  14.567  69.361  0.00  0.00     0.037 H 
BRANCH  90  93
ATOM     93  C17 non d ame      -5.401  16.650  68.914  0.00  0.00    -0.059 C 
ATOM     94  H23 non d ame      -5.053  16.765  67.888  0.00  0.00     0.038 H 
BRANCH  93  95
ATOM     95  C18 non d ame      -6.215  17.931  69.287  0.00  0.00    -0.073 C 
ATOM     96  H24 non d ame      -6.416  17.933  70.358  0.00  0.00     0.028 H 
ATOM     97  H25 non d ame      -5.638  18.817  69.023  0.00  0.00     0.028 H 
ATOM     98  H26 non d ame      -7.158  17.934  68.740  0.00  0.00     0.028 H 
ENDBRANCH  93  95
BRANCH  93  99
ATOM     99  C19 non d ame      -4.162  16.515  69.802  0.00  0.00    -0.073 C 
ATOM    100  H27 non d ame      -3.557  17.419  69.723  0.00  0.00     0.028 H 
ATOM    101  H28 non d ame      -4.470  16.374  70.838  0.00  0.00     0.028 H 
ATOM    102  H29 non d ame      -3.575  15.655  69.479  0.00  0.00     0.028 H 
ENDBRANCH  93  99
ENDBRANCH  90  93
ENDBRANCH   1  90
TORSDOF 26
ENDMDL
MODEL 11
REMARK VINA RESULT:      -7.1      3.771      7.094
REMARK  26 active torsions:
REMARK  status: ('A' for Active; 'I' for Inactive)
REMARK    1  A    between atoms: C2_2  and  C3_3 
REMARK    2  A    between atoms: C4_6  and  C5_7 
REMARK       I    between atoms: C5_7  and  N2_9 
REMARK    3  A    between atoms: N2_9  and  C6_10 
REMARK    4  A    between atoms: C6_10  and  C7_11 
REMARK    5  A    between atoms: C6_10  and  C8_13 
REMARK       I    between atoms: C7_11  and  N3_14 
REMARK    6  A    between atoms: N3_14  and  C9_15 
REMARK    7  A    between atoms: C9_15  and  C10_16 
REMARK    8  A    between atoms: C9_15  and  C11_18 
REMARK       I    between atoms: C10_16  and  N4_21 
REMARK    9  A    between atoms: C11_18  and  C12_19 
REMARK   10  A    between atoms: C11_18  and  C13_20 
REMARK   11  A    between atoms: N4_21  and  C14_22 
REMARK   12  A    between atoms: C14_22  and  C15_23 
REMARK   13  A    between atoms: C14_22  and  C16_25 
REMARK       I    between atoms: C15_23  and  N6_40 
REMARK   14  A    between atoms: C16_25  and  C17_26 
REMARK   15  A    between atoms: C17_26  and  C18_27 
REMARK   16  A    between atoms: C17_26  and  C19_28 
REMARK   17  A    between atoms: C20_29  and  C21_30 
REMARK   18  A    between atoms: C20_29  and  C24_33 
REMARK   19  A    between atoms: C20_29  and  N6_40 
REMARK   20  A    between atoms: C21_30  and  C22_31 
REMARK   21  A    between atoms: C22_31  and  C23_32 
REMARK   22  A    between atoms: C23_32  and  O8_43 
REMARK   23  A    between atoms: C24_33  and  C25_34 
REMARK   24  A    between atoms: C28_38  and  O6_39 
REMARK   25  A    between atoms: C29_42  and  O8_43 
REMARK   26  A    between atoms: C29_42  and  C35_49 
ROOT
ATOM      1  C14 non d ame     -11.989  14.005  69.578  0.00  0.00     0.089 C 
ATOM      2  H20 non d ame     -12.871  13.420  69.316  0.00  0.00     0.087 H 
ENDROOT
BRANCH   1   3
ATOM      3  N4  non d ame     -10.840  13.114  69.528  0.00  0.00    -0.346 N 
ATOM      4  C10 non d ame     -10.922  11.806  68.782  0.00  0.00     0.241 C 
ATOM      5  O4  non d ame     -11.926  11.491  68.231  0.00  0.00    -0.271 OA
ATOM      6  H19 non d ame      -9.996  13.399  70.005  0.00  0.00     0.163 HD
BRANCH   4   7
ATOM      7  C9  non d ame      -9.721  10.899  68.735  0.00  0.00     0.092 C 
ATOM      8  H11 non d ame      -9.679  10.313  69.654  0.00  0.00     0.088 H 
BRANCH   7   9
ATOM      9  N3  non d ame      -9.865   9.953  67.625  0.00  0.00    -0.346 N 
ATOM     10  C7  non d ame      -9.595   8.551  67.832  0.00  0.00     0.240 C 
ATOM     11  O3  non d ame      -9.259   8.168  68.886  0.00  0.00    -0.271 OA
ATOM     12  H10 non d ame     -10.153  10.269  66.710  0.00  0.00     0.163 HD
BRANCH  10  13
ATOM     13  C6  non d ame      -9.747   7.550  66.645  0.00  0.00     0.086 C 
ATOM     14  H6  non d ame      -9.975   8.046  65.702  0.00  0.00     0.086 H 
BRANCH  13  15
ATOM     15  N2  non d ame      -8.488   6.850  66.454  0.00  0.00    -0.343 N 
ATOM     16  C5  non d ame      -7.991   6.616  65.097  0.00  0.00     0.273 C 
ATOM     17  O2  non d ame      -8.614   6.992  64.165  0.00  0.00    -0.266 OA
ATOM     18  H5  non d ame      -7.964   6.530  67.256  0.00  0.00     0.163 HD
BRANCH  16  19
ATOM     19  C4  non d ame      -6.660   5.879  64.880  0.00  0.00     0.154 A 
ATOM     20  C1  non d ame      -5.976   5.038  65.814  0.00  0.00    -0.017 A 
ATOM     21  C2  non d ame      -4.814   4.611  65.134  0.00  0.00     0.077 A 
ATOM     22  H1  non d ame      -6.277   4.777  66.829  0.00  0.00     0.091 H 
ATOM     23  O1  non d ame      -4.838   5.148  63.949  0.00  0.00    -0.218 OA
ATOM     24  N1  non d ame      -5.906   5.893  63.778  0.00  0.00    -0.123 NA
BRANCH  21  25
ATOM     25  C3  non d ame      -3.733   3.690  65.686  0.00  0.00    -0.029 C 
ATOM     26  H2  non d ame      -2.913   4.289  66.083  0.00  0.00     0.036 H 
ATOM     27  H3  non d ame      -4.152   3.074  66.481  0.00  0.00     0.036 H 
ATOM     28  H4  non d ame      -3.360   3.048  64.888  0.00  0.00     0.036 H 
ENDBRANCH  21  25
ENDBRANCH  16  19
ENDBRANCH  13  15
BRANCH  13  29
ATOM     29  C8  non d ame     -10.845   6.563  66.954  0.00  0.00    -0.049 C 
ATOM     30  H7  non d ame     -10.413   5.666  67.399  0.00  0.00     0.030 H 
ATOM     31  H8  non d ame     -11.550   7.012  67.654  0.00  0.00     0.030 H 
ATOM     32  H9  non d ame     -11.364   6.298  66.034  0.00  0.00     0.030 H 
ENDBRANCH  13  29
ENDBRANCH  10  13
ENDBRANCH   7   9
BRANCH   7  33
ATOM     33  C11 non d ame      -8.435  11.750  68.524  0.00  0.00    -0.033 C 
ATOM     34  H12 non d ame      -8.488  12.599  69.206  0.00  0.00     0.042 H 
BRANCH  33  35
ATOM     35  C12 non d ame      -7.151  10.939  68.882  0.00  0.00    -0.071 C 
ATOM     36  H13 non d ame      -6.433  11.017  68.066  0.00  0.00     0.028 H 
ATOM     37  H14 non d ame      -6.709  11.343  69.793  0.00  0.00     0.028 H 
ATOM     38  H15 non d ame      -7.414   9.894  69.038  0.00  0.00     0.028 H 
ENDBRANCH  33  35
BRANCH  33  39
ATOM     39  C13 non d ame      -8.366  12.306  67.065  0.00  0.00    -0.071 C 
ATOM     40  H16 non d ame      -7.538  13.010  66.983  0.00  0.00     0.028 H 
ATOM     41  H17 non d ame      -8.211  11.481  66.369  0.00  0.00     0.028 H 
ATOM     42  H18 non d ame      -9.300  12.813  66.825  0.00  0.00     0.028 H 
ENDBRANCH  33  39
ENDBRANCH   7  33
ENDBRANCH   4   7
ENDBRANCH   1   3
BRANCH   1  43
ATOM     43  C15 non d ame     -11.749  15.180  68.587  0.00  0.00     0.240 C 
ATOM     44  O5  non d ame     -12.097  16.279  68.878  0.00  0.00    -0.271 OA
ATOM     45  N6  non d ame     -11.075  14.937  67.280  0.00  0.00    -0.355 N 
ATOM     46  H46 non d ame     -10.771  14.009  67.024  0.00  0.00     0.162 HD
BRANCH  45  47
ATOM     47  C20 non d ame     -10.853  16.065  66.349  0.00  0.00     0.013 C 
ATOM     48  H30 non d ame     -11.616  16.818  66.546  0.00  0.00     0.072 H 
BRANCH  47  49
ATOM     49  C21 non d ame     -10.971  15.569  64.926  0.00  0.00    -0.038 C 
ATOM     50  H31 non d ame     -12.040  15.490  64.729  0.00  0.00     0.036 H 
ATOM     51  H32 non d ame     -10.355  16.241  64.328  0.00  0.00     0.036 H 
BRANCH  49  52
ATOM     52  C22 non d ame     -10.385  14.153  64.734  0.00  0.00     0.018 C 
ATOM     53  H33 non d ame      -9.822  14.190  63.801  0.00  0.00     0.048 H 
ATOM     54  H34 non d ame      -9.876  13.915  65.668  0.00  0.00     0.048 H 
BRANCH  52  55
ATOM     55  C23 non d ame     -11.463  13.051  64.540  0.00  0.00     0.259 C 
ATOM     56  O7  non d ame     -12.485  13.093  65.145  0.00  0.00    -0.265 OA
BRANCH  55  57
ATOM     57  O8  non d ame     -11.210  11.979  63.639  0.00  0.00    -0.317 OA
BRANCH  57  58
ATOM     58  C29 non d ame     -10.593  10.841  64.247  0.00  0.00     0.052 C 
ATOM     59  H47 non d ame     -10.462  11.102  65.297  0.00  0.00     0.082 H 
ATOM     60  H48 non d ame     -11.212   9.988  63.972  0.00  0.00     0.082 H 
BRANCH  58  61
ATOM     61  C35 non d ame      -9.191  10.657  63.607  0.00  0.00    -0.034 A 
ATOM     62  C30 non d ame      -8.975  11.028  62.284  0.00  0.00    -0.075 A 
ATOM     63  C31 non d ame      -7.716  10.862  61.709  0.00  0.00    -0.082 A 
ATOM     64  H49 non d ame      -9.792  11.448  61.697  0.00  0.00     0.084 H 
ATOM     65  C32 non d ame      -6.671  10.322  62.462  0.00  0.00    -0.083 A 
ATOM     66  H50 non d ame      -7.550  11.156  60.672  0.00  0.00     0.083 H 
ATOM     67  C33 non d ame      -6.892   9.950  63.781  0.00  0.00    -0.082 A 
ATOM     68  H51 non d ame      -5.683  10.189  62.021  0.00  0.00     0.083 H 
ATOM     69  C34 non d ame      -8.148  10.116  64.361  0.00  0.00    -0.075 A 
ATOM     70  H52 non d ame      -6.074   9.526  64.366  0.00  0.00     0.083 H 
ATOM     71  H53 non d ame      -8.313   9.822  65.398  0.00  0.00     0.084 H 
ENDBRANCH  58  61
ENDBRANCH  57  58
ENDBRANCH  55  57
ENDBRANCH  52  55
ENDBRANCH  49  52
ENDBRANCH  47  49
BRANCH  47  72
ATOM     72  C24 non d ame      -9.460  16.650  66.572  0.00  0.00    -0.039 C 
ATOM     73  H35 non d ame      -8.933  15.920  67.187  0.00  0.00     0.036 H 
ATOM     74  H36 non d ame      -9.086  16.895  65.577  0.00  0.00     0.036 H 
BRANCH  72  75
ATOM     75  C25 non d ame      -9.517  18.017  67.405  0.00  0.00    -0.001 C 
ATOM     76  C26 non d ame      -9.001  19.266  66.468  0.00  0.00    -0.035 C 
ATOM     77  C27 non d ame      -8.047  19.952  67.143  0.00  0.00     0.085 C 
ATOM     78  H38 non d ame      -8.471  18.885  65.596  0.00  0.00     0.036 H 
ATOM     79  H39 non d ame      -9.801  19.996  66.344  0.00  0.00     0.036 H 
ATOM     80  N5  non d ame      -7.634  19.096  68.316  0.00  0.00    -0.049 N 
ATOM     81  H40 non d ame      -7.207  20.039  66.453  0.00  0.00     0.075 H 
ATOM     82  H41 non d ame      -8.542  20.849  67.515  0.00  0.00     0.075 H 
ATOM     83  C28 non d ame      -8.768  17.956  68.455  0.00  0.00     0.193 C 
ATOM     84  H42 non d ame      -6.764  18.654  68.055  0.00  0.00     0.280 HD
ATOM     85  H43 non d ame      -7.674  19.691  69.132  0.00  0.00     0.280 HD
ATOM     86  H44 non d ame      -9.522  18.019  69.240  0.00  0.00     0.129 H 
ATOM     87  H37 non d ame     -10.468  18.146  67.923  0.00  0.00     0.046 H 
BRANCH  83  88
ATOM     88  O6  non d ame      -8.161  16.673  68.610  0.00  0.00    -0.369 OA
ATOM     89  H45 non d ame      -7.228  16.732  68.394  0.00  0.00     0.212 HD
ENDBRANCH  83  88
ENDBRANCH  72  75
ENDBRANCH  47  72
ENDBRANCH  45  47
ENDBRANCH   1  43
BRANCH   1  90
ATOM     90  C16 non d ame     -12.134  14.549  70.991  0.00  0.00    -0.035 C 
ATOM     91  H21 non d ame     -11.496  13.919  71.610  0.00  0.00     0.037 H 
ATOM     92  H22 non d ame     -11.932  15.617  70.911  0.00  0.00     0.037 H 
BRANCH  90  93
ATOM     93  C17 non d ame     -13.579  14.415  71.568  0.00  0.00    -0.059 C 
ATOM     94  H23 non d ame     -14.279  14.537  70.741  0.00  0.00     0.038 H 
BRANCH  93  95
ATOM     95  C18 non d ame     -13.833  13.010  72.203  0.00  0.00    -0.073 C 
ATOM     96  H24 non d ame     -13.759  13.084  73.288  0.00  0.00     0.028 H 
ATOM     97  H25 non d ame     -14.828  12.662  71.928  0.00  0.00     0.028 H 
ATOM     98  H26 non d ame     -13.087  12.306  71.835  0.00  0.00     0.028 H 
ENDBRANCH  93  95
BRANCH  93  99
ATOM     99  C19 non d ame     -13.870  15.529  72.577  0.00  0.00    -0.073 C 
ATOM    100  H27 non d ame     -14.457  15.127  73.404  0.00  0.00     0.028 H 
ATOM    101  H28 non d ame     -12.929  15.927  72.960  0.00  0.00     0.028 H 
ATOM    102  H29 non d ame     -14.429  16.326  72.088  0.00  0.00     0.028 H 
ENDBRANCH  93  99
ENDBRANCH  90  93
ENDBRANCH   1  90
TORSDOF 26
ENDMDL
MODEL 12
REMARK VINA RESULT:      -7.1      3.435      6.924
REMARK  26 active torsions:
REMARK  status: ('A' for Active; 'I' for Inactive)
REMARK    1  A    between atoms: C2_2  and  C3_3 
REMARK    2  A    between atoms: C4_6  and  C5_7 
REMARK       I    between atoms: C5_7  and  N2_9 
REMARK    3  A    between atoms: N2_9  and  C6_10 
REMARK    4  A    between atoms: C6_10  and  C7_11 
REMARK    5  A    between atoms: C6_10  and  C8_13 
REMARK       I    between atoms: C7_11  and  N3_14 
REMARK    6  A    between atoms: N3_14  and  C9_15 
REMARK    7  A    between atoms: C9_15  and  C10_16 
REMARK    8  A    between atoms: C9_15  and  C11_18 
REMARK       I    between atoms: C10_16  and  N4_21 
REMARK    9  A    between atoms: C11_18  and  C12_19 
REMARK   10  A    between atoms: C11_18  and  C13_20 
REMARK   11  A    between atoms: N4_21  and  C14_22 
REMARK   12  A    between atoms: C14_22  and  C15_23 
REMARK   13  A    between atoms: C14_22  and  C16_25 
REMARK       I    between atoms: C15_23  and  N6_40 
REMARK   14  A    between atoms: C16_25  and  C17_26 
REMARK   15  A    between atoms: C17_26  and  C18_27 
REMARK   16  A    between atoms: C17_26  and  C19_28 
REMARK   17  A    between atoms: C20_29  and  C21_30 
REMARK   18  A    between atoms: C20_29  and  C24_33 
REMARK   19  A    between atoms: C20_29  and  N6_40 
REMARK   20  A    between atoms: C21_30  and  C22_31 
REMARK   21  A    between atoms: C22_31  and  C23_32 
REMARK   22  A    between atoms: C23_32  and  O8_43 
REMARK   23  A    between atoms: C24_33  and  C25_34 
REMARK   24  A    between atoms: C28_38  and  O6_39 
REMARK   25  A    between atoms: C29_42  and  O8_43 
REMARK   26  A    between atoms: C29_42  and  C35_49 
ROOT
ATOM      1  C14 non d ame      -8.466  10.181  65.931  0.00  0.00     0.089 C 
ATOM      2  H20 non d ame      -7.660  10.334  66.649  0.00  0.00     0.087 H 
ENDROOT
BRANCH   1   3
ATOM      3  N4  non d ame      -8.419   8.789  65.508  0.00  0.00    -0.346 N 
ATOM      4  C10 non d ame      -7.094   8.102  65.297  0.00  0.00     0.241 C 
ATOM      5  O4  non d ame      -6.078   8.690  65.471  0.00  0.00    -0.271 OA
ATOM      6  H19 non d ame      -9.295   8.307  65.363  0.00  0.00     0.163 HD
BRANCH   4   7
ATOM      7  C9  non d ame      -7.064   6.659  64.865  0.00  0.00     0.092 C 
ATOM      8  H11 non d ame      -6.219   6.160  65.340  0.00  0.00     0.088 H 
BRANCH   7   9
ATOM      9  N3  non d ame      -8.281   5.985  65.327  0.00  0.00    -0.346 N 
ATOM     10  C7  non d ame      -8.197   4.958  66.336  0.00  0.00     0.240 C 
ATOM     11  O3  non d ame      -7.158   4.661  66.786  0.00  0.00    -0.271 OA
ATOM     12  H10 non d ame      -9.184   6.229  64.946  0.00  0.00     0.163 HD
BRANCH  10  13
ATOM     13  C6  non d ame      -9.496   4.242  66.821  0.00  0.00     0.086 C 
ATOM     14  H6  non d ame      -9.324   3.204  67.105  0.00  0.00     0.086 H 
BRANCH  13  15
ATOM     15  N2  non d ame      -9.993   4.920  68.007  0.00  0.00    -0.343 N 
ATOM     16  C5  non d ame      -9.714   4.357  69.330  0.00  0.00     0.273 C 
ATOM     17  O2  non d ame      -9.091   3.358  69.429  0.00  0.00    -0.266 OA
ATOM     18  H5  non d ame     -10.527   5.772  67.912  0.00  0.00     0.163 HD
BRANCH  16  19
ATOM     19  C4  non d ame     -10.232   5.064  70.592  0.00  0.00     0.154 A 
ATOM     20  C1  non d ame      -9.772   4.885  71.935  0.00  0.00    -0.017 A 
ATOM     21  C2  non d ame     -10.566   5.758  72.711  0.00  0.00     0.077 A 
ATOM     22  H1  non d ame      -8.983   4.222  72.291  0.00  0.00     0.091 H 
ATOM     23  O1  non d ame     -11.382   6.364  71.900  0.00  0.00    -0.218 OA
ATOM     24  N1  non d ame     -11.207   5.976  70.658  0.00  0.00    -0.123 NA
BRANCH  21  25
ATOM     25  C3  non d ame     -10.480   5.953  74.219  0.00  0.00    -0.029 C 
ATOM     26  H2  non d ame      -9.772   5.238  74.639  0.00  0.00     0.036 H 
ATOM     27  H3  non d ame     -10.143   6.967  74.435  0.00  0.00     0.036 H 
ATOM     28  H4  non d ame     -11.463   5.795  74.663  0.00  0.00     0.036 H 
ENDBRANCH  21  25
ENDBRANCH  16  19
ENDBRANCH  13  15
BRANCH  13  29
ATOM     29  C8  non d ame     -10.534   4.283  65.729  0.00  0.00    -0.049 C 
ATOM     30  H7  non d ame     -10.308   5.100  65.043  0.00  0.00     0.030 H 
ATOM     31  H8  non d ame     -10.526   3.339  65.184  0.00  0.00     0.030 H 
ATOM     32  H9  non d ame     -11.518   4.442  66.169  0.00  0.00     0.030 H 
ENDBRANCH  13  29
ENDBRANCH  10  13
ENDBRANCH   7   9
BRANCH   7  33
ATOM     33  C11 non d ame      -6.991   6.585  63.312  0.00  0.00    -0.033 C 
ATOM     34  H12 non d ame      -7.172   7.588  62.925  0.00  0.00     0.042 H 
BRANCH  33  35
ATOM     35  C12 non d ame      -5.572   6.147  62.830  0.00  0.00    -0.071 C 
ATOM     36  H13 non d ame      -5.006   5.756  63.676  0.00  0.00     0.028 H 
ATOM     37  H14 non d ame      -5.670   5.371  62.071  0.00  0.00     0.028 H 
ATOM     38  H15 non d ame      -5.051   7.005  62.408  0.00  0.00     0.028 H 
ENDBRANCH  33  35
BRANCH  33  39
ATOM     39  C13 non d ame      -8.098   5.640  62.744  0.00  0.00    -0.071 C 
ATOM     40  H16 non d ame      -9.078   6.001  63.055  0.00  0.00     0.028 H 
ATOM     41  H17 non d ame      -8.044   5.629  61.655  0.00  0.00     0.028 H 
ATOM     42  H18 non d ame      -7.945   4.631  63.126  0.00  0.00     0.028 H 
ENDBRANCH  33  39
ENDBRANCH   7  33
ENDBRANCH   4   7
ENDBRANCH   1   3
BRANCH   1  43
ATOM     43  C15 non d ame      -9.865  10.464  66.549  0.00  0.00     0.240 C 
ATOM     44  O5  non d ame     -10.698   9.616  66.540  0.00  0.00    -0.271 OA
ATOM     45  N6  non d ame     -10.165  11.791  67.160  0.00  0.00    -0.355 N 
ATOM     46  H46 non d ame      -9.464  12.517  67.178  0.00  0.00     0.162 HD
BRANCH  45  47
ATOM     47  C20 non d ame     -11.499  12.043  67.745  0.00  0.00     0.013 C 
ATOM     48  H30 non d ame     -12.205  11.354  67.282  0.00  0.00     0.072 H 
BRANCH  47  49
ATOM     49  C21 non d ame     -11.908  13.470  67.458  0.00  0.00    -0.038 C 
ATOM     50  H31 non d ame     -12.547  13.422  66.576  0.00  0.00     0.036 H 
ATOM     51  H32 non d ame     -12.304  13.857  68.398  0.00  0.00     0.036 H 
BRANCH  49  52
ATOM     52  C22 non d ame     -10.713  14.373  67.083  0.00  0.00     0.018 C 
ATOM     53  H33 non d ame      -9.859  13.975  67.632  0.00  0.00     0.048 H 
ATOM     54  H34 non d ame     -10.695  14.401  65.993  0.00  0.00     0.048 H 
BRANCH  52  55
ATOM     55  C23 non d ame     -10.871  15.847  67.547  0.00  0.00     0.259 C 
ATOM     56  O7  non d ame     -10.257  16.716  67.016  0.00  0.00    -0.265 OA
BRANCH  55  57
ATOM     57  O8  non d ame     -11.750  16.148  68.624  0.00  0.00    -0.317 OA
BRANCH  57  58
ATOM     58  C29 non d ame     -11.097  16.276  69.890  0.00  0.00     0.052 C 
ATOM     59  H47 non d ame     -10.249  15.592  69.855  0.00  0.00     0.082 H 
ATOM     60  H48 non d ame     -10.931  17.344  70.030  0.00  0.00     0.082 H 
BRANCH  58  61
ATOM     61  C35 non d ame     -12.079  15.785  70.987  0.00  0.00    -0.034 A 
ATOM     62  C30 non d ame     -11.979  16.279  72.284  0.00  0.00    -0.075 A 
ATOM     63  C31 non d ame     -12.861  15.837  73.269  0.00  0.00    -0.082 A 
ATOM     64  H49 non d ame     -11.210  17.012  72.528  0.00  0.00     0.084 H 
ATOM     65  C32 non d ame     -13.844  14.895  72.954  0.00  0.00    -0.083 A 
ATOM     66  H50 non d ame     -12.781  16.228  74.284  0.00  0.00     0.083 H 
ATOM     67  C33 non d ame     -13.938  14.403  71.660  0.00  0.00    -0.082 A 
ATOM     68  H51 non d ame     -14.538  14.545  73.719  0.00  0.00     0.083 H 
ATOM     69  C34 non d ame     -13.060  14.843  70.671  0.00  0.00    -0.075 A 
ATOM     70  H52 non d ame     -14.705  13.666  71.418  0.00  0.00     0.083 H 
ATOM     71  H53 non d ame     -13.141  14.452  69.657  0.00  0.00     0.084 H 
ENDBRANCH  58  61
ENDBRANCH  57  58
ENDBRANCH  55  57
ENDBRANCH  52  55
ENDBRANCH  49  52
ENDBRANCH  47  49
BRANCH  47  72
ATOM     72  C24 non d ame     -11.452  11.820  69.255  0.00  0.00    -0.039 C 
ATOM     73  H35 non d ame     -10.396  11.874  69.524  0.00  0.00     0.036 H 
ATOM     74  H36 non d ame     -12.158  12.536  69.677  0.00  0.00     0.036 H 
BRANCH  72  75
ATOM     75  C25 non d ame     -11.967  10.357  69.655  0.00  0.00    -0.001 C 
ATOM     76  C26 non d ame     -13.076  10.464  70.864  0.00  0.00    -0.035 C 
ATOM     77  C27 non d ame     -12.717   9.622  71.862  0.00  0.00     0.085 C 
ATOM     78  H38 non d ame     -13.027  11.448  71.330  0.00  0.00     0.036 H 
ATOM     79  H39 non d ame     -14.035  10.067  70.528  0.00  0.00     0.036 H 
ATOM     80  N5  non d ame     -11.295   9.195  71.589  0.00  0.00    -0.049 N 
ATOM     81  H40 non d ame     -12.739  10.223  72.772  0.00  0.00     0.075 H 
ATOM     82  H41 non d ame     -13.372   8.758  71.764  0.00  0.00     0.075 H 
ATOM     83  C28 non d ame     -10.992   9.612  70.059  0.00  0.00     0.193 C 
ATOM     84  H42 non d ame     -10.708   9.750  72.195  0.00  0.00     0.280 HD
ATOM     85  H43 non d ame     -11.281   8.187  71.656  0.00  0.00     0.280 HD
ATOM     86  H44 non d ame     -10.980   8.858  69.271  0.00  0.00     0.129 H 
ATOM     87  H37 non d ame     -12.240   9.763  68.782  0.00  0.00     0.046 H 
BRANCH  83  88
ATOM     88  O6  non d ame      -9.732  10.279  69.969  0.00  0.00    -0.369 OA
ATOM     89  H45 non d ame      -9.727  10.852  69.200  0.00  0.00     0.212 HD
ENDBRANCH  83  88
ENDBRANCH  72  75
ENDBRANCH  47  72
ENDBRANCH  45  47
ENDBRANCH   1  43
BRANCH   1  90
ATOM     90  C16 non d ame      -8.252  11.075  64.720  0.00  0.00    -0.035 C 
ATOM     91  H21 non d ame      -8.599  12.063  65.025  0.00  0.00     0.037 H 
ATOM     92  H22 non d ame      -7.211  10.928  64.433  0.00  0.00     0.037 H 
BRANCH  90  93
ATOM     93  C17 non d ame      -9.113  10.669  63.481  0.00  0.00    -0.059 C 
ATOM     94  H23 non d ame      -9.568   9.702  63.697  0.00  0.00     0.038 H 
BRANCH  93  95
ATOM     95  C18 non d ame     -10.266  11.687  63.205  0.00  0.00    -0.073 C 
ATOM     96  H24 non d ame     -10.089  12.187  62.254  0.00  0.00     0.028 H 
ATOM     97  H25 non d ame     -11.217  11.155  63.166  0.00  0.00     0.028 H 
ATOM     98  H26 non d ame     -10.296  12.427  64.005  0.00  0.00     0.028 H 
ENDBRANCH  93  95
BRANCH  93  99
ATOM     99  C19 non d ame      -8.235  10.491  62.240  0.00  0.00    -0.073 C 
ATOM    100  H27 non d ame      -8.734   9.827  61.533  0.00  0.00     0.028 H 
ATOM    101  H28 non d ame      -8.068  11.462  61.771  0.00  0.00     0.028 H 
ATOM    102  H29 non d ame      -7.278  10.060  62.530  0.00  0.00     0.028 H 
ENDBRANCH  93  99
ENDBRANCH  90  93
ENDBRANCH   1  90
TORSDOF 26
ENDMDL
MODEL 13
REMARK VINA RESULT:      -7.1      3.005      6.887
REMARK  26 active torsions:
REMARK  status: ('A' for Active; 'I' for Inactive)
REMARK    1  A    between atoms: C2_2  and  C3_3 
REMARK    2  A    between atoms: C4_6  and  C5_7 
REMARK       I    between atoms: C5_7  and  N2_9 
REMARK    3  A    between atoms: N2_9  and  C6_10 
REMARK    4  A    between atoms: C6_10  and  C7_11 
REMARK    5  A    between atoms: C6_10  and  C8_13 
REMARK       I    between atoms: C7_11  and  N3_14 
REMARK    6  A    between atoms: N3_14  and  C9_15 
REMARK    7  A    between atoms: C9_15  and  C10_16 
REMARK    8  A    between atoms: C9_15  and  C11_18 
REMARK       I    between atoms: C10_16  and  N4_21 
REMARK    9  A    between atoms: C11_18  and  C12_19 
REMARK   10  A    between atoms: C11_18  and  C13_20 
REMARK   11  A    between atoms: N4_21  and  C14_22 
REMARK   12  A    between atoms: C14_22  and  C15_23 
REMARK   13  A    between atoms: C14_22  and  C16_25 
REMARK       I    between atoms: C15_23  and  N6_40 
REMARK   14  A    between atoms: C16_25  and  C17_26 
REMARK   15  A    between atoms: C17_26  and  C18_27 
REMARK   16  A    between atoms: C17_26  and  C19_28 
REMARK   17  A    between atoms: C20_29  and  C21_30 
REMARK   18  A    between atoms: C20_29  and  C24_33 
REMARK   19  A    between atoms: C20_29  and  N6_40 
REMARK   20  A    between atoms: C21_30  and  C22_31 
REMARK   21  A    between atoms: C22_31  and  C23_32 
REMARK   22  A    between atoms: C23_32  and  O8_43 
REMARK   23  A    between atoms: C24_33  and  C25_34 
REMARK   24  A    between atoms: C28_38  and  O6_39 
REMARK   25  A    between atoms: C29_42  and  O8_43 
REMARK   26  A    between atoms: C29_42  and  C35_49 
ROOT
ATOM      1  C14 non d ame      -6.818  10.157  66.918  0.00  0.00     0.089 C 
ATOM      2  H20 non d ame      -5.972   9.554  67.249  0.00  0.00     0.087 H 
ENDROOT
BRANCH   1   3
ATOM      3  N4  non d ame      -7.982   9.738  67.686  0.00  0.00    -0.346 N 
ATOM      4  C10 non d ame      -7.955   8.449  68.467  0.00  0.00     0.241 C 
ATOM      5  O4  non d ame      -6.987   7.763  68.460  0.00  0.00    -0.271 OA
ATOM      6  H19 non d ame      -8.797  10.335  67.677  0.00  0.00     0.163 HD
BRANCH   4   7
ATOM      7  C9  non d ame      -9.166   8.034  69.261  0.00  0.00     0.092 C 
ATOM      8  H11 non d ame      -8.880   7.892  70.303  0.00  0.00     0.088 H 
BRANCH   7   9
ATOM      9  N3  non d ame     -10.164   9.108  69.228  0.00  0.00    -0.346 N 
ATOM     10  C7  non d ame     -10.751   9.584  70.457  0.00  0.00     0.240 C 
ATOM     11  O3  non d ame     -10.433   9.113  71.480  0.00  0.00    -0.271 OA
ATOM     12  H10 non d ame     -10.449   9.523  68.353  0.00  0.00     0.163 HD
BRANCH  10  13
ATOM     13  C6  non d ame     -11.814  10.725  70.415  0.00  0.00     0.086 C 
ATOM     14  H6  non d ame     -11.525  11.592  71.008  0.00  0.00     0.086 H 
BRANCH  13  15
ATOM     15  N2  non d ame     -11.957  11.187  69.045  0.00  0.00    -0.343 N 
ATOM     16  C5  non d ame     -11.672  12.587  68.722  0.00  0.00     0.273 C 
ATOM     17  O2  non d ame     -11.331  13.334  69.573  0.00  0.00    -0.266 OA
ATOM     18  H5  non d ame     -12.251  10.542  68.324  0.00  0.00     0.163 HD
BRANCH  16  19
ATOM     19  C4  non d ame     -11.817  13.088  67.277  0.00  0.00     0.154 A 
ATOM     20  C1  non d ame     -11.789  12.302  66.082  0.00  0.00    -0.017 A 
ATOM     21  C2  non d ame     -11.964  13.231  65.031  0.00  0.00     0.077 A 
ATOM     22  H1  non d ame     -11.662  11.223  65.990  0.00  0.00     0.091 H 
ATOM     23  O1  non d ame     -12.079  14.409  65.571  0.00  0.00    -0.218 OA
ATOM     24  N1  non d ame     -11.996  14.351  66.880  0.00  0.00    -0.123 NA
BRANCH  21  25
ATOM     25  C3  non d ame     -12.010  12.910  63.543  0.00  0.00    -0.029 C 
ATOM     26  H2  non d ame     -11.090  13.251  63.069  0.00  0.00     0.036 H 
ATOM     27  H3  non d ame     -12.113  11.834  63.406  0.00  0.00     0.036 H 
ATOM     28  H4  non d ame     -12.863  13.417  63.089  0.00  0.00     0.036 H 
ENDBRANCH  21  25
ENDBRANCH  16  19
ENDBRANCH  13  15
BRANCH  13  29
ATOM     29  C8  non d ame     -13.134  10.204  70.925  0.00  0.00    -0.049 C 
ATOM     30  H7  non d ame     -13.197  10.364  72.001  0.00  0.00     0.030 H 
ATOM     31  H8  non d ame     -13.949  10.733  70.430  0.00  0.00     0.030 H 
ATOM     32  H9  non d ame     -13.210   9.138  70.712  0.00  0.00     0.030 H 
ENDBRANCH  13  29
ENDBRANCH  10  13
ENDBRANCH   7   9
BRANCH   7  33
ATOM     33  C11 non d ame      -9.777   6.744  68.640  0.00  0.00    -0.033 C 
ATOM     34  H12 non d ame      -8.950   6.107  68.326  0.00  0.00     0.042 H 
BRANCH  33  35
ATOM     35  C12 non d ame     -10.611   5.947  69.690  0.00  0.00    -0.071 C 
ATOM     36  H13 non d ame     -11.637   5.844  69.337  0.00  0.00     0.028 H 
ATOM     37  H14 non d ame     -10.173   4.958  69.827  0.00  0.00     0.028 H 
ATOM     38  H15 non d ame     -10.605   6.482  70.640  0.00  0.00     0.028 H 
ENDBRANCH  33  35
BRANCH  33  39
ATOM     39  C13 non d ame     -10.632   7.082  67.376  0.00  0.00    -0.071 C 
ATOM     40  H16 non d ame     -11.248   6.223  67.114  0.00  0.00     0.028 H 
ATOM     41  H17 non d ame     -11.273   7.937  67.590  0.00  0.00     0.028 H 
ATOM     42  H18 non d ame      -9.970   7.323  66.544  0.00  0.00     0.028 H 
ENDBRANCH  33  39
ENDBRANCH   7  33
ENDBRANCH   4   7
ENDBRANCH   1   3
BRANCH   1  43
ATOM     43  C15 non d ame      -6.587  11.676  67.157  0.00  0.00     0.240 C 
ATOM     44  O5  non d ame      -5.673  12.225  66.633  0.00  0.00    -0.271 OA
ATOM     45  N6  non d ame      -7.512  12.450  68.034  0.00  0.00    -0.355 N 
ATOM     46  H46 non d ame      -8.295  11.996  68.481  0.00  0.00     0.162 HD
BRANCH  45  47
ATOM     47  C20 non d ame      -7.279  13.895  68.250  0.00  0.00     0.013 C 
ATOM     48  H30 non d ame      -6.636  14.255  67.448  0.00  0.00     0.072 H 
BRANCH  47  49
ATOM     49  C21 non d ame      -6.600  14.097  69.586  0.00  0.00    -0.038 C 
ATOM     50  H31 non d ame      -7.218  14.816  70.125  0.00  0.00     0.036 H 
ATOM     51  H32 non d ame      -6.447  13.097  69.993  0.00  0.00     0.036 H 
BRANCH  49  52
ATOM     52  C22 non d ame      -5.200  14.735  69.457  0.00  0.00     0.018 C 
ATOM     53  H33 non d ame      -4.517  14.055  69.966  0.00  0.00     0.048 H 
ATOM     54  H34 non d ame      -5.069  14.945  68.395  0.00  0.00     0.048 H 
BRANCH  52  55
ATOM     55  C23 non d ame      -5.065  16.102  70.184  0.00  0.00     0.259 C 
ATOM     56  O7  non d ame      -4.200  16.279  70.979  0.00  0.00    -0.265 OA
BRANCH  55  57
ATOM     57  O8  non d ame      -5.997  17.138  69.898  0.00  0.00    -0.317 OA
BRANCH  57  58
ATOM     58  C29 non d ame      -5.392  18.366  69.484  0.00  0.00     0.052 C 
ATOM     59  H47 non d ame      -5.615  19.085  70.273  0.00  0.00     0.082 H 
ATOM     60  H48 non d ame      -4.357  18.121  69.248  0.00  0.00     0.082 H 
BRANCH  58  61
ATOM     61  C35 non d ame      -6.095  18.831  68.181  0.00  0.00    -0.034 A 
ATOM     62  C30 non d ame      -5.749  18.260  66.961  0.00  0.00    -0.075 A 
ATOM     63  C31 non d ame      -6.380  18.678  65.790  0.00  0.00    -0.082 A 
ATOM     64  H49 non d ame      -4.984  17.485  66.922  0.00  0.00     0.084 H 
ATOM     65  C32 non d ame      -7.360  19.673  65.843  0.00  0.00    -0.083 A 
ATOM     66  H50 non d ame      -6.109  18.227  64.836  0.00  0.00     0.083 H 
ATOM     67  C33 non d ame      -7.700  20.243  67.063  0.00  0.00    -0.082 A 
ATOM     68  H51 non d ame      -7.859  20.005  64.933  0.00  0.00     0.083 H 
ATOM     69  C34 non d ame      -7.073  19.827  68.235  0.00  0.00    -0.075 A 
ATOM     70  H52 non d ame      -8.463  21.021  67.100  0.00  0.00     0.083 H 
ATOM     71  H53 non d ame      -7.346  20.278  69.190  0.00  0.00     0.084 H 
ENDBRANCH  58  61
ENDBRANCH  57  58
ENDBRANCH  55  57
ENDBRANCH  52  55
ENDBRANCH  49  52
ENDBRANCH  47  49
BRANCH  47  72
ATOM     72  C24 non d ame      -8.612  14.640  68.237  0.00  0.00    -0.039 C 
ATOM     73  H35 non d ame      -9.294  14.004  67.673  0.00  0.00     0.036 H 
ATOM     74  H36 non d ame      -8.823  14.874  69.281  0.00  0.00     0.036 H 
BRANCH  72  75
ATOM     75  C25 non d ame      -8.505  16.032  67.453  0.00  0.00    -0.001 C 
ATOM     76  C26 non d ame      -9.547  17.124  68.104  0.00  0.00    -0.035 C 
ATOM     77  C27 non d ame     -10.296  17.660  67.110  0.00  0.00     0.085 C 
ATOM     78  H38 non d ame     -10.280  16.614  68.729  0.00  0.00     0.036 H 
ATOM     79  H39 non d ame      -8.997  17.979  68.497  0.00  0.00     0.036 H 
ATOM     80  N5  non d ame     -10.087  16.799  65.888  0.00  0.00    -0.049 N 
ATOM     81  H40 non d ame     -11.331  17.563  67.440  0.00  0.00     0.075 H 
ATOM     82  H41 non d ame      -9.872  18.646  66.926  0.00  0.00     0.075 H 
ATOM     83  C28 non d ame      -8.792  15.888  66.202  0.00  0.00     0.193 C 
ATOM     84  H42 non d ame     -10.895  16.197  65.820  0.00  0.00     0.280 HD
ATOM     85  H43 non d ame      -9.861  17.428  65.130  0.00  0.00     0.280 HD
ATOM     86  H44 non d ame      -7.828  16.120  65.749  0.00  0.00     0.129 H 
ATOM     87  H37 non d ame      -7.471  16.352  67.319  0.00  0.00     0.046 H 
BRANCH  83  88
ATOM     88  O6  non d ame      -9.055  14.525  65.864  0.00  0.00    -0.369 OA
ATOM     89  H45 non d ame      -9.665  14.148  66.502  0.00  0.00     0.212 HD
ENDBRANCH  83  88
ENDBRANCH  72  75
ENDBRANCH  47  72
ENDBRANCH  45  47
ENDBRANCH   1  43
BRANCH   1  90
ATOM     90  C16 non d ame      -7.082   9.906  65.442  0.00  0.00    -0.035 C 
ATOM     91  H21 non d ame      -7.149  10.895  64.988  0.00  0.00     0.037 H 
ATOM     92  H22 non d ame      -6.304   9.212  65.123  0.00  0.00     0.037 H 
BRANCH  90  93
ATOM     93  C17 non d ame      -8.446   9.199  65.160  0.00  0.00    -0.059 C 
ATOM     94  H23 non d ame      -8.956   9.072  66.115  0.00  0.00     0.038 H 
BRANCH  93  95
ATOM     95  C18 non d ame      -9.372  10.051  64.234  0.00  0.00    -0.073 C 
ATOM     96  H24 non d ame      -9.815  10.862  64.811  0.00  0.00     0.028 H 
ATOM     97  H25 non d ame      -8.783  10.466  63.415  0.00  0.00     0.028 H 
ATOM     98  H26 non d ame     -10.162   9.418  63.829  0.00  0.00     0.028 H 
ENDBRANCH  93  95
BRANCH  93  99
ATOM     99  C19 non d ame      -8.226   7.802  64.574  0.00  0.00    -0.073 C 
ATOM    100  H27 non d ame      -7.274   7.775  64.044  0.00  0.00     0.028 H 
ATOM    101  H28 non d ame      -8.214   7.067  65.380  0.00  0.00     0.028 H 
ATOM    102  H29 non d ame      -9.034   7.567  63.882  0.00  0.00     0.028 H 
ENDBRANCH  93  99
ENDBRANCH  90  93
ENDBRANCH   1  90
TORSDOF 26
ENDMDL
MODEL 14
REMARK VINA RESULT:      -7.0      3.229      8.619
REMARK  26 active torsions:
REMARK  status: ('A' for Active; 'I' for Inactive)
REMARK    1  A    between atoms: C2_2  and  C3_3 
REMARK    2  A    between atoms: C4_6  and  C5_7 
REMARK       I    between atoms: C5_7  and  N2_9 
REMARK    3  A    between atoms: N2_9  and  C6_10 
REMARK    4  A    between atoms: C6_10  and  C7_11 
REMARK    5  A    between atoms: C6_10  and  C8_13 
REMARK       I    between atoms: C7_11  and  N3_14 
REMARK    6  A    between atoms: N3_14  and  C9_15 
REMARK    7  A    between atoms: C9_15  and  C10_16 
REMARK    8  A    between atoms: C9_15  and  C11_18 
REMARK       I    between atoms: C10_16  and  N4_21 
REMARK    9  A    between atoms: C11_18  and  C12_19 
REMARK   10  A    between atoms: C11_18  and  C13_20 
REMARK   11  A    between atoms: N4_21  and  C14_22 
REMARK   12  A    between atoms: C14_22  and  C15_23 
REMARK   13  A    between atoms: C14_22  and  C16_25 
REMARK       I    between atoms: C15_23  and  N6_40 
REMARK   14  A    between atoms: C16_25  and  C17_26 
REMARK   15  A    between atoms: C17_26  and  C18_27 
REMARK   16  A    between atoms: C17_26  and  C19_28 
REMARK   17  A    between atoms: C20_29  and  C21_30 
REMARK   18  A    between atoms: C20_29  and  C24_33 
REMARK   19  A    between atoms: C20_29  and  N6_40 
REMARK   20  A    between atoms: C21_30  and  C22_31 
REMARK   21  A    between atoms: C22_31  and  C23_32 
REMARK   22  A    between atoms: C23_32  and  O8_43 
REMARK   23  A    between atoms: C24_33  and  C25_34 
REMARK   24  A    between atoms: C28_38  and  O6_39 
REMARK   25  A    between atoms: C29_42  and  O8_43 
REMARK   26  A    between atoms: C29_42  and  C35_49 
ROOT
ATOM      1  C14 non d ame     -10.062  15.828  67.488  0.00  0.00     0.089 C 
ATOM      2  H20 non d ame      -8.986  15.978  67.386  0.00  0.00     0.087 H 
ENDROOT
BRANCH   1   3
ATOM      3  N4  non d ame     -10.482  14.933  66.419  0.00  0.00    -0.346 N 
ATOM      4  C10 non d ame      -9.727  13.656  66.154  0.00  0.00     0.241 C 
ATOM      5  O4  non d ame      -8.781  13.370  66.811  0.00  0.00    -0.271 OA
ATOM      6  H19 non d ame     -11.288  15.196  65.870  0.00  0.00     0.163 HD
BRANCH   4   7
ATOM      7  C9  non d ame     -10.180  12.739  65.048  0.00  0.00     0.092 C 
ATOM      8  H11 non d ame     -10.192  13.290  64.108  0.00  0.00     0.088 H 
BRANCH   7   9
ATOM      9  N3  non d ame      -9.217  11.644  64.895  0.00  0.00    -0.346 N 
ATOM     10  C7  non d ame      -9.236  10.829  63.705  0.00  0.00     0.240 C 
ATOM     11  O3  non d ame     -10.018  11.040  62.861  0.00  0.00    -0.271 OA
ATOM     12  H10 non d ame      -8.537  11.448  65.616  0.00  0.00     0.163 HD
BRANCH  10  13
ATOM     13  C6  non d ame      -8.211   9.663  63.550  0.00  0.00     0.086 C 
ATOM     14  H6  non d ame      -7.279   9.846  64.084  0.00  0.00     0.086 H 
BRANCH  13  15
ATOM     15  N2  non d ame      -8.784   8.453  64.117  0.00  0.00    -0.343 N 
ATOM     16  C5  non d ame      -8.598   8.166  65.541  0.00  0.00     0.273 C 
ATOM     17  O2  non d ame      -7.983   8.912  66.221  0.00  0.00    -0.266 OA
ATOM     18  H5  non d ame      -9.305   7.820  63.528  0.00  0.00     0.163 HD
BRANCH  16  19
ATOM     19  C4  non d ame      -9.199   6.892  66.154  0.00  0.00     0.154 A 
ATOM     20  C1  non d ame      -8.560   5.621  66.308  0.00  0.00    -0.017 A 
ATOM     21  C2  non d ame      -9.531   4.797  66.920  0.00  0.00     0.077 A 
ATOM     22  H1  non d ame      -7.547   5.340  66.019  0.00  0.00     0.091 H 
ATOM     23  O1  non d ame     -10.598   5.520  67.094  0.00  0.00    -0.218 OA
ATOM     24  N1  non d ame     -10.429   6.746  66.655  0.00  0.00    -0.123 NA
BRANCH  21  25
ATOM     25  C3  non d ame      -9.358   3.334  67.305  0.00  0.00    -0.029 C 
ATOM     26  H2  non d ame      -9.367   3.240  68.391  0.00  0.00     0.036 H 
ATOM     27  H3  non d ame     -10.175   2.748  66.883  0.00  0.00     0.036 H 
ATOM     28  H4  non d ame      -8.409   2.965  66.916  0.00  0.00     0.036 H 
ENDBRANCH  21  25
ENDBRANCH  16  19
ENDBRANCH  13  15
BRANCH  13  29
ATOM     29  C8  non d ame      -7.902   9.452  62.090  0.00  0.00    -0.049 C 
ATOM     30  H7  non d ame      -6.905   9.023  61.987  0.00  0.00     0.030 H 
ATOM     31  H8  non d ame      -8.637   8.773  61.657  0.00  0.00     0.030 H 
ATOM     32  H9  non d ame      -7.940  10.409  61.569  0.00  0.00     0.030 H 
ENDBRANCH  13  29
ENDBRANCH  10  13
ENDBRANCH   7   9
BRANCH   7  33
ATOM     33  C11 non d ame     -11.578  12.152  65.400  0.00  0.00    -0.033 C 
ATOM     34  H12 non d ame     -11.842  11.440  64.619  0.00  0.00     0.042 H 
BRANCH  33  35
ATOM     35  C12 non d ame     -11.543  11.374  66.753  0.00  0.00    -0.071 C 
ATOM     36  H13 non d ame     -11.385  12.076  67.572  0.00  0.00     0.028 H 
ATOM     37  H14 non d ame     -12.490  10.855  66.897  0.00  0.00     0.028 H 
ATOM     38  H15 non d ame     -10.730  10.649  66.733  0.00  0.00     0.028 H 
ENDBRANCH  33  35
BRANCH  33  39
ATOM     39  C13 non d ame     -12.666  13.273  65.420  0.00  0.00    -0.071 C 
ATOM     40  H16 non d ame     -13.558  12.923  64.902  0.00  0.00     0.028 H 
ATOM     41  H17 non d ame     -12.919  13.517  66.453  0.00  0.00     0.028 H 
ATOM     42  H18 non d ame     -12.281  14.162  64.921  0.00  0.00     0.028 H 
ENDBRANCH  33  39
ENDBRANCH   7  33
ENDBRANCH   4   7
ENDBRANCH   1   3
BRANCH   1  43
ATOM     43  C15 non d ame     -10.438  15.181  68.852  0.00  0.00     0.240 C 
ATOM     44  O5  non d ame      -9.843  15.487  69.834  0.00  0.00    -0.271 OA
ATOM     45  N6  non d ame     -11.545  14.187  68.934  0.00  0.00    -0.355 N 
ATOM     46  H46 non d ame     -12.060  13.923  68.107  0.00  0.00     0.162 HD
BRANCH  45  47
ATOM     47  C20 non d ame     -11.891  13.582  70.239  0.00  0.00     0.013 C 
ATOM     48  H30 non d ame     -11.103  13.838  70.947  0.00  0.00     0.072 H 
BRANCH  47  49
ATOM     49  C21 non d ame     -11.981  12.081  70.086  0.00  0.00    -0.038 C 
ATOM     50  H31 non d ame     -12.581  11.911  69.191  0.00  0.00     0.036 H 
ATOM     51  H32 non d ame     -10.954  11.719  70.131  0.00  0.00     0.036 H 
BRANCH  49  52
ATOM     52  C22 non d ame     -12.735  11.404  71.251  0.00  0.00     0.018 C 
ATOM     53  H33 non d ame     -12.344  11.860  72.161  0.00  0.00     0.048 H 
ATOM     54  H34 non d ame     -13.794  11.492  71.009  0.00  0.00     0.048 H 
BRANCH  52  55
ATOM     55  C23 non d ame     -12.451   9.881  71.380  0.00  0.00     0.259 C 
ATOM     56  O7  non d ame     -13.321   9.128  71.675  0.00  0.00    -0.265 OA
BRANCH  55  57
ATOM     57  O8  non d ame     -11.133   9.397  71.153  0.00  0.00    -0.317 OA
BRANCH  57  58
ATOM     58  C29 non d ame     -10.962   8.741  69.894  0.00  0.00     0.052 C 
ATOM     59  H47 non d ame     -11.969   8.564  69.514  0.00  0.00     0.082 H 
ATOM     60  H48 non d ame     -10.269   9.362  69.328  0.00  0.00     0.082 H 
BRANCH  58  61
ATOM     61  C35 non d ame     -10.289   7.367  70.156  0.00  0.00    -0.034 A 
ATOM     62  C30 non d ame      -8.910   7.233  70.032  0.00  0.00    -0.075 A 
ATOM     63  C31 non d ame      -8.304   5.999  70.268  0.00  0.00    -0.082 A 
ATOM     64  H49 non d ame      -8.303   8.094  69.751  0.00  0.00     0.084 H 
ATOM     65  C32 non d ame      -9.084   4.897  70.626  0.00  0.00    -0.083 A 
ATOM     66  H50 non d ame      -7.223   5.898  70.172  0.00  0.00     0.083 H 
ATOM     67  C33 non d ame     -10.461   5.035  70.746  0.00  0.00    -0.082 A 
ATOM     68  H51 non d ame      -8.619   3.929  70.813  0.00  0.00     0.083 H 
ATOM     69  C34 non d ame     -11.069   6.266  70.513  0.00  0.00    -0.075 A 
ATOM     70  H52 non d ame     -11.067   4.172  71.023  0.00  0.00     0.083 H 
ATOM     71  H53 non d ame     -12.151   6.367  70.610  0.00  0.00     0.084 H 
ENDBRANCH  58  61
ENDBRANCH  57  58
ENDBRANCH  55  57
ENDBRANCH  52  55
ENDBRANCH  49  52
ENDBRANCH  47  49
BRANCH  47  72
ATOM     72  C24 non d ame     -13.234  14.127  70.721  0.00  0.00    -0.039 C 
ATOM     73  H35 non d ame     -13.802  14.341  69.815  0.00  0.00     0.036 H 
ATOM     74  H36 non d ame     -13.605  13.393  71.436  0.00  0.00     0.036 H 
BRANCH  72  75
ATOM     75  C25 non d ame     -13.064  15.512  71.509  0.00  0.00    -0.001 C 
ATOM     76  C26 non d ame     -11.876  15.370  72.638  0.00  0.00    -0.035 C 
ATOM     77  C27 non d ame     -12.357  15.794  73.831  0.00  0.00     0.085 C 
ATOM     78  H38 non d ame     -11.650  14.319  72.813  0.00  0.00     0.036 H 
ATOM     79  H39 non d ame     -11.071  16.073  72.423  0.00  0.00     0.036 H 
ATOM     80  N5  non d ame     -13.856  15.902  73.691  0.00  0.00    -0.049 N 
ATOM     81  H40 non d ame     -12.123  14.998  74.539  0.00  0.00     0.075 H 
ATOM     82  H41 non d ame     -11.941  16.791  73.975  0.00  0.00     0.075 H 
ATOM     83  C28 non d ame     -14.158  15.847  72.106  0.00  0.00     0.193 C 
ATOM     84  H42 non d ame     -14.244  15.075  74.121  0.00  0.00     0.280 HD
ATOM     85  H43 non d ame     -14.110  16.817  74.035  0.00  0.00     0.280 HD
ATOM     86  H44 non d ame     -14.412  16.756  71.559  0.00  0.00     0.129 H 
ATOM     87  H37 non d ame     -13.008  16.367  70.835  0.00  0.00     0.046 H 
BRANCH  83  88
ATOM     88  O6  non d ame     -15.221  14.931  71.838  0.00  0.00    -0.369 OA
ATOM     89  H45 non d ame     -16.053  15.408  71.804  0.00  0.00     0.212 HD
ENDBRANCH  83  88
ENDBRANCH  72  75
ENDBRANCH  47  72
ENDBRANCH  45  47
ENDBRANCH   1  43
BRANCH   1  90
ATOM     90  C16 non d ame     -10.784  17.157  67.335  0.00  0.00    -0.035 C 
ATOM     91  H21 non d ame     -11.035  17.229  66.277  0.00  0.00     0.037 H 
ATOM     92  H22 non d ame     -11.577  17.142  68.083  0.00  0.00     0.037 H 
BRANCH  90  93
ATOM     93  C17 non d ame      -9.891  18.396  67.663  0.00  0.00    -0.059 C 
ATOM     94  H23 non d ame     -10.167  18.749  68.656  0.00  0.00     0.038 H 
BRANCH  93  95
ATOM     95  C18 non d ame      -8.371  18.037  67.690  0.00  0.00    -0.073 C 
ATOM     96  H24 non d ame      -7.984  18.175  68.700  0.00  0.00     0.028 H 
ATOM     97  H25 non d ame      -8.238  16.997  67.389  0.00  0.00     0.028 H 
ATOM     98  H26 non d ame      -7.832  18.687  67.001  0.00  0.00     0.028 H 
ENDBRANCH  93  95
BRANCH  93  99
ATOM     99  C19 non d ame     -10.163  19.540  66.682  0.00  0.00    -0.073 C 
ATOM    100  H27 non d ame     -11.001  20.137  67.043  0.00  0.00     0.028 H 
ATOM    101  H28 non d ame      -9.276  20.168  66.603  0.00  0.00     0.028 H 
ATOM    102  H29 non d ame     -10.405  19.129  65.703  0.00  0.00     0.028 H 
ENDBRANCH  93  99
ENDBRANCH  90  93
ENDBRANCH   1  90
TORSDOF 26
ENDMDL
MODEL 15
REMARK VINA RESULT:      -7.0      4.264     11.242
REMARK  26 active torsions:
REMARK  status: ('A' for Active; 'I' for Inactive)
REMARK    1  A    between atoms: C2_2  and  C3_3 
REMARK    2  A    between atoms: C4_6  and  C5_7 
REMARK       I    between atoms: C5_7  and  N2_9 
REMARK    3  A    between atoms: N2_9  and  C6_10 
REMARK    4  A    between atoms: C6_10  and  C7_11 
REMARK    5  A    between atoms: C6_10  and  C8_13 
REMARK       I    between atoms: C7_11  and  N3_14 
REMARK    6  A    between atoms: N3_14  and  C9_15 
REMARK    7  A    between atoms: C9_15  and  C10_16 
REMARK    8  A    between atoms: C9_15  and  C11_18 
REMARK       I    between atoms: C10_16  and  N4_21 
REMARK    9  A    between atoms: C11_18  and  C12_19 
REMARK   10  A    between atoms: C11_18  and  C13_20 
REMARK   11  A    between atoms: N4_21  and  C14_22 
REMARK   12  A    between atoms: C14_22  and  C15_23 
REMARK   13  A    between atoms: C14_22  and  C16_25 
REMARK       I    between atoms: C15_23  and  N6_40 
REMARK   14  A    between atoms: C16_25  and  C17_26 
REMARK   15  A    between atoms: C17_26  and  C18_27 
REMARK   16  A    between atoms: C17_26  and  C19_28 
REMARK   17  A    between atoms: C20_29  and  C21_30 
REMARK   18  A    between atoms: C20_29  and  C24_33 
REMARK   19  A    between atoms: C20_29  and  N6_40 
REMARK   20  A    between atoms: C21_30  and  C22_31 
REMARK   21  A    between atoms: C22_31  and  C23_32 
REMARK   22  A    between atoms: C23_32  and  O8_43 
REMARK   23  A    between atoms: C24_33  and  C25_34 
REMARK   24  A    between atoms: C28_38  and  O6_39 
REMARK   25  A    between atoms: C29_42  and  O8_43 
REMARK   26  A    between atoms: C29_42  and  C35_49 
ROOT
ATOM      1  C14 non d ame      -8.286   8.393  62.756  0.00  0.00     0.089 C 
ATOM      2  H20 non d ame      -8.840   8.412  61.817  0.00  0.00     0.087 H 
ENDROOT
BRANCH   1   3
ATOM      3  N4  non d ame      -9.020   9.207  63.714  0.00  0.00    -0.346 N 
ATOM      4  C10 non d ame      -9.540  10.566  63.318  0.00  0.00     0.241 C 
ATOM      5  O4  non d ame      -9.353  10.985  62.224  0.00  0.00    -0.271 OA
ATOM      6  H19 non d ame      -9.166   8.833  64.641  0.00  0.00     0.163 HD
BRANCH   4   7
ATOM      7  C9  non d ame     -10.302  11.392  64.321  0.00  0.00     0.092 C 
ATOM      8  H11 non d ame     -10.859  10.729  64.982  0.00  0.00     0.088 H 
BRANCH   7   9
ATOM      9  N3  non d ame      -9.359  12.143  65.154  0.00  0.00    -0.346 N 
ATOM     10  C7  non d ame      -8.860  11.565  66.378  0.00  0.00     0.240 C 
ATOM     11  O3  non d ame      -9.209  10.497  66.707  0.00  0.00    -0.271 OA
ATOM     12  H10 non d ame      -9.050  13.066  64.884  0.00  0.00     0.163 HD
BRANCH  10  13
ATOM     13  C6  non d ame      -7.858  12.370  67.262  0.00  0.00     0.086 C 
ATOM     14  H6  non d ame      -6.819  12.105  67.070  0.00  0.00     0.086 H 
BRANCH  13  15
ATOM     15  N2  non d ame      -7.990  13.785  66.956  0.00  0.00    -0.343 N 
ATOM     16  C5  non d ame      -9.263  14.463  67.213  0.00  0.00     0.273 C 
ATOM     17  O2  non d ame     -10.174  13.861  67.665  0.00  0.00    -0.266 OA
ATOM     18  H5  non d ame      -7.207  14.291  66.567  0.00  0.00     0.163 HD
BRANCH  16  19
ATOM     19  C4  non d ame      -9.416  15.958  66.895  0.00  0.00     0.154 A 
ATOM     20  C1  non d ame     -10.099  16.943  67.678  0.00  0.00    -0.017 A 
ATOM     21  C2  non d ame      -9.949  18.148  66.956  0.00  0.00     0.077 A 
ATOM     22  H1  non d ame     -10.622  16.805  68.624  0.00  0.00     0.091 H 
ATOM     23  O1  non d ame      -9.259  17.877  65.887  0.00  0.00    -0.218 OA
ATOM     24  N1  non d ame      -8.936  16.605  65.830  0.00  0.00    -0.123 NA
BRANCH  21  25
ATOM     25  C3  non d ame     -10.494  19.513  67.357  0.00  0.00    -0.029 C 
ATOM     26  H2  non d ame     -10.929  20.001  66.485  0.00  0.00     0.036 H 
ATOM     27  H3  non d ame     -11.259  19.387  68.123  0.00  0.00     0.036 H 
ATOM     28  H4  non d ame      -9.684  20.127  67.750  0.00  0.00     0.036 H 
ENDBRANCH  21  25
ENDBRANCH  16  19
ENDBRANCH  13  15
BRANCH  13  29
ATOM     29  C8  non d ame      -8.162  12.127  68.719  0.00  0.00    -0.049 C 
ATOM     30  H7  non d ame      -8.967  11.398  68.806  0.00  0.00     0.030 H 
ATOM     31  H8  non d ame      -7.270  11.745  69.217  0.00  0.00     0.030 H 
ATOM     32  H9  non d ame      -8.468  13.062  69.187  0.00  0.00     0.030 H 
ENDBRANCH  13  29
ENDBRANCH  10  13
ENDBRANCH   7   9
BRANCH   7  33
ATOM     33  C11 non d ame     -11.234  12.388  63.570  0.00  0.00    -0.033 C 
ATOM     34  H12 non d ame     -10.791  12.580  62.593  0.00  0.00     0.042 H 
BRANCH  33  35
ATOM     35  C12 non d ame     -12.649  11.774  63.332  0.00  0.00    -0.071 C 
ATOM     36  H13 non d ame     -13.412  12.500  63.614  0.00  0.00     0.028 H 
ATOM     37  H14 non d ame     -12.762  11.520  62.279  0.00  0.00     0.028 H 
ATOM     38  H15 non d ame     -12.761  10.875  63.937  0.00  0.00     0.028 H 
ENDBRANCH  33  35
BRANCH  33  39
ATOM     39  C13 non d ame     -11.328  13.749  64.333  0.00  0.00    -0.071 C 
ATOM     40  H16 non d ame     -10.615  13.754  65.157  0.00  0.00     0.028 H 
ATOM     41  H17 non d ame     -11.098  14.566  63.649  0.00  0.00     0.028 H 
ATOM     42  H18 non d ame     -12.337  13.876  64.724  0.00  0.00     0.028 H 
ENDBRANCH  33  39
ENDBRANCH   7  33
ENDBRANCH   4   7
ENDBRANCH   1   3
BRANCH   1  43
ATOM     43  C15 non d ame      -8.151   6.954  63.329  0.00  0.00     0.240 C 
ATOM     44  O5  non d ame      -7.660   6.097  62.668  0.00  0.00    -0.271 OA
ATOM     45  N6  non d ame      -8.628   6.644  64.708  0.00  0.00    -0.355 N 
ATOM     46  H46 non d ame      -9.042   7.364  65.281  0.00  0.00     0.162 HD
BRANCH  45  47
ATOM     47  C20 non d ame      -8.491   5.271  65.239  0.00  0.00     0.013 C 
ATOM     48  H30 non d ame      -8.155   4.628  64.425  0.00  0.00     0.072 H 
BRANCH  47  49
ATOM     49  C21 non d ame      -9.833   4.797  65.750  0.00  0.00    -0.038 C 
ATOM     50  H31 non d ame     -10.571   5.463  65.302  0.00  0.00     0.036 H 
ATOM     51  H32 non d ame      -9.866   3.727  65.542  0.00  0.00     0.036 H 
BRANCH  49  52
ATOM     52  C22 non d ame      -9.979   4.949  67.280  0.00  0.00     0.018 C 
ATOM     53  H33 non d ame     -10.598   4.111  67.602  0.00  0.00     0.048 H 
ATOM     54  H34 non d ame      -8.964   5.056  67.664  0.00  0.00     0.048 H 
BRANCH  52  55
ATOM     55  C23 non d ame     -10.738   6.234  67.712  0.00  0.00     0.259 C 
ATOM     56  O7  non d ame     -10.866   7.142  66.956  0.00  0.00    -0.265 OA
BRANCH  55  57
ATOM     57  O8  non d ame     -11.269   6.321  69.029  0.00  0.00    -0.317 OA
BRANCH  57  58
ATOM     58  C29 non d ame     -10.441   7.045  69.943  0.00  0.00     0.052 C 
ATOM     59  H47 non d ame     -10.286   6.379  70.792  0.00  0.00     0.082 H 
ATOM     60  H48 non d ame      -9.589   7.392  69.360  0.00  0.00     0.082 H 
BRANCH  58  61
ATOM     61  C35 non d ame     -11.238   8.284  70.432  0.00  0.00    -0.034 A 
ATOM     62  C30 non d ame     -12.227   8.140  71.400  0.00  0.00    -0.075 A 
ATOM     63  C31 non d ame     -12.943   9.252  71.838  0.00  0.00    -0.082 A 
ATOM     64  H49 non d ame     -12.440   7.155  71.815  0.00  0.00     0.084 H 
ATOM     65  C32 non d ame     -12.669  10.514  71.303  0.00  0.00    -0.083 A 
ATOM     66  H50 non d ame     -13.715   9.136  72.598  0.00  0.00     0.083 H 
ATOM     67  C33 non d ame     -11.684  10.653  70.334  0.00  0.00    -0.082 A 
ATOM     68  H51 non d ame     -13.223  11.389  71.640  0.00  0.00     0.083 H 
ATOM     69  C34 non d ame     -10.964   9.544  69.895  0.00  0.00    -0.075 A 
ATOM     70  H52 non d ame     -11.474  11.638  69.917  0.00  0.00     0.083 H 
ATOM     71  H53 non d ame     -10.191   9.661  69.135  0.00  0.00     0.084 H 
ENDBRANCH  58  61
ENDBRANCH  57  58
ENDBRANCH  55  57
ENDBRANCH  52  55
ENDBRANCH  49  52
ENDBRANCH  47  49
BRANCH  47  72
ATOM     72  C24 non d ame      -7.476   5.257  66.380  0.00  0.00    -0.039 C 
ATOM     73  H35 non d ame      -7.505   6.260  66.806  0.00  0.00     0.036 H 
ATOM     74  H36 non d ame      -7.743   4.397  66.995  0.00  0.00     0.036 H 
BRANCH  72  75
ATOM     75  C25 non d ame      -5.986   5.012  65.846  0.00  0.00    -0.001 C 
ATOM     76  C26 non d ame      -5.340   3.688  66.576  0.00  0.00    -0.035 C 
ATOM     77  C27 non d ame      -4.131   4.019  67.090  0.00  0.00     0.085 C 
ATOM     78  H38 non d ame      -5.927   3.422  67.455  0.00  0.00     0.036 H 
ATOM     79  H39 non d ame      -5.101   2.929  65.830  0.00  0.00     0.036 H 
ATOM     80  N5  non d ame      -4.039   5.526  67.064  0.00  0.00    -0.049 N 
ATOM     81  H40 non d ame      -4.153   3.682  68.127  0.00  0.00     0.075 H 
ATOM     82  H41 non d ame      -3.398   3.606  66.398  0.00  0.00     0.075 H 
ATOM     83  C28 non d ame      -5.228   6.027  66.094  0.00  0.00     0.193 C 
ATOM     84  H42 non d ame      -4.235   5.841  68.003  0.00  0.00     0.280 HD
ATOM     85  H43 non d ame      -3.154   5.750  66.630  0.00  0.00     0.280 HD
ATOM     86  H44 non d ame      -5.011   6.365  65.081  0.00  0.00     0.129 H 
ATOM     87  H37 non d ame      -5.925   5.058  64.758  0.00  0.00     0.046 H 
BRANCH  83  88
ATOM     88  O6  non d ame      -5.946   7.099  66.709  0.00  0.00    -0.369 OA
ATOM     89  H45 non d ame      -6.338   6.792  67.529  0.00  0.00     0.212 HD
ENDBRANCH  83  88
ENDBRANCH  72  75
ENDBRANCH  47  72
ENDBRANCH  45  47
ENDBRANCH   1  43
BRANCH   1  90
ATOM     90  C16 non d ame      -6.904   8.993  62.551  0.00  0.00    -0.035 C 
ATOM     91  H21 non d ame      -6.476   8.450  61.708  0.00  0.00     0.037 H 
ATOM     92  H22 non d ame      -7.064  10.069  62.480  0.00  0.00     0.037 H 
BRANCH  90  93
ATOM     93  C17 non d ame      -5.938   8.769  63.757  0.00  0.00    -0.059 C 
ATOM     94  H23 non d ame      -6.391   8.020  64.408  0.00  0.00     0.038 H 
BRANCH  93  95
ATOM     95  C18 non d ame      -4.545   8.226  63.304  0.00  0.00    -0.073 C 
ATOM     96  H24 non d ame      -4.676   7.550  62.460  0.00  0.00     0.028 H 
ATOM     97  H25 non d ame      -3.910   9.061  63.006  0.00  0.00     0.028 H 
ATOM     98  H26 non d ame      -4.077   7.691  64.130  0.00  0.00     0.028 H 
ENDBRANCH  93  95
BRANCH  93  99
ATOM     99  C19 non d ame      -5.783  10.051  64.579  0.00  0.00    -0.073 C 
ATOM    100  H27 non d ame      -4.725  10.231  64.775  0.00  0.00     0.028 H 
ATOM    101  H28 non d ame      -6.197  10.892  64.022  0.00  0.00     0.028 H 
ATOM    102  H29 non d ame      -6.315   9.944  65.524  0.00  0.00     0.028 H 
ENDBRANCH  93  99
ENDBRANCH  90  93
ENDBRANCH   1  90
TORSDOF 26
ENDMDL
MODEL 16
REMARK VINA RESULT:      -7.0      3.765      9.813
REMARK  26 active torsions:
REMARK  status: ('A' for Active; 'I' for Inactive)
REMARK    1  A    between atoms: C2_2  and  C3_3 
REMARK    2  A    between atoms: C4_6  and  C5_7 
REMARK       I    between atoms: C5_7  and  N2_9 
REMARK    3  A    between atoms: N2_9  and  C6_10 
REMARK    4  A    between atoms: C6_10  and  C7_11 
REMARK    5  A    between atoms: C6_10  and  C8_13 
REMARK       I    between atoms: C7_11  and  N3_14 
REMARK    6  A    between atoms: N3_14  and  C9_15 
REMARK    7  A    between atoms: C9_15  and  C10_16 
REMARK    8  A    between atoms: C9_15  and  C11_18 
REMARK       I    between atoms: C10_16  and  N4_21 
REMARK    9  A    between atoms: C11_18  and  C12_19 
REMARK   10  A    between atoms: C11_18  and  C13_20 
REMARK   11  A    between atoms: N4_21  and  C14_22 
REMARK   12  A    between atoms: C14_22  and  C15_23 
REMARK   13  A    between atoms: C14_22  and  C16_25 
REMARK       I    between atoms: C15_23  and  N6_40 
REMARK   14  A    between atoms: C16_25  and  C17_26 
REMARK   15  A    between atoms: C17_26  and  C18_27 
REMARK   16  A    between atoms: C17_26  and  C19_28 
REMARK   17  A    between atoms: C20_29  and  C21_30 
REMARK   18  A    between atoms: C20_29  and  C24_33 
REMARK   19  A    between atoms: C20_29  and  N6_40 
REMARK   20  A    between atoms: C21_30  and  C22_31 
REMARK   21  A    between atoms: C22_31  and  C23_32 
REMARK   22  A    between atoms: C23_32  and  O8_43 
REMARK   23  A    between atoms: C24_33  and  C25_34 
REMARK   24  A    between atoms: C28_38  and  O6_39 
REMARK   25  A    between atoms: C29_42  and  O8_43 
REMARK   26  A    between atoms: C29_42  and  C35_49 
ROOT
ATOM      1  C14 non d ame      -5.404  13.951  67.794  0.00  0.00     0.089 C 
ATOM      2  H20 non d ame      -4.908  14.083  66.832  0.00  0.00     0.087 H 
ENDROOT
BRANCH   1   3
ATOM      3  N4  non d ame      -6.034  15.217  68.139  0.00  0.00    -0.346 N 
ATOM      4  C10 non d ame      -5.637  16.485  67.426  0.00  0.00     0.241 C 
ATOM      5  O4  non d ame      -4.805  16.462  66.580  0.00  0.00    -0.271 OA
ATOM      6  H19 non d ame      -6.738  15.215  68.863  0.00  0.00     0.163 HD
BRANCH   4   7
ATOM      7  C9  non d ame      -6.304  17.785  67.791  0.00  0.00     0.092 C 
ATOM      8  H11 non d ame      -6.059  18.537  67.041  0.00  0.00     0.088 H 
BRANCH   7   9
ATOM      9  N3  non d ame      -7.759  17.610  67.771  0.00  0.00    -0.346 N 
ATOM     10  C7  non d ame      -8.537  18.166  66.691  0.00  0.00     0.240 C 
ATOM     11  O3  non d ame      -8.007  18.757  65.830  0.00  0.00    -0.271 OA
ATOM     12  H10 non d ame      -8.230  17.104  68.507  0.00  0.00     0.163 HD
BRANCH  10  13
ATOM     13  C6  non d ame     -10.086  17.980  66.677  0.00  0.00     0.086 C 
ATOM     14  H6  non d ame     -10.412  17.216  65.971  0.00  0.00     0.086 H 
BRANCH  13  15
ATOM     15  N2  non d ame     -10.520  17.542  67.993  0.00  0.00    -0.343 N 
ATOM     16  C5  non d ame     -11.070  16.195  68.160  0.00  0.00     0.273 C 
ATOM     17  O2  non d ame     -11.162  15.472  67.228  0.00  0.00    -0.266 OA
ATOM     18  H5  non d ame     -10.440  18.166  68.782  0.00  0.00     0.163 HD
BRANCH  16  19
ATOM     19  C4  non d ame     -11.531  15.718  69.546  0.00  0.00     0.154 A 
ATOM     20  C1  non d ame     -12.364  14.591  69.840  0.00  0.00    -0.017 A 
ATOM     21  C2  non d ame     -12.487  14.588  71.247  0.00  0.00     0.077 A 
ATOM     22  H1  non d ame     -12.809  13.885  69.139  0.00  0.00     0.091 H 
ATOM     23  O1  non d ame     -11.801  15.597  71.698  0.00  0.00    -0.218 OA
ATOM     24  N1  non d ame     -11.235  16.272  70.724  0.00  0.00    -0.123 NA
BRANCH  21  25
ATOM     25  C3  non d ame     -13.276  13.587  72.080  0.00  0.00    -0.029 C 
ATOM     26  H2  non d ame     -12.663  13.244  72.914  0.00  0.00     0.036 H 
ATOM     27  H3  non d ame     -14.177  14.065  72.465  0.00  0.00     0.036 H 
ATOM     28  H4  non d ame     -13.554  12.735  71.459  0.00  0.00     0.036 H 
ENDBRANCH  21  25
ENDBRANCH  16  19
ENDBRANCH  13  15
BRANCH  13  29
ATOM     29  C8  non d ame     -10.749  19.286  66.322  0.00  0.00    -0.049 C 
ATOM     30  H7  non d ame     -10.676  19.971  67.167  0.00  0.00     0.030 H 
ATOM     31  H8  non d ame     -10.251  19.723  65.456  0.00  0.00     0.030 H 
ATOM     32  H9  non d ame     -11.798  19.109  66.088  0.00  0.00     0.030 H 
ENDBRANCH  13  29
ENDBRANCH  10  13
ENDBRANCH   7   9
BRANCH   7  33
ATOM     33  C11 non d ame      -5.855  18.214  69.219  0.00  0.00    -0.033 C 
ATOM     34  H12 non d ame      -6.272  17.496  69.924  0.00  0.00     0.042 H 
BRANCH  33  35
ATOM     35  C12 non d ame      -4.302  18.168  69.365  0.00  0.00    -0.071 C 
ATOM     36  H13 non d ame      -4.028  17.405  70.094  0.00  0.00     0.028 H 
ATOM     37  H14 non d ame      -3.854  17.926  68.401  0.00  0.00     0.028 H 
ATOM     38  H15 non d ame      -3.940  19.139  69.701  0.00  0.00     0.028 H 
ENDBRANCH  33  35
BRANCH  33  39
ATOM     39  C13 non d ame      -6.416  19.627  69.580  0.00  0.00    -0.071 C 
ATOM     40  H16 non d ame      -5.771  20.096  70.322  0.00  0.00     0.028 H 
ATOM     41  H17 non d ame      -6.446  20.246  68.683  0.00  0.00     0.028 H 
ATOM     42  H18 non d ame      -7.423  19.525  69.985  0.00  0.00     0.028 H 
ENDBRANCH  33  39
ENDBRANCH   7  33
ENDBRANCH   4   7
ENDBRANCH   1   3
BRANCH   1  43
ATOM     43  C15 non d ame      -6.500  12.849  67.745  0.00  0.00     0.240 C 
ATOM     44  O5  non d ame      -6.291  11.785  68.231  0.00  0.00    -0.271 OA
ATOM     45  N6  non d ame      -7.815  13.123  67.098  0.00  0.00    -0.355 N 
ATOM     46  H46 non d ame      -8.006  14.024  66.686  0.00  0.00     0.162 HD
BRANCH  45  47
ATOM     47  C20 non d ame      -8.848  12.065  67.061  0.00  0.00     0.013 C 
ATOM     48  H30 non d ame      -8.368  11.119  67.310  0.00  0.00     0.072 H 
BRANCH  47  49
ATOM     49  C21 non d ame      -9.440  11.993  65.671  0.00  0.00    -0.038 C 
ATOM     50  H31 non d ame     -10.440  12.419  65.755  0.00  0.00     0.036 H 
ATOM     51  H32 non d ame      -8.703  12.456  65.014  0.00  0.00     0.036 H 
BRANCH  49  52
ATOM     52  C22 non d ame      -9.622  10.544  65.172  0.00  0.00     0.018 C 
ATOM     53  H33 non d ame      -8.649  10.067  65.287  0.00  0.00     0.048 H 
ATOM     54  H34 non d ame     -10.487  10.153  65.708  0.00  0.00     0.048 H 
BRANCH  52  55
ATOM     55  C23 non d ame      -9.974  10.441  63.661  0.00  0.00     0.259 C 
ATOM     56  O7  non d ame     -10.866  11.081  63.205  0.00  0.00    -0.265 OA
BRANCH  55  57
ATOM     57  O8  non d ame      -9.225   9.564  62.829  0.00  0.00    -0.317 OA
BRANCH  57  58
ATOM     58  C29 non d ame      -7.808   9.727  62.938  0.00  0.00     0.052 C 
ATOM     59  H47 non d ame      -7.491  10.185  62.001  0.00  0.00     0.082 H 
ATOM     60  H48 non d ame      -7.642  10.246  63.882  0.00  0.00     0.082 H 
BRANCH  58  61
ATOM     61  C35 non d ame      -7.169   8.316  63.036  0.00  0.00    -0.034 A 
ATOM     62  C30 non d ame      -5.787   8.181  63.122  0.00  0.00    -0.075 A 
ATOM     63  C31 non d ame      -5.214   6.913  63.210  0.00  0.00    -0.082 A 
ATOM     64  H49 non d ame      -5.154   9.068  63.122  0.00  0.00     0.084 H 
ATOM     65  C32 non d ame      -6.028   5.777  63.209  0.00  0.00    -0.083 A 
ATOM     66  H50 non d ame      -4.131   6.811  63.280  0.00  0.00     0.083 H 
ATOM     67  C33 non d ame      -7.406   5.917  63.119  0.00  0.00    -0.082 A 
ATOM     68  H51 non d ame      -5.588   4.783  63.278  0.00  0.00     0.083 H 
ATOM     69  C34 non d ame      -7.984   7.182  63.034  0.00  0.00    -0.075 A 
ATOM     70  H52 non d ame      -8.038   5.028  63.117  0.00  0.00     0.083 H 
ATOM     71  H53 non d ame      -9.067   7.283  62.965  0.00  0.00     0.084 H 
ENDBRANCH  58  61
ENDBRANCH  57  58
ENDBRANCH  55  57
ENDBRANCH  52  55
ENDBRANCH  49  52
ENDBRANCH  47  49
BRANCH  47  72
ATOM     72  C24 non d ame      -9.950  12.383  68.069  0.00  0.00    -0.039 C 
ATOM     73  H35 non d ame      -9.552  13.186  68.690  0.00  0.00     0.036 H 
ATOM     74  H36 non d ame     -10.848  12.548  67.474  0.00  0.00     0.036 H 
BRANCH  72  75
ATOM     75  C25 non d ame     -10.245  11.140  69.036  0.00  0.00    -0.001 C 
ATOM     76  C26 non d ame      -9.129   9.958  68.785  0.00  0.00    -0.035 C 
ATOM     77  C27 non d ame      -9.775   8.786  68.577  0.00  0.00     0.085 C 
ATOM     78  H38 non d ame      -8.606  10.132  67.846  0.00  0.00     0.036 H 
ATOM     79  H39 non d ame      -8.563   9.778  69.700  0.00  0.00     0.036 H 
ATOM     80  N5  non d ame     -11.228   9.119  68.337  0.00  0.00    -0.049 N 
ATOM     81  H40 non d ame      -9.348   8.377  67.660  0.00  0.00     0.075 H 
ATOM     82  H41 non d ame      -9.687   8.234  69.512  0.00  0.00     0.075 H 
ATOM     83  C28 non d ame     -11.419  10.647  68.820  0.00  0.00     0.193 C 
ATOM     84  H42 non d ame     -11.370   9.076  67.338  0.00  0.00     0.280 HD
ATOM     85  H43 non d ame     -11.763   8.520  68.949  0.00  0.00     0.280 HD
ATOM     86  H44 non d ame     -11.906  10.872  69.769  0.00  0.00     0.129 H 
ATOM     87  H37 non d ame     -10.415  11.451  70.067  0.00  0.00     0.046 H 
BRANCH  83  88
ATOM     88  O6  non d ame     -12.141  11.389  67.835  0.00  0.00    -0.369 OA
ATOM     89  H45 non d ame     -13.025  11.575  68.159  0.00  0.00     0.212 HD
ENDBRANCH  83  88
ENDBRANCH  72  75
ENDBRANCH  47  72
ENDBRANCH  45  47
ENDBRANCH   1  43
BRANCH   1  90
ATOM     90  C16 non d ame      -4.376  13.603  68.859  0.00  0.00    -0.035 C 
ATOM     91  H21 non d ame      -4.526  12.544  69.070  0.00  0.00     0.037 H 
ATOM     92  H22 non d ame      -3.421  13.949  68.463  0.00  0.00     0.037 H 
BRANCH  90  93
ATOM     93  C17 non d ame      -4.593  14.357  70.209  0.00  0.00    -0.059 C 
ATOM     94  H23 non d ame      -5.198  15.239  70.002  0.00  0.00     0.038 H 
BRANCH  93  95
ATOM     95  C18 non d ame      -5.363  13.486  71.253  0.00  0.00    -0.073 C 
ATOM     96  H24 non d ame      -4.725  13.307  72.118  0.00  0.00     0.028 H 
ATOM     97  H25 non d ame      -6.265  14.010  71.569  0.00  0.00     0.028 H 
ATOM     98  H26 non d ame      -5.636  12.533  70.800  0.00  0.00     0.028 H 
ENDBRANCH  93  95
BRANCH  93  99
ATOM     99  C19 non d ame      -3.260  14.844  70.784  0.00  0.00    -0.073 C 
ATOM    100  H27 non d ame      -2.527  14.038  70.735  0.00  0.00     0.028 H 
ATOM    101  H28 non d ame      -2.904  15.695  70.203  0.00  0.00     0.028 H 
ATOM    102  H29 non d ame      -3.400  15.145  71.821  0.00  0.00     0.028 H 
ENDBRANCH  93  99
ENDBRANCH  90  93
ENDBRANCH   1  90
TORSDOF 26
ENDMDL
MODEL 17
REMARK VINA RESULT:      -7.0      3.149      6.227
REMARK  26 active torsions:
REMARK  status: ('A' for Active; 'I' for Inactive)
REMARK    1  A    between atoms: C2_2  and  C3_3 
REMARK    2  A    between atoms: C4_6  and  C5_7 
REMARK       I    between atoms: C5_7  and  N2_9 
REMARK    3  A    between atoms: N2_9  and  C6_10 
REMARK    4  A    between atoms: C6_10  and  C7_11 
REMARK    5  A    between atoms: C6_10  and  C8_13 
REMARK       I    between atoms: C7_11  and  N3_14 
REMARK    6  A    between atoms: N3_14  and  C9_15 
REMARK    7  A    between atoms: C9_15  and  C10_16 
REMARK    8  A    between atoms: C9_15  and  C11_18 
REMARK       I    between atoms: C10_16  and  N4_21 
REMARK    9  A    between atoms: C11_18  and  C12_19 
REMARK   10  A    between atoms: C11_18  and  C13_20 
REMARK   11  A    between atoms: N4_21  and  C14_22 
REMARK   12  A    between atoms: C14_22  and  C15_23 
REMARK   13  A    between atoms: C14_22  and  C16_25 
REMARK       I    between atoms: C15_23  and  N6_40 
REMARK   14  A    between atoms: C16_25  and  C17_26 
REMARK   15  A    between atoms: C17_26  and  C18_27 
REMARK   16  A    between atoms: C17_26  and  C19_28 
REMARK   17  A    between atoms: C20_29  and  C21_30 
REMARK   18  A    between atoms: C20_29  and  C24_33 
REMARK   19  A    between atoms: C20_29  and  N6_40 
REMARK   20  A    between atoms: C21_30  and  C22_31 
REMARK   21  A    between atoms: C22_31  and  C23_32 
REMARK   22  A    between atoms: C23_32  and  O8_43 
REMARK   23  A    between atoms: C24_33  and  C25_34 
REMARK   24  A    between atoms: C28_38  and  O6_39 
REMARK   25  A    between atoms: C29_42  and  O8_43 
REMARK   26  A    between atoms: C29_42  and  C35_49 
ROOT
ATOM      1  C14 non d ame     -10.057  12.031  65.280  0.00  0.00     0.089 C 
ATOM      2  H20 non d ame      -9.938  12.362  64.248  0.00  0.00     0.087 H 
ENDROOT
BRANCH   1   3
ATOM      3  N4  non d ame      -9.257  10.826  65.448  0.00  0.00    -0.346 N 
ATOM      4  C10 non d ame      -9.033   9.892  64.286  0.00  0.00     0.241 C 
ATOM      5  O4  non d ame      -9.510  10.128  63.225  0.00  0.00    -0.271 OA
ATOM      6  H19 non d ame      -8.862  10.642  66.360  0.00  0.00     0.163 HD
BRANCH   4   7
ATOM      7  C9  non d ame      -8.198   8.653  64.477  0.00  0.00     0.092 C 
ATOM      8  H11 non d ame      -7.339   8.893  65.103  0.00  0.00     0.088 H 
BRANCH   7   9
ATOM      9  N3  non d ame      -8.983   7.639  65.188  0.00  0.00    -0.346 N 
ATOM     10  C7  non d ame      -8.481   7.069  66.415  0.00  0.00     0.240 C 
ATOM     11  O3  non d ame      -7.448   7.414  66.843  0.00  0.00    -0.271 OA
ATOM     12  H10 non d ame      -9.875   7.330  64.830  0.00  0.00     0.163 HD
BRANCH  10  13
ATOM     13  C6  non d ame      -9.319   5.988  67.165  0.00  0.00     0.086 C 
ATOM     14  H6  non d ame      -8.703   5.313  67.758  0.00  0.00     0.086 H 
BRANCH  13  15
ATOM     15  N2  non d ame     -10.221   6.651  68.093  0.00  0.00    -0.343 N 
ATOM     16  C5  non d ame      -9.902   6.667  69.522  0.00  0.00     0.273 C 
ATOM     17  O2  non d ame      -8.919   6.141  69.916  0.00  0.00    -0.266 OA
ATOM     18  H5  non d ame     -11.060   7.095  67.748  0.00  0.00     0.163 HD
BRANCH  16  19
ATOM     19  C4  non d ame     -10.846   7.365  70.514  0.00  0.00     0.154 A 
ATOM     20  C1  non d ame     -11.504   8.624  70.341  0.00  0.00    -0.017 A 
ATOM     21  C2  non d ame     -12.247   8.811  71.528  0.00  0.00     0.077 A 
ATOM     22  H1  non d ame     -11.451   9.298  69.486  0.00  0.00     0.091 H 
ATOM     23  O1  non d ame     -12.035   7.775  72.285  0.00  0.00    -0.218 OA
ATOM     24  N1  non d ame     -11.220   6.918  71.716  0.00  0.00    -0.123 NA
BRANCH  21  25
ATOM     25  C3  non d ame     -13.134  10.005  71.857  0.00  0.00    -0.029 C 
ATOM     26  H2  non d ame     -13.176  10.139  72.938  0.00  0.00     0.036 H 
ATOM     27  H3  non d ame     -12.722  10.902  71.395  0.00  0.00     0.036 H 
ATOM     28  H4  non d ame     -14.140   9.828  71.474  0.00  0.00     0.036 H 
ENDBRANCH  21  25
ENDBRANCH  16  19
ENDBRANCH  13  15
BRANCH  13  29
ATOM     29  C8  non d ame     -10.108   5.178  66.168  0.00  0.00    -0.049 C 
ATOM     30  H7  non d ame     -10.786   5.834  65.622  0.00  0.00     0.030 H 
ATOM     31  H8  non d ame      -9.424   4.698  65.468  0.00  0.00     0.030 H 
ATOM     32  H9  non d ame     -10.684   4.417  66.693  0.00  0.00     0.030 H 
ENDBRANCH  13  29
ENDBRANCH  10  13
ENDBRANCH   7   9
BRANCH   7  33
ATOM     33  C11 non d ame      -7.773   8.095  63.088  0.00  0.00    -0.033 C 
ATOM     34  H12 non d ame      -8.323   8.650  62.328  0.00  0.00     0.042 H 
BRANCH  33  35
ATOM     35  C12 non d ame      -6.251   8.323  62.825  0.00  0.00    -0.071 C 
ATOM     36  H13 non d ame      -5.854   7.490  62.245  0.00  0.00     0.028 H 
ATOM     37  H14 non d ame      -6.114   9.251  62.270  0.00  0.00     0.028 H 
ATOM     38  H15 non d ame      -5.724   8.387  63.777  0.00  0.00     0.028 H 
ENDBRANCH  33  35
BRANCH  33  39
ATOM     39  C13 non d ame      -8.151   6.585  62.951  0.00  0.00    -0.071 C 
ATOM     40  H16 non d ame      -9.222   6.493  62.777  0.00  0.00     0.028 H 
ATOM     41  H17 non d ame      -7.607   6.149  62.113  0.00  0.00     0.028 H 
ATOM     42  H18 non d ame      -7.885   6.060  63.869  0.00  0.00     0.028 H 
ENDBRANCH  33  39
ENDBRANCH   7  33
ENDBRANCH   4   7
ENDBRANCH   1   3
BRANCH   1  43
ATOM     43  C15 non d ame      -9.566  13.098  66.299  0.00  0.00     0.240 C 
ATOM     44  O5  non d ame      -9.522  12.833  67.457  0.00  0.00    -0.271 OA
ATOM     45  N6  non d ame      -9.143  14.448  65.831  0.00  0.00    -0.355 N 
ATOM     46  H46 non d ame      -9.171  14.683  64.850  0.00  0.00     0.162 HD
BRANCH  45  47
ATOM     47  C20 non d ame      -8.677  15.452  66.813  0.00  0.00     0.013 C 
ATOM     48  H30 non d ame      -9.217  15.285  67.745  0.00  0.00     0.072 H 
BRANCH  47  49
ATOM     49  C21 non d ame      -8.970  16.839  66.287  0.00  0.00    -0.038 C 
ATOM     50  H31 non d ame      -8.205  17.485  66.718  0.00  0.00     0.036 H 
ATOM     51  H32 non d ame      -9.049  16.732  65.205  0.00  0.00     0.036 H 
BRANCH  49  52
ATOM     52  C22 non d ame     -10.329  17.388  66.772  0.00  0.00     0.018 C 
ATOM     53  H33 non d ame     -10.440  18.363  66.296  0.00  0.00     0.048 H 
ATOM     54  H34 non d ame     -11.055  16.599  66.572  0.00  0.00     0.048 H 
BRANCH  52  55
ATOM     55  C23 non d ame     -10.390  17.649  68.302  0.00  0.00     0.259 C 
ATOM     56  O7  non d ame      -9.714  18.492  68.798  0.00  0.00    -0.265 OA
BRANCH  55  57
ATOM     57  O8  non d ame     -11.254  16.859  69.110  0.00  0.00    -0.317 OA
BRANCH  57  58
ATOM     58  C29 non d ame     -10.576  15.886  69.909  0.00  0.00     0.052 C 
ATOM     59  H47 non d ame     -10.234  15.119  69.214  0.00  0.00     0.082 H 
ATOM     60  H48 non d ame      -9.853  16.444  70.504  0.00  0.00     0.082 H 
BRANCH  58  61
ATOM     61  C35 non d ame     -11.614  15.249  70.871  0.00  0.00    -0.034 A 
ATOM     62  C30 non d ame     -12.180  14.014  70.567  0.00  0.00    -0.075 A 
ATOM     63  C31 non d ame     -13.112  13.442  71.431  0.00  0.00    -0.082 A 
ATOM     64  H49 non d ame     -11.892  13.496  69.653  0.00  0.00     0.084 H 
ATOM     65  C32 non d ame     -13.481  14.110  72.601  0.00  0.00    -0.083 A 
ATOM     66  H50 non d ame     -13.552  12.474  71.191  0.00  0.00     0.083 H 
ATOM     67  C33 non d ame     -12.917  15.343  72.899  0.00  0.00    -0.082 A 
ATOM     68  H51 non d ame     -14.209  13.669  73.283  0.00  0.00     0.083 H 
ATOM     69  C34 non d ame     -11.983  15.918  72.040  0.00  0.00    -0.075 A 
ATOM     70  H52 non d ame     -13.209  15.863  73.812  0.00  0.00     0.083 H 
ATOM     71  H53 non d ame     -11.543  16.886  72.281  0.00  0.00     0.084 H 
ENDBRANCH  58  61
ENDBRANCH  57  58
ENDBRANCH  55  57
ENDBRANCH  52  55
ENDBRANCH  49  52
ENDBRANCH  47  49
BRANCH  47  72
ATOM     72  C24 non d ame      -7.174  15.298  67.036  0.00  0.00    -0.039 C 
ATOM     73  H35 non d ame      -6.838  14.595  66.272  0.00  0.00     0.036 H 
ATOM     74  H36 non d ame      -6.778  16.313  67.054  0.00  0.00     0.036 H 
BRANCH  72  75
ATOM     75  C25 non d ame      -6.850  14.639  68.459  0.00  0.00    -0.001 C 
ATOM     76  C26 non d ame      -5.750  15.558  69.265  0.00  0.00    -0.035 C 
ATOM     77  C27 non d ame      -4.737  14.761  69.681  0.00  0.00     0.085 C 
ATOM     78  H38 non d ame      -5.265  16.249  68.577  0.00  0.00     0.036 H 
ATOM     79  H39 non d ame      -6.182  15.928  70.195  0.00  0.00     0.036 H 
ATOM     80  N5  non d ame      -4.881  13.447  68.953  0.00  0.00    -0.049 N 
ATOM     81  H40 non d ame      -3.823  15.254  69.347  0.00  0.00     0.075 H 
ATOM     82  H41 non d ame      -4.912  14.599  70.744  0.00  0.00     0.075 H 
ATOM     83  C28 non d ame      -6.368  13.448  68.325  0.00  0.00     0.193 C 
ATOM     84  H42 non d ame      -4.212  13.464  68.197  0.00  0.00     0.280 HD
ATOM     85  H43 non d ame      -4.830  12.723  69.656  0.00  0.00     0.280 HD
ATOM     86  H44 non d ame      -7.163  12.859  68.783  0.00  0.00     0.129 H 
ATOM     87  H37 non d ame      -7.755  14.359  69.000  0.00  0.00     0.046 H 
BRANCH  83  88
ATOM     88  O6  non d ame      -6.326  13.035  66.958  0.00  0.00    -0.369 OA
ATOM     89  H45 non d ame      -5.777  12.252  66.877  0.00  0.00     0.212 HD
ENDBRANCH  83  88
ENDBRANCH  72  75
ENDBRANCH  47  72
ENDBRANCH  45  47
ENDBRANCH   1  43
BRANCH   1  90
ATOM     90  C16 non d ame     -11.516  11.699  65.549  0.00  0.00    -0.035 C 
ATOM     91  H21 non d ame     -11.656  10.686  65.172  0.00  0.00     0.037 H 
ATOM     92  H22 non d ame     -11.670  11.912  66.607  0.00  0.00     0.037 H 
BRANCH  90  93
ATOM     93  C17 non d ame     -12.519  12.604  64.766  0.00  0.00    -0.059 C 
ATOM     94  H23 non d ame     -13.479  12.089  64.740  0.00  0.00     0.038 H 
BRANCH  93  95
ATOM     95  C18 non d ame     -12.738  13.984  65.467  0.00  0.00    -0.073 C 
ATOM     96  H24 non d ame     -12.940  14.745  64.714  0.00  0.00     0.028 H 
ATOM     97  H25 non d ame     -13.585  13.914  66.150  0.00  0.00     0.028 H 
ATOM     98  H26 non d ame     -11.842  14.253  66.026  0.00  0.00     0.028 H 
ENDBRANCH  93  95
BRANCH  93  99
ATOM     99  C19 non d ame     -12.067  12.796  63.317  0.00  0.00    -0.073 C 
ATOM    100  H27 non d ame     -11.295  12.064  63.077  0.00  0.00     0.028 H 
ATOM    101  H28 non d ame     -12.918  12.658  62.649  0.00  0.00     0.028 H 
ATOM    102  H29 non d ame     -11.666  13.801  63.191  0.00  0.00     0.028 H 
ENDBRANCH  93  99
ENDBRANCH  90  93
ENDBRANCH   1  90
TORSDOF 26
ENDMDL
MODEL 18
REMARK VINA RESULT:      -7.0      2.902      5.718
REMARK  26 active torsions:
REMARK  status: ('A' for Active; 'I' for Inactive)
REMARK    1  A    between atoms: C2_2  and  C3_3 
REMARK    2  A    between atoms: C4_6  and  C5_7 
REMARK       I    between atoms: C5_7  and  N2_9 
REMARK    3  A    between atoms: N2_9  and  C6_10 
REMARK    4  A    between atoms: C6_10  and  C7_11 
REMARK    5  A    between atoms: C6_10  and  C8_13 
REMARK       I    between atoms: C7_11  and  N3_14 
REMARK    6  A    between atoms: N3_14  and  C9_15 
REMARK    7  A    between atoms: C9_15  and  C10_16 
REMARK    8  A    between atoms: C9_15  and  C11_18 
REMARK       I    between atoms: C10_16  and  N4_21 
REMARK    9  A    between atoms: C11_18  and  C12_19 
REMARK   10  A    between atoms: C11_18  and  C13_20 
REMARK   11  A    between atoms: N4_21  and  C14_22 
REMARK   12  A    between atoms: C14_22  and  C15_23 
REMARK   13  A    between atoms: C14_22  and  C16_25 
REMARK       I    between atoms: C15_23  and  N6_40 
REMARK   14  A    between atoms: C16_25  and  C17_26 
REMARK   15  A    between atoms: C17_26  and  C18_27 
REMARK   16  A    between atoms: C17_26  and  C19_28 
REMARK   17  A    between atoms: C20_29  and  C21_30 
REMARK   18  A    between atoms: C20_29  and  C24_33 
REMARK   19  A    between atoms: C20_29  and  N6_40 
REMARK   20  A    between atoms: C21_30  and  C22_31 
REMARK   21  A    between atoms: C22_31  and  C23_32 
REMARK   22  A    between atoms: C23_32  and  O8_43 
REMARK   23  A    between atoms: C24_33  and  C25_34 
REMARK   24  A    between atoms: C28_38  and  O6_39 
REMARK   25  A    between atoms: C29_42  and  O8_43 
REMARK   26  A    between atoms: C29_42  and  C35_49 
ROOT
ATOM      1  C14 non d ame     -11.924  14.370  70.068  0.00  0.00     0.089 C 
ATOM      2  H20 non d ame     -12.904  14.405  69.591  0.00  0.00     0.087 H 
ENDROOT
BRANCH   1   3
ATOM      3  N4  non d ame     -11.613  12.973  70.329  0.00  0.00    -0.346 N 
ATOM      4  C10 non d ame     -11.738  11.947  69.231  0.00  0.00     0.241 C 
ATOM      5  O4  non d ame     -12.094  12.269  68.146  0.00  0.00    -0.271 OA
ATOM      6  H19 non d ame     -11.314  12.719  71.260  0.00  0.00     0.163 HD
BRANCH   4   7
ATOM      7  C9  non d ame     -11.407  10.506  69.518  0.00  0.00     0.092 C 
ATOM      8  H11 non d ame     -11.880   9.873  68.768  0.00  0.00     0.088 H 
BRANCH   7   9
ATOM      9  N3  non d ame      -9.959  10.305  69.403  0.00  0.00    -0.346 N 
ATOM     10  C7  non d ame      -9.443   9.222  68.602  0.00  0.00     0.240 C 
ATOM     11  O3  non d ame     -10.179   8.502  68.044  0.00  0.00    -0.271 OA
ATOM     12  H10 non d ame      -9.312  10.917  69.880  0.00  0.00     0.163 HD
BRANCH  10  13
ATOM     13  C6  non d ame      -7.902   9.011  68.486  0.00  0.00     0.086 C 
ATOM     14  H6  non d ame      -7.576   8.052  68.886  0.00  0.00     0.086 H 
BRANCH  13  15
ATOM     15  N2  non d ame      -7.528   9.025  67.081  0.00  0.00    -0.343 N 
ATOM     16  C5  non d ame      -7.774  10.226  66.281  0.00  0.00     0.273 C 
ATOM     17  O2  non d ame      -8.275  11.176  66.775  0.00  0.00    -0.266 OA
ATOM     18  H5  non d ame      -7.103   8.208  66.666  0.00  0.00     0.163 HD
BRANCH  16  19
ATOM     19  C4  non d ame      -7.383  10.255  64.795  0.00  0.00     0.154 A 
ATOM     20  C1  non d ame      -8.266  10.262  63.669  0.00  0.00    -0.017 A 
ATOM     21  C2  non d ame      -7.415  10.291  62.541  0.00  0.00     0.077 A 
ATOM     22  H1  non d ame      -9.356  10.248  63.669  0.00  0.00     0.091 H 
ATOM     23  O1  non d ame      -6.191  10.301  62.979  0.00  0.00    -0.218 OA
ATOM     24  N1  non d ame      -6.146  10.280  64.291  0.00  0.00    -0.123 NA
BRANCH  21  25
ATOM     25  C3  non d ame      -7.853  10.308  61.082  0.00  0.00    -0.029 C 
ATOM     26  H2  non d ame      -7.180  10.946  60.508  0.00  0.00     0.036 H 
ATOM     27  H3  non d ame      -7.823   9.295  60.682  0.00  0.00     0.036 H 
ATOM     28  H4  non d ame      -8.870  10.697  61.012  0.00  0.00     0.036 H 
ENDBRANCH  21  25
ENDBRANCH  16  19
ENDBRANCH  13  15
BRANCH  13  29
ATOM     29  C8  non d ame      -7.184  10.115  69.221  0.00  0.00    -0.049 C 
ATOM     30  H7  non d ame      -6.122  10.082  68.979  0.00  0.00     0.030 H 
ATOM     31  H8  non d ame      -7.596  11.079  68.922  0.00  0.00     0.030 H 
ATOM     32  H9  non d ame      -7.315   9.980  70.295  0.00  0.00     0.030 H 
ENDBRANCH  13  29
ENDBRANCH  10  13
ENDBRANCH   7   9
BRANCH   7  33
ATOM     33  C11 non d ame     -11.864  10.145  70.962  0.00  0.00    -0.033 C 
ATOM     34  H12 non d ame     -11.629  10.995  71.603  0.00  0.00     0.042 H 
BRANCH  33  35
ATOM     35  C12 non d ame     -13.407   9.920  71.029  0.00  0.00    -0.071 C 
ATOM     36  H13 non d ame     -13.867  10.724  71.605  0.00  0.00     0.028 H 
ATOM     37  H14 non d ame     -13.818   9.917  70.020  0.00  0.00     0.028 H 
ATOM     38  H15 non d ame     -13.614   8.964  71.509  0.00  0.00     0.028 H 
ENDBRANCH  33  35
BRANCH  33  39
ATOM     39  C13 non d ame     -11.086   8.902  71.501  0.00  0.00    -0.071 C 
ATOM     40  H16 non d ame     -10.299   8.633  70.798  0.00  0.00     0.028 H 
ATOM     41  H17 non d ame     -10.643   9.142  72.468  0.00  0.00     0.028 H 
ATOM     42  H18 non d ame     -11.775   8.065  71.615  0.00  0.00     0.028 H 
ENDBRANCH  33  39
ENDBRANCH   7  33
ENDBRANCH   4   7
ENDBRANCH   1   3
BRANCH   1  43
ATOM     43  C15 non d ame     -10.809  14.965  69.162  0.00  0.00     0.240 C 
ATOM     44  O5  non d ame      -9.737  15.199  69.620  0.00  0.00    -0.271 OA
ATOM     45  N6  non d ame     -11.074  15.236  67.720  0.00  0.00    -0.355 N 
ATOM     46  H46 non d ame     -11.979  15.037  67.319  0.00  0.00     0.162 HD
BRANCH  45  47
ATOM     47  C20 non d ame     -10.002  15.801  66.872  0.00  0.00     0.013 C 
ATOM     48  H30 non d ame      -9.045  15.528  67.315  0.00  0.00     0.072 H 
BRANCH  47  49
ATOM     49  C21 non d ame     -10.141  17.306  66.827  0.00  0.00    -0.038 C 
ATOM     50  H31 non d ame     -10.032  17.581  65.778  0.00  0.00     0.036 H 
ATOM     51  H32 non d ame     -11.067  17.532  67.357  0.00  0.00     0.036 H 
BRANCH  49  52
ATOM     52  C22 non d ame      -9.013  18.034  67.589  0.00  0.00     0.018 C 
ATOM     53  H33 non d ame      -9.027  17.625  68.600  0.00  0.00     0.048 H 
ATOM     54  H34 non d ame      -8.121  17.927  66.970  0.00  0.00     0.048 H 
BRANCH  52  55
ATOM     55  C23 non d ame      -9.246  19.563  67.743  0.00  0.00     0.259 C 
ATOM     56  O7  non d ame     -10.131  19.973  68.422  0.00  0.00    -0.265 OA
BRANCH  55  57
ATOM     57  O8  non d ame      -8.397  20.471  67.051  0.00  0.00    -0.317 OA
BRANCH  57  58
ATOM     58  C29 non d ame      -7.054  20.502  67.543  0.00  0.00     0.052 C 
ATOM     59  H47 non d ame      -6.990  21.392  68.169  0.00  0.00     0.082 H 
ATOM     60  H48 non d ame      -6.876  19.517  67.975  0.00  0.00     0.082 H 
BRANCH  58  61
ATOM     61  C35 non d ame      -6.104  20.685  66.330  0.00  0.00    -0.034 A 
ATOM     62  C30 non d ame      -6.555  20.408  65.043  0.00  0.00    -0.075 A 
ATOM     63  C31 non d ame      -5.702  20.572  63.953  0.00  0.00    -0.082 A 
ATOM     64  H49 non d ame      -7.578  20.063  64.889  0.00  0.00     0.084 H 
ATOM     65  C32 non d ame      -4.391  21.013  64.154  0.00  0.00    -0.083 A 
ATOM     66  H50 non d ame      -6.059  20.357  62.946  0.00  0.00     0.083 H 
ATOM     67  C33 non d ame      -3.944  21.285  65.440  0.00  0.00    -0.082 A 
ATOM     68  H51 non d ame      -3.717  21.145  63.307  0.00  0.00     0.083 H 
ATOM     69  C34 non d ame      -4.794  21.124  66.532  0.00  0.00    -0.075 A 
ATOM     70  H52 non d ame      -2.920  21.626  65.593  0.00  0.00     0.083 H 
ATOM     71  H53 non d ame      -4.436  21.340  67.539  0.00  0.00     0.084 H 
ENDBRANCH  58  61
ENDBRANCH  57  58
ENDBRANCH  55  57
ENDBRANCH  52  55
ENDBRANCH  49  52
ENDBRANCH  47  49
BRANCH  47  72
ATOM     72  C24 non d ame     -10.112  15.236  65.457  0.00  0.00    -0.039 C 
ATOM     73  H35 non d ame     -10.236  16.103  64.807  0.00  0.00     0.036 H 
ATOM     74  H36 non d ame      -9.247  14.585  65.336  0.00  0.00     0.036 H 
BRANCH  72  75
ATOM     75  C25 non d ame     -11.418  14.324  65.283  0.00  0.00    -0.001 C 
ATOM     76  C26 non d ame     -10.985  12.813  64.799  0.00  0.00    -0.035 C 
ATOM     77  C27 non d ame     -11.713  12.479  63.707  0.00  0.00     0.085 C 
ATOM     78  H38 non d ame      -9.960  12.818  64.430  0.00  0.00     0.036 H 
ATOM     79  H39 non d ame     -11.293  12.080  65.544  0.00  0.00     0.036 H 
ATOM     80  N5  non d ame     -12.365  13.746  63.207  0.00  0.00    -0.049 N 
ATOM     81  H40 non d ame     -10.988  12.136  62.967  0.00  0.00     0.075 H 
ATOM     82  H41 non d ame     -12.485  11.801  64.068  0.00  0.00     0.075 H 
ATOM     83  C28 non d ame     -12.221  14.821  64.402  0.00  0.00     0.193 C 
ATOM     84  H42 non d ame     -11.813  14.061  62.422  0.00  0.00     0.280 HD
ATOM     85  H43 non d ame     -13.344  13.533  63.082  0.00  0.00     0.280 HD
ATOM     86  H44 non d ame     -13.077  15.068  65.031  0.00  0.00     0.129 H 
ATOM     87  H37 non d ame     -12.090  14.398  66.138  0.00  0.00     0.046 H 
BRANCH  83  88
ATOM     88  O6  non d ame     -11.752  16.069  63.888  0.00  0.00    -0.369 OA
ATOM     89  H45 non d ame     -11.860  16.750  64.556  0.00  0.00     0.212 HD
ENDBRANCH  83  88
ENDBRANCH  72  75
ENDBRANCH  47  72
ENDBRANCH  45  47
ENDBRANCH   1  43
BRANCH   1  90
ATOM     90  C16 non d ame     -11.967  15.124  71.388  0.00  0.00    -0.035 C 
ATOM     91  H21 non d ame     -11.575  14.429  72.130  0.00  0.00     0.037 H 
ATOM     92  H22 non d ame     -11.453  16.067  71.199  0.00  0.00     0.037 H 
BRANCH  90  93
ATOM     93  C17 non d ame     -13.412  15.494  71.851  0.00  0.00    -0.059 C 
ATOM     94  H23 non d ame     -13.742  16.347  71.257  0.00  0.00     0.038 H 
BRANCH  93  95
ATOM     95  C18 non d ame     -14.425  14.328  71.614  0.00  0.00    -0.073 C 
ATOM     96  H24 non d ame     -14.540  14.160  70.543  0.00  0.00     0.028 H 
ATOM     97  H25 non d ame     -14.049  13.420  72.086  0.00  0.00     0.028 H 
ATOM     98  H26 non d ame     -15.390  14.591  72.047  0.00  0.00     0.028 H 
ENDBRANCH  93  95
BRANCH  93  99
ATOM     99  C19 non d ame     -13.421  15.932  73.318  0.00  0.00    -0.073 C 
ATOM    100  H27 non d ame     -13.263  15.063  73.958  0.00  0.00     0.028 H 
ATOM    101  H28 non d ame     -12.623  16.656  73.485  0.00  0.00     0.028 H 
ATOM    102  H29 non d ame     -14.381  16.389  73.555  0.00  0.00     0.028 H 
ENDBRANCH  93  99
ENDBRANCH  90  93
ENDBRANCH   1  90
TORSDOF 26
ENDMDL
MODEL 19
REMARK VINA RESULT:      -7.0      2.797      7.047
REMARK  26 active torsions:
REMARK  status: ('A' for Active; 'I' for Inactive)
REMARK    1  A    between atoms: C2_2  and  C3_3 
REMARK    2  A    between atoms: C4_6  and  C5_7 
REMARK       I    between atoms: C5_7  and  N2_9 
REMARK    3  A    between atoms: N2_9  and  C6_10 
REMARK    4  A    between atoms: C6_10  and  C7_11 
REMARK    5  A    between atoms: C6_10  and  C8_13 
REMARK       I    between atoms: C7_11  and  N3_14 
REMARK    6  A    between atoms: N3_14  and  C9_15 
REMARK    7  A    between atoms: C9_15  and  C10_16 
REMARK    8  A    between atoms: C9_15  and  C11_18 
REMARK       I    between atoms: C10_16  and  N4_21 
REMARK    9  A    between atoms: C11_18  and  C12_19 
REMARK   10  A    between atoms: C11_18  and  C13_20 
REMARK   11  A    between atoms: N4_21  and  C14_22 
REMARK   12  A    between atoms: C14_22  and  C15_23 
REMARK   13  A    between atoms: C14_22  and  C16_25 
REMARK       I    between atoms: C15_23  and  N6_40 
REMARK   14  A    between atoms: C16_25  and  C17_26 
REMARK   15  A    between atoms: C17_26  and  C18_27 
REMARK   16  A    between atoms: C17_26  and  C19_28 
REMARK   17  A    between atoms: C20_29  and  C21_30 
REMARK   18  A    between atoms: C20_29  and  C24_33 
REMARK   19  A    between atoms: C20_29  and  N6_40 
REMARK   20  A    between atoms: C21_30  and  C22_31 
REMARK   21  A    between atoms: C22_31  and  C23_32 
REMARK   22  A    between atoms: C23_32  and  O8_43 
REMARK   23  A    between atoms: C24_33  and  C25_34 
REMARK   24  A    between atoms: C28_38  and  O6_39 
REMARK   25  A    between atoms: C29_42  and  O8_43 
REMARK   26  A    between atoms: C29_42  and  C35_49 
ROOT
ATOM      1  C14 non d ame     -11.153   9.127  69.633  0.00  0.00     0.089 C 
ATOM      2  H20 non d ame     -12.128   8.667  69.798  0.00  0.00     0.087 H 
ENDROOT
BRANCH   1   3
ATOM      3  N4  non d ame     -10.316   8.148  68.955  0.00  0.00    -0.346 N 
ATOM      4  C10 non d ame     -10.658   6.681  69.016  0.00  0.00     0.241 C 
ATOM      5  O4  non d ame     -11.610   6.311  69.619  0.00  0.00    -0.271 OA
ATOM      6  H19 non d ame      -9.508   8.483  68.448  0.00  0.00     0.163 HD
BRANCH   4   7
ATOM      7  C9  non d ame      -9.783   5.682  68.303  0.00  0.00     0.092 C 
ATOM      8  H11 non d ame     -10.400   5.074  67.642  0.00  0.00     0.088 H 
BRANCH   7   9
ATOM      9  N3  non d ame      -8.815   6.393  67.462  0.00  0.00    -0.346 N 
ATOM     10  C7  non d ame      -8.786   6.155  66.040  0.00  0.00     0.240 C 
ATOM     11  O3  non d ame      -9.534   5.395  65.556  0.00  0.00    -0.271 OA
ATOM     12  H10 non d ame      -8.163   7.050  67.865  0.00  0.00     0.163 HD
BRANCH  10  13
ATOM     13  C6  non d ame      -7.752   6.912  65.150  0.00  0.00     0.086 C 
ATOM     14  H6  non d ame      -7.295   6.270  64.397  0.00  0.00     0.086 H 
BRANCH  13  15
ATOM     15  N2  non d ame      -8.436   7.974  64.431  0.00  0.00    -0.343 N 
ATOM     16  C5  non d ame      -9.003   9.100  65.176  0.00  0.00     0.273 C 
ATOM     17  O2  non d ame      -8.906   9.140  66.354  0.00  0.00    -0.266 OA
ATOM     18  H5  non d ame      -8.516   7.930  63.425  0.00  0.00     0.163 HD
BRANCH  16  19
ATOM     19  C4  non d ame      -9.727  10.231  64.429  0.00  0.00     0.154 A 
ATOM     20  C1  non d ame     -10.526  11.272  65.001  0.00  0.00    -0.017 A 
ATOM     21  C2  non d ame     -10.958  12.044  63.900  0.00  0.00     0.077 A 
ATOM     22  H1  non d ame     -10.756  11.441  66.053  0.00  0.00     0.091 H 
ATOM     23  O1  non d ame     -10.460  11.503  62.827  0.00  0.00    -0.218 OA
ATOM     24  N1  non d ame      -9.738  10.443  63.110  0.00  0.00    -0.123 NA
BRANCH  21  25
ATOM     25  C3  non d ame     -11.843  13.282  63.959  0.00  0.00    -0.029 C 
ATOM     26  H2  non d ame     -11.868  13.663  64.980  0.00  0.00     0.036 H 
ATOM     27  H3  non d ame     -11.441  14.048  63.296  0.00  0.00     0.036 H 
ATOM     28  H4  non d ame     -12.854  13.023  63.643  0.00  0.00     0.036 H 
ENDBRANCH  21  25
ENDBRANCH  16  19
ENDBRANCH  13  15
BRANCH  13  29
ATOM     29  C8  non d ame      -6.666   7.493  66.020  0.00  0.00    -0.049 C 
ATOM     30  H7  non d ame      -6.810   8.569  66.110  0.00  0.00     0.030 H 
ATOM     31  H8  non d ame      -6.709   7.035  67.008  0.00  0.00     0.030 H 
ATOM     32  H9  non d ame      -5.694   7.293  65.569  0.00  0.00     0.030 H 
ENDBRANCH  13  29
ENDBRANCH  10  13
ENDBRANCH   7   9
BRANCH   7  33
ATOM     33  C11 non d ame      -9.021   4.820  69.351  0.00  0.00    -0.033 C 
ATOM     34  H12 non d ame      -9.393   5.097  70.338  0.00  0.00     0.042 H 
BRANCH  33  35
ATOM     35  C12 non d ame      -9.307   3.299  69.152  0.00  0.00    -0.071 C 
ATOM     36  H13 non d ame      -8.822   2.731  69.946  0.00  0.00     0.028 H 
ATOM     37  H14 non d ame     -10.382   3.124  69.186  0.00  0.00     0.028 H 
ATOM     38  H15 non d ame      -8.917   2.980  68.186  0.00  0.00     0.028 H 
ENDBRANCH  33  35
BRANCH  33  39
ATOM     39  C13 non d ame      -7.488   5.118  69.312  0.00  0.00    -0.071 C 
ATOM     40  H16 non d ame      -7.260   5.940  69.989  0.00  0.00     0.028 H 
ATOM     41  H17 non d ame      -6.937   4.229  69.621  0.00  0.00     0.028 H 
ATOM     42  H18 non d ame      -7.197   5.390  68.297  0.00  0.00     0.028 H 
ENDBRANCH  33  39
ENDBRANCH   7  33
ENDBRANCH   4   7
ENDBRANCH   1   3
BRANCH   1  43
ATOM     43  C15 non d ame     -11.248  10.399  68.743  0.00  0.00     0.240 C 
ATOM     44  O5  non d ame     -11.786  10.342  67.685  0.00  0.00    -0.271 OA
ATOM     45  N6  non d ame     -10.674  11.692  69.213  0.00  0.00    -0.355 N 
ATOM     46  H46 non d ame     -10.218  11.754  70.112  0.00  0.00     0.162 HD
BRANCH  45  47
ATOM     47  C20 non d ame     -10.773  12.893  68.356  0.00  0.00     0.013 C 
ATOM     48  H30 non d ame     -10.880  12.561  67.324  0.00  0.00     0.072 H 
BRANCH  47  49
ATOM     49  C21 non d ame      -9.516  13.719  68.505  0.00  0.00    -0.038 C 
ATOM     50  H31 non d ame      -9.677  14.346  69.383  0.00  0.00     0.036 H 
ATOM     51  H32 non d ame      -8.692  13.005  68.489  0.00  0.00     0.036 H 
BRANCH  49  52
ATOM     52  C22 non d ame      -9.285  14.680  67.319  0.00  0.00     0.018 C 
ATOM     53  H33 non d ame      -8.341  14.372  66.868  0.00  0.00     0.048 H 
ATOM     54  H34 non d ame     -10.204  14.650  66.732  0.00  0.00     0.048 H 
BRANCH  52  55
ATOM     55  C23 non d ame      -9.095  16.163  67.742  0.00  0.00     0.259 C 
ATOM     56  O7  non d ame      -9.678  16.602  68.679  0.00  0.00    -0.265 OA
BRANCH  55  57
ATOM     57  O8  non d ame      -8.224  16.997  66.987  0.00  0.00    -0.317 OA
BRANCH  57  58
ATOM     58  C29 non d ame      -8.649  18.360  66.904  0.00  0.00     0.052 C 
ATOM     59  H47 non d ame      -8.681  18.595  65.840  0.00  0.00     0.082 H 
ATOM     60  H48 non d ame      -9.557  18.422  67.503  0.00  0.00     0.082 H 
BRANCH  58  61
ATOM     61  C35 non d ame      -7.560  19.242  67.570  0.00  0.00    -0.034 A 
ATOM     62  C30 non d ame      -7.081  18.922  68.836  0.00  0.00    -0.075 A 
ATOM     63  C31 non d ame      -6.103  19.714  69.435  0.00  0.00    -0.082 A 
ATOM     64  H49 non d ame      -7.472  18.049  69.360  0.00  0.00     0.084 H 
ATOM     65  C32 non d ame      -5.605  20.834  68.763  0.00  0.00    -0.083 A 
ATOM     66  H50 non d ame      -5.729  19.459  70.426  0.00  0.00     0.083 H 
ATOM     67  C33 non d ame      -6.088  21.152  67.501  0.00  0.00    -0.082 A 
ATOM     68  H51 non d ame      -4.840  21.459  69.223  0.00  0.00     0.083 H 
ATOM     69  C34 non d ame      -7.064  20.361  66.898  0.00  0.00    -0.075 A 
ATOM     70  H52 non d ame      -5.699  22.027  66.980  0.00  0.00     0.083 H 
ATOM     71  H53 non d ame      -7.438  20.617  65.906  0.00  0.00     0.084 H 
ENDBRANCH  58  61
ENDBRANCH  57  58
ENDBRANCH  55  57
ENDBRANCH  52  55
ENDBRANCH  49  52
ENDBRANCH  47  49
BRANCH  47  72
ATOM     72  C24 non d ame     -11.983  13.727  68.773  0.00  0.00    -0.039 C 
ATOM     73  H35 non d ame     -11.936  14.631  68.166  0.00  0.00     0.036 H 
ATOM     74  H36 non d ame     -12.840  13.058  68.689  0.00  0.00     0.036 H 
BRANCH  72  75
ATOM     75  C25 non d ame     -11.889  14.182  70.306  0.00  0.00    -0.001 C 
ATOM     76  C26 non d ame     -12.936  13.301  71.218  0.00  0.00    -0.035 C 
ATOM     77  C27 non d ame     -13.693  14.149  71.955  0.00  0.00     0.085 C 
ATOM     78  H38 non d ame     -13.663  12.804  70.576  0.00  0.00     0.036 H 
ATOM     79  H39 non d ame     -12.390  12.729  71.968  0.00  0.00     0.036 H 
ATOM     80  N5  non d ame     -13.484  15.533  71.390  0.00  0.00    -0.049 N 
ATOM     81  H40 non d ame     -14.726  13.846  71.780  0.00  0.00     0.075 H 
ATOM     82  H41 non d ame     -13.277  14.110  72.961  0.00  0.00     0.075 H 
ATOM     83  C28 non d ame     -12.181  15.433  70.441  0.00  0.00     0.193 C 
ATOM     84  H42 non d ame     -14.288  15.731  70.812  0.00  0.00     0.280 HD
ATOM     85  H43 non d ame     -13.265  16.132  72.173  0.00  0.00     0.280 HD
ATOM     86  H44 non d ame     -11.221  15.826  70.776  0.00  0.00     0.129 H 
ATOM     87  H37 non d ame     -10.858  14.244  70.656  0.00  0.00     0.046 H 
BRANCH  83  88
ATOM     88  O6  non d ame     -12.436  16.065  69.186  0.00  0.00    -0.369 OA
ATOM     89  H45 non d ame     -12.573  15.395  68.512  0.00  0.00     0.212 HD
ENDBRANCH  83  88
ENDBRANCH  72  75
ENDBRANCH  47  72
ENDBRANCH  45  47
ENDBRANCH   1  43
BRANCH   1  90
ATOM     90  C16 non d ame     -10.518   9.483  70.967  0.00  0.00    -0.035 C 
ATOM     91  H21 non d ame      -9.551   8.979  70.971  0.00  0.00     0.037 H 
ATOM     92  H22 non d ame     -10.566  10.570  71.029  0.00  0.00     0.037 H 
BRANCH  90  93
ATOM     93  C17 non d ame     -11.305   8.935  72.201  0.00  0.00    -0.059 C 
ATOM     94  H23 non d ame     -11.237   9.680  72.994  0.00  0.00     0.038 H 
BRANCH  93  95
ATOM     95  C18 non d ame     -12.819   8.715  71.884  0.00  0.00    -0.073 C 
ATOM     96  H24 non d ame     -13.054   7.653  71.956  0.00  0.00     0.028 H 
ATOM     97  H25 non d ame     -13.425   9.271  72.600  0.00  0.00     0.028 H 
ATOM     98  H26 non d ame     -13.034   9.067  70.875  0.00  0.00     0.028 H 
ENDBRANCH  93  95
BRANCH  93  99
ATOM     99  C19 non d ame     -10.666   7.649  72.730  0.00  0.00    -0.073 C 
ATOM    100  H27 non d ame     -11.448   6.941  73.006  0.00  0.00     0.028 H 
ATOM    101  H28 non d ame     -10.037   7.211  71.955  0.00  0.00     0.028 H 
ATOM    102  H29 non d ame     -10.058   7.878  73.604  0.00  0.00     0.028 H 
ENDBRANCH  93  99
ENDBRANCH  90  93
ENDBRANCH   1  90
TORSDOF 26
ENDMDL
MODEL 20
REMARK VINA RESULT:      -6.9      2.734     10.601
REMARK  26 active torsions:
REMARK  status: ('A' for Active; 'I' for Inactive)
REMARK    1  A    between atoms: C2_2  and  C3_3 
REMARK    2  A    between atoms: C4_6  and  C5_7 
REMARK       I    between atoms: C5_7  and  N2_9 
REMARK    3  A    between atoms: N2_9  and  C6_10 
REMARK    4  A    between atoms: C6_10  and  C7_11 
REMARK    5  A    between atoms: C6_10  and  C8_13 
REMARK       I    between atoms: C7_11  and  N3_14 
REMARK    6  A    between atoms: N3_14  and  C9_15 
REMARK    7  A    between atoms: C9_15  and  C10_16 
REMARK    8  A    between atoms: C9_15  and  C11_18 
REMARK       I    between atoms: C10_16  and  N4_21 
REMARK    9  A    between atoms: C11_18  and  C12_19 
REMARK   10  A    between atoms: C11_18  and  C13_20 
REMARK   11  A    between atoms: N4_21  and  C14_22 
REMARK   12  A    between atoms: C14_22  and  C15_23 
REMARK   13  A    between atoms: C14_22  and  C16_25 
REMARK       I    between atoms: C15_23  and  N6_40 
REMARK   14  A    between atoms: C16_25  and  C17_26 
REMARK   15  A    between atoms: C17_26  and  C18_27 
REMARK   16  A    between atoms: C17_26  and  C19_28 
REMARK   17  A    between atoms: C20_29  and  C21_30 
REMARK   18  A    between atoms: C20_29  and  C24_33 
REMARK   19  A    between atoms: C20_29  and  N6_40 
REMARK   20  A    between atoms: C21_30  and  C22_31 
REMARK   21  A    between atoms: C22_31  and  C23_32 
REMARK   22  A    between atoms: C23_32  and  O8_43 
REMARK   23  A    between atoms: C24_33  and  C25_34 
REMARK   24  A    between atoms: C28_38  and  O6_39 
REMARK   25  A    between atoms: C29_42  and  O8_43 
REMARK   26  A    between atoms: C29_42  and  C35_49 
ROOT
ATOM      1  C14 non d ame      -9.217   6.912  67.595  0.00  0.00     0.089 C 
ATOM      2  H20 non d ame      -9.375   6.565  66.573  0.00  0.00     0.087 H 
ENDROOT
BRANCH   1   3
ATOM      3  N4  non d ame      -8.947   8.341  67.536  0.00  0.00    -0.346 N 
ATOM      4  C10 non d ame      -8.667   9.009  66.213  0.00  0.00     0.241 C 
ATOM      5  O4  non d ame      -8.661   8.376  65.210  0.00  0.00    -0.271 OA
ATOM      6  H19 non d ame      -8.955   8.862  68.401  0.00  0.00     0.163 HD
BRANCH   4   7
ATOM      7  C9  non d ame      -8.395  10.490  66.170  0.00  0.00     0.092 C 
ATOM      8  H11 non d ame      -7.858  10.730  65.253  0.00  0.00     0.088 H 
BRANCH   7   9
ATOM      9  N3  non d ame      -9.666  11.220  66.131  0.00  0.00    -0.346 N 
ATOM     10  C7  non d ame     -10.234  11.610  64.864  0.00  0.00     0.240 C 
ATOM     11  O3  non d ame      -9.681  11.347  63.867  0.00  0.00    -0.271 OA
ATOM     12  H10 non d ame     -10.154  11.455  66.984  0.00  0.00     0.163 HD
BRANCH  10  13
ATOM     13  C6  non d ame     -11.585  12.389  64.829  0.00  0.00     0.086 C 
ATOM     14  H6  non d ame     -12.208  12.192  65.701  0.00  0.00     0.086 H 
BRANCH  13  15
ATOM     15  N2  non d ame     -11.307  13.816  64.831  0.00  0.00    -0.343 N 
ATOM     16  C5  non d ame     -11.089  14.507  66.103  0.00  0.00     0.273 C 
ATOM     17  O2  non d ame     -11.143  13.907  67.120  0.00  0.00    -0.266 OA
ATOM     18  H5  non d ame     -11.266  14.322  63.957  0.00  0.00     0.163 HD
BRANCH  16  19
ATOM     19  C4  non d ame     -10.793  16.015  66.120  0.00  0.00     0.154 A 
ATOM     20  C1  non d ame     -10.466  16.819  67.257  0.00  0.00    -0.017 A 
ATOM     21  C2  non d ame     -10.288  18.123  66.742  0.00  0.00     0.077 A 
ATOM     22  H1  non d ame     -10.371  16.506  68.297  0.00  0.00     0.091 H 
ATOM     23  O1  non d ame     -10.491  18.062  65.458  0.00  0.00    -0.218 OA
ATOM     24  N1  non d ame     -10.787  16.843  65.072  0.00  0.00    -0.123 NA
BRANCH  21  25
ATOM     25  C3  non d ame      -9.926  19.367  67.541  0.00  0.00    -0.029 C 
ATOM     26  H2  non d ame      -9.061  19.852  67.088  0.00  0.00     0.036 H 
ATOM     27  H3  non d ame     -10.770  20.057  67.542  0.00  0.00     0.036 H 
ATOM     28  H4  non d ame      -9.687  19.084  68.567  0.00  0.00     0.036 H 
ENDBRANCH  21  25
ENDBRANCH  16  19
ENDBRANCH  13  15
BRANCH  13  29
ATOM     29  C8  non d ame     -12.353  12.014  63.587  0.00  0.00    -0.049 C 
ATOM     30  H7  non d ame     -11.799  12.337  62.706  0.00  0.00     0.030 H 
ATOM     31  H8  non d ame     -12.487  10.933  63.556  0.00  0.00     0.030 H 
ATOM     32  H9  non d ame     -13.327  12.502  63.601  0.00  0.00     0.030 H 
ENDBRANCH  13  29
ENDBRANCH  10  13
ENDBRANCH   7   9
BRANCH   7  33
ATOM     33  C11 non d ame      -7.599  10.908  67.441  0.00  0.00    -0.033 C 
ATOM     34  H12 non d ame      -7.770  10.147  68.202  0.00  0.00     0.042 H 
BRANCH  33  35
ATOM     35  C12 non d ame      -6.065  10.955  67.161  0.00  0.00    -0.071 C 
ATOM     36  H13 non d ame      -5.831  11.838  66.566  0.00  0.00     0.028 H 
ATOM     37  H14 non d ame      -5.524  11.002  68.106  0.00  0.00     0.028 H 
ATOM     38  H15 non d ame      -5.768  10.059  66.616  0.00  0.00     0.028 H 
ENDBRANCH  33  35
BRANCH  33  39
ATOM     39  C13 non d ame      -8.115  12.274  68.000  0.00  0.00    -0.071 C 
ATOM     40  H16 non d ame      -8.566  12.850  67.193  0.00  0.00     0.028 H 
ATOM     41  H17 non d ame      -8.859  12.091  68.776  0.00  0.00     0.028 H 
ATOM     42  H18 non d ame      -7.279  12.832  68.422  0.00  0.00     0.028 H 
ENDBRANCH  33  39
ENDBRANCH   7  33
ENDBRANCH   4   7
ENDBRANCH   1   3
BRANCH   1  43
ATOM     43  C15 non d ame     -10.466   6.681  68.493  0.00  0.00     0.240 C 
ATOM     44  O5  non d ame     -11.449   6.201  68.027  0.00  0.00    -0.271 OA
ATOM     45  N6  non d ame     -10.434   7.049  69.937  0.00  0.00    -0.355 N 
ATOM     46  H46 non d ame      -9.604   7.452  70.345  0.00  0.00     0.162 HD
BRANCH  45  47
ATOM     47  C20 non d ame     -11.629   6.821  70.778  0.00  0.00     0.013 C 
ATOM     48  H30 non d ame     -12.395   6.358  70.155  0.00  0.00     0.072 H 
BRANCH  47  49
ATOM     49  C21 non d ame     -12.127   8.146  71.308  0.00  0.00    -0.038 C 
ATOM     50  H31 non d ame     -13.012   8.386  70.718  0.00  0.00     0.036 H 
ATOM     51  H32 non d ame     -12.210   8.019  72.388  0.00  0.00     0.036 H 
BRANCH  49  52
ATOM     52  C22 non d ame     -11.124   9.298  71.080  0.00  0.00     0.018 C 
ATOM     53  H33 non d ame     -11.174   9.916  71.977  0.00  0.00     0.048 H 
ATOM     54  H34 non d ame     -10.185   8.820  70.798  0.00  0.00     0.048 H 
BRANCH  52  55
ATOM     55  C23 non d ame     -11.502  10.231  69.896  0.00  0.00     0.259 C 
ATOM     56  O7  non d ame     -10.913  10.166  68.865  0.00  0.00    -0.265 OA
BRANCH  55  57
ATOM     57  O8  non d ame     -12.552  11.175  70.060  0.00  0.00    -0.317 OA
BRANCH  57  58
ATOM     58  C29 non d ame     -12.787  11.555  71.420  0.00  0.00     0.052 C 
ATOM     59  H47 non d ame     -13.784  11.185  71.661  0.00  0.00     0.082 H 
ATOM     60  H48 non d ame     -11.923  11.197  71.979  0.00  0.00     0.082 H 
BRANCH  58  61
ATOM     61  C35 non d ame     -12.807  13.105  71.488  0.00  0.00    -0.034 A 
ATOM     62  C30 non d ame     -12.155  13.854  70.513  0.00  0.00    -0.075 A 
ATOM     63  C31 non d ame     -12.173  15.246  70.574  0.00  0.00    -0.082 A 
ATOM     64  H49 non d ame     -11.631  13.350  69.702  0.00  0.00     0.084 H 
ATOM     65  C32 non d ame     -12.845  15.891  71.617  0.00  0.00    -0.083 A 
ATOM     66  H50 non d ame     -11.664  15.830  69.808  0.00  0.00     0.083 H 
ATOM     67  C33 non d ame     -13.492  15.139  72.589  0.00  0.00    -0.082 A 
ATOM     68  H51 non d ame     -12.865  16.979  71.672  0.00  0.00     0.083 H 
ATOM     69  C34 non d ame     -13.478  13.747  72.530  0.00  0.00    -0.075 A 
ATOM     70  H52 non d ame     -14.013  15.645  73.402  0.00  0.00     0.083 H 
ATOM     71  H53 non d ame     -13.989  13.164  73.297  0.00  0.00     0.084 H 
ENDBRANCH  58  61
ENDBRANCH  57  58
ENDBRANCH  55  57
ENDBRANCH  52  55
ENDBRANCH  49  52
ENDBRANCH  47  49
BRANCH  47  72
ATOM     72  C24 non d ame     -11.272   5.905  71.947  0.00  0.00    -0.039 C 
ATOM     73  H35 non d ame     -11.344   6.531  72.837  0.00  0.00     0.036 H 
ATOM     74  H36 non d ame     -11.916   5.033  71.840  0.00  0.00     0.036 H 
BRANCH  72  75
ATOM     75  C25 non d ame      -9.758   5.389  71.854  0.00  0.00    -0.001 C 
ATOM     76  C26 non d ame      -9.724   3.860  71.250  0.00  0.00    -0.035 C 
ATOM     77  C27 non d ame      -8.984   3.081  72.075  0.00  0.00     0.085 C 
ATOM     78  H38 non d ame     -10.717   3.415  71.302  0.00  0.00     0.036 H 
ATOM     79  H39 non d ame      -9.167   3.840  70.313  0.00  0.00     0.036 H 
ATOM     80  N5  non d ame      -8.783   3.859  73.353  0.00  0.00    -0.049 N 
ATOM     81  H40 non d ame      -9.602   2.207  72.283  0.00  0.00     0.075 H 
ATOM     82  H41 non d ame      -8.022   2.962  71.577  0.00  0.00     0.075 H 
ATOM     83  C28 non d ame      -9.194   5.383  73.015  0.00  0.00     0.193 C 
ATOM     84  H42 non d ame      -9.444   3.488  74.020  0.00  0.00     0.280 HD
ATOM     85  H43 non d ame      -7.794   3.829  73.553  0.00  0.00     0.280 HD
ATOM     86  H44 non d ame      -8.427   6.143  72.867  0.00  0.00     0.129 H 
ATOM     87  H37 non d ame      -9.100   6.122  71.386  0.00  0.00     0.046 H 
BRANCH  83  88
ATOM     88  O6  non d ame     -10.052   5.900  74.034  0.00  0.00    -0.369 OA
ATOM     89  H45 non d ame     -10.907   5.468  73.981  0.00  0.00     0.212 HD
ENDBRANCH  83  88
ENDBRANCH  72  75
ENDBRANCH  47  72
ENDBRANCH  45  47
ENDBRANCH   1  43
BRANCH   1  90
ATOM     90  C16 non d ame      -8.015   6.205  68.199  0.00  0.00    -0.035 C 
ATOM     91  H21 non d ame      -7.196   6.922  68.137  0.00  0.00     0.037 H 
ATOM     92  H22 non d ame      -8.351   5.844  69.171  0.00  0.00     0.037 H 
BRANCH  90  93
ATOM     93  C17 non d ame      -7.559   4.946  67.394  0.00  0.00    -0.059 C 
ATOM     94  H23 non d ame      -6.691   4.525  67.902  0.00  0.00     0.038 H 
BRANCH  93  95
ATOM     95  C18 non d ame      -8.665   3.843  67.349  0.00  0.00    -0.073 C 
ATOM     96  H24 non d ame      -8.622   3.325  66.391  0.00  0.00     0.028 H 
ATOM     97  H25 non d ame      -8.500   3.130  68.156  0.00  0.00     0.028 H 
ATOM     98  H26 non d ame      -9.645   4.307  67.468  0.00  0.00     0.028 H 
ENDBRANCH  93  95
BRANCH  93  99
ATOM     99  C19 non d ame      -7.116   5.331  65.981  0.00  0.00    -0.073 C 
ATOM    100  H27 non d ame      -7.252   4.481  65.312  0.00  0.00     0.028 H 
ATOM    101  H28 non d ame      -7.717   6.171  65.628  0.00  0.00     0.028 H 
ATOM    102  H29 non d ame      -6.065   5.618  65.995  0.00  0.00     0.028 H 
ENDBRANCH  93  99
ENDBRANCH  90  93
ENDBRANCH   1  90
TORSDOF 26
ENDMDL
