MODEL 1
REMARK VINA RESULT:      -6.9      0.000      0.000
REMARK  26 active torsions:
REMARK  status: ('A' for Active; 'I' for Inactive)
REMARK    1  A    between atoms: C2_2  and  C3_3 
REMARK    2  A    between atoms: C4_6  and  C5_7 
REMARK       I    between atoms: C5_7  and  N2_9 
REMARK    3  A    between atoms: N2_9  and  C6_10 
REMARK    4  A    between atoms: C6_10  and  C7_11 
REMARK    5  A    between atoms: C6_10  and  C8_13 
REMARK       I    between atoms: C7_11  and  N3_14 
REMARK    6  A    between atoms: N3_14  and  C9_15 
REMARK    7  A    between atoms: C9_15  and  C10_16 
REMARK    8  A    between atoms: C9_15  and  C11_18 
REMARK       I    between atoms: C10_16  and  N4_21 
REMARK    9  A    between atoms: C11_18  and  C12_19 
REMARK   10  A    between atoms: C11_18  and  C13_20 
REMARK   11  A    between atoms: N4_21  and  C14_22 
REMARK   12  A    between atoms: C14_22  and  C15_23 
REMARK   13  A    between atoms: C14_22  and  C16_25 
REMARK       I    between atoms: C15_23  and  N6_40 
REMARK   14  A    between atoms: C16_25  and  C17_26 
REMARK   15  A    between atoms: C17_26  and  C18_27 
REMARK   16  A    between atoms: C17_26  and  C19_28 
REMARK   17  A    between atoms: C20_29  and  C21_30 
REMARK   18  A    between atoms: C20_29  and  C24_33 
REMARK   19  A    between atoms: C20_29  and  N6_40 
REMARK   20  A    between atoms: C21_30  and  C22_31 
REMARK   21  A    between atoms: C22_31  and  C23_32 
REMARK   22  A    between atoms: C23_32  and  O8_43 
REMARK   23  A    between atoms: C24_33  and  C25_34 
REMARK   24  A    between atoms: C28_38  and  O6_39 
REMARK   25  A    between atoms: C29_42  and  O8_43 
REMARK   26  A    between atoms: C29_42  and  C35_49 
ROOT
ATOM      1  C14 non d ame     -12.360  14.107  70.571  0.00  0.00     0.089 C 
ATOM      2  H20 non d ame     -13.441  13.970  70.615  0.00  0.00     0.087 H 
ENDROOT
BRANCH   1   3
ATOM      3  N4  non d ame     -11.767  12.813  70.268  0.00  0.00    -0.346 N 
ATOM      4  C10 non d ame     -12.325  11.556  70.884  0.00  0.00     0.241 C 
ATOM      5  O4  non d ame     -13.252  11.610  71.624  0.00  0.00    -0.271 OA
ATOM      6  H19 non d ame     -10.977  12.788  69.637  0.00  0.00     0.163 HD
BRANCH   4   7
ATOM      7  C9  non d ame     -11.702  10.224  70.555  0.00  0.00     0.092 C 
ATOM      8  H11 non d ame     -12.115   9.858  69.615  0.00  0.00     0.088 H 
BRANCH   7   9
ATOM      9  N3  non d ame     -10.259  10.396  70.357  0.00  0.00    -0.346 N 
ATOM     10  C7  non d ame      -9.681  10.178  69.054  0.00  0.00     0.240 C 
ATOM     11  O3  non d ame     -10.361   9.864  68.154  0.00  0.00    -0.271 OA
ATOM     12  H10 non d ame      -9.660  10.665  71.124  0.00  0.00     0.163 HD
BRANCH  10  13
ATOM     13  C6  non d ame      -8.144  10.359  68.849  0.00  0.00     0.086 C 
ATOM     14  H6  non d ame      -7.811  10.050  67.859  0.00  0.00     0.086 H 
BRANCH  13  15
ATOM     15  N2  non d ame      -7.814  11.769  68.977  0.00  0.00    -0.343 N 
ATOM     16  C5  non d ame      -6.698  12.321  68.207  0.00  0.00     0.273 C 
ATOM     17  O2  non d ame      -6.070  11.622  67.490  0.00  0.00    -0.266 OA
ATOM     18  H5  non d ame      -8.355  12.358  69.595  0.00  0.00     0.163 HD
BRANCH  16  19
ATOM     19  C4  non d ame      -6.339  13.810  68.331  0.00  0.00     0.154 A 
ATOM     20  C1  non d ame      -6.411  14.622  69.508  0.00  0.00    -0.017 A 
ATOM     21  C2  non d ame      -5.976  15.901  69.094  0.00  0.00     0.077 A 
ATOM     22  H1  non d ame      -6.730  14.328  70.508  0.00  0.00     0.091 H 
ATOM     23  O1  non d ame      -5.689  15.821  67.828  0.00  0.00    -0.218 OA
ATOM     24  N1  non d ame      -5.893  14.612  67.360  0.00  0.00    -0.123 NA
BRANCH  21  25
ATOM     25  C3  non d ame      -5.864  17.141  69.970  0.00  0.00    -0.029 C 
ATOM     26  H2  non d ame      -4.812  17.380  70.130  0.00  0.00     0.036 H 
ATOM     27  H3  non d ame      -6.355  17.980  69.477  0.00  0.00     0.036 H 
ATOM     28  H4  non d ame      -6.344  16.953  70.931  0.00  0.00     0.036 H 
ENDBRANCH  21  25
ENDBRANCH  16  19
ENDBRANCH  13  15
BRANCH  13  29
ATOM     29  C8  non d ame      -7.399   9.558  69.887  0.00  0.00    -0.049 C 
ATOM     30  H7  non d ame      -7.906   9.646  70.847  0.00  0.00     0.030 H 
ATOM     31  H8  non d ame      -7.370   8.511  69.585  0.00  0.00     0.030 H 
ATOM     32  H9  non d ame      -6.382   9.939  69.978  0.00  0.00     0.030 H 
ENDBRANCH  13  29
ENDBRANCH  10  13
ENDBRANCH   7   9
BRANCH   7  33
ATOM     33  C11 non d ame     -11.947   9.232  71.729  0.00  0.00    -0.033 C 
ATOM     34  H12 non d ame     -12.321   9.810  72.575  0.00  0.00     0.042 H 
BRANCH  33  35
ATOM     35  C12 non d ame     -13.036   8.177  71.363  0.00  0.00    -0.071 C 
ATOM     36  H13 non d ame     -13.603   8.523  70.499  0.00  0.00     0.028 H 
ATOM     37  H14 non d ame     -12.557   7.227  71.126  0.00  0.00     0.028 H 
ATOM     38  H15 non d ame     -13.710   8.042  72.209  0.00  0.00     0.028 H 
ENDBRANCH  33  35
BRANCH  33  39
ATOM     39  C13 non d ame     -10.615   8.543  72.167  0.00  0.00    -0.071 C 
ATOM     40  H16 non d ame      -9.988   9.264  72.692  0.00  0.00     0.028 H 
ATOM     41  H17 non d ame     -10.839   7.706  72.829  0.00  0.00     0.028 H 
ATOM     42  H18 non d ame     -10.088   8.178  71.285  0.00  0.00     0.028 H 
ENDBRANCH  33  39
ENDBRANCH   7  33
ENDBRANCH   4   7
ENDBRANCH   1   3
BRANCH   1  43
ATOM     43  C15 non d ame     -11.941  15.116  69.463  0.00  0.00     0.240 C 
ATOM     44  O5  non d ame     -12.206  16.268  69.583  0.00  0.00    -0.271 OA
ATOM     45  N6  non d ame     -11.202  14.646  68.257  0.00  0.00    -0.355 N 
ATOM     46  H46 non d ame     -10.967  13.671  68.147  0.00  0.00     0.162 HD
BRANCH  45  47
ATOM     47  C20 non d ame     -10.809  15.618  67.214  0.00  0.00     0.013 C 
ATOM     48  H30 non d ame     -11.412  16.516  67.348  0.00  0.00     0.072 H 
BRANCH  47  49
ATOM     49  C21 non d ame     -11.070  15.020  65.850  0.00  0.00    -0.038 C 
ATOM     50  H31 non d ame     -11.866  15.622  65.412  0.00  0.00     0.036 H 
ATOM     51  H32 non d ame     -10.097  14.964  65.362  0.00  0.00     0.036 H 
BRANCH  49  52
ATOM     52  C22 non d ame     -11.606  13.574  65.923  0.00  0.00     0.018 C 
ATOM     53  H33 non d ame     -11.976  13.446  66.941  0.00  0.00     0.048 H 
ATOM     54  H34 non d ame     -12.289  13.469  65.078  0.00  0.00     0.048 H 
BRANCH  52  55
ATOM     55  C23 non d ame     -10.511  12.489  65.725  0.00  0.00     0.259 C 
ATOM     56  O7  non d ame      -9.510  12.519  66.365  0.00  0.00    -0.265 OA
BRANCH  55  57
ATOM     57  O8  non d ame     -10.712  11.464  64.760  0.00  0.00    -0.317 OA
BRANCH  57  58
ATOM     58  C29 non d ame     -10.264  11.806  63.445  0.00  0.00     0.052 C 
ATOM     59  H47 non d ame     -11.141  11.723  62.803  0.00  0.00     0.082 H 
ATOM     60  H48 non d ame      -9.752  12.763  63.547  0.00  0.00     0.082 H 
BRANCH  58  61
ATOM     61  C35 non d ame      -9.227  10.741  63.001  0.00  0.00    -0.034 A 
ATOM     62  C30 non d ame      -9.123   9.538  63.693  0.00  0.00    -0.075 A 
ATOM     63  C31 non d ame      -8.191   8.581  63.294  0.00  0.00    -0.082 A 
ATOM     64  H49 non d ame      -9.772   9.346  64.547  0.00  0.00     0.084 H 
ATOM     65  C32 non d ame      -7.359   8.831  62.199  0.00  0.00    -0.083 A 
ATOM     66  H50 non d ame      -8.114   7.639  63.836  0.00  0.00     0.083 H 
ATOM     67  C33 non d ame      -7.464  10.034  61.514  0.00  0.00    -0.082 A 
ATOM     68  H51 non d ame      -6.628   8.088  61.880  0.00  0.00     0.083 H 
ATOM     69  C34 non d ame      -8.395  10.992  61.908  0.00  0.00    -0.075 A 
ATOM     70  H52 non d ame      -6.812  10.226  60.661  0.00  0.00     0.083 H 
ATOM     71  H53 non d ame      -8.472  11.934  61.363  0.00  0.00     0.084 H 
ENDBRANCH  58  61
ENDBRANCH  57  58
ENDBRANCH  55  57
ENDBRANCH  52  55
ENDBRANCH  49  52
ENDBRANCH  47  49
BRANCH  47  72
ATOM     72  C24 non d ame      -9.325  15.950  67.350  0.00  0.00    -0.039 C 
ATOM     73  H35 non d ame      -8.972  15.360  68.196  0.00  0.00     0.036 H 
ATOM     74  H36 non d ame      -8.900  15.789  66.359  0.00  0.00     0.036 H 
BRANCH  72  75
ATOM     75  C25 non d ame      -9.093  17.492  67.719  0.00  0.00    -0.001 C 
ATOM     76  C26 non d ame     -10.495  18.330  67.528  0.00  0.00    -0.035 C 
ATOM     77  C27 non d ame     -10.253  19.416  66.756  0.00  0.00     0.085 C 
ATOM     78  H38 non d ame     -11.201  17.748  66.936  0.00  0.00     0.036 H 
ATOM     79  H39 non d ame     -10.807  18.759  68.481  0.00  0.00     0.036 H 
ATOM     80  N5  non d ame      -8.892  19.220  66.133  0.00  0.00    -0.049 N 
ATOM     81  H40 non d ame     -11.010  19.390  65.971  0.00  0.00     0.075 H 
ATOM     82  H41 non d ame     -10.211  20.259  67.444  0.00  0.00     0.075 H 
ATOM     83  C28 non d ame      -8.193  18.024  66.961  0.00  0.00     0.193 C 
ATOM     84  H42 non d ame      -9.053  18.905  65.187  0.00  0.00     0.280 HD
ATOM     85  H43 non d ame      -8.375  20.072  66.301  0.00  0.00     0.280 HD
ATOM     86  H44 non d ame      -7.417  18.239  67.697  0.00  0.00     0.129 H 
ATOM     87  H37 non d ame      -8.566  17.615  68.665  0.00  0.00     0.046 H 
BRANCH  83  88
ATOM     88  O6  non d ame      -7.615  17.075  66.063  0.00  0.00    -0.369 OA
ATOM     89  H45 non d ame      -6.826  17.450  65.666  0.00  0.00     0.212 HD
ENDBRANCH  83  88
ENDBRANCH  72  75
ENDBRANCH  47  72
ENDBRANCH  45  47
ENDBRANCH   1  43
BRANCH   1  90
ATOM     90  C16 non d ame     -11.846  14.585  71.919  0.00  0.00    -0.035 C 
ATOM     91  H21 non d ame     -11.201  13.785  72.283  0.00  0.00     0.037 H 
ATOM     92  H22 non d ame     -11.432  15.577  71.735  0.00  0.00     0.037 H 
BRANCH  90  93
ATOM     93  C17 non d ame     -12.969  14.767  72.989  0.00  0.00    -0.059 C 
ATOM     94  H23 non d ame     -13.272  13.775  73.323  0.00  0.00     0.038 H 
BRANCH  93  95
ATOM     95  C18 non d ame     -12.468  15.558  74.240  0.00  0.00    -0.073 C 
ATOM     96  H24 non d ame     -11.955  16.463  73.916  0.00  0.00     0.028 H 
ATOM     97  H25 non d ame     -13.320  15.827  74.865  0.00  0.00     0.028 H 
ATOM     98  H26 non d ame     -11.781  14.935  74.812  0.00  0.00     0.028 H 
ENDBRANCH  93  95
BRANCH  93  99
ATOM     99  C19 non d ame     -14.202  15.438  72.379  0.00  0.00    -0.073 C 
ATOM    100  H27 non d ame     -15.090  14.851  72.614  0.00  0.00     0.028 H 
ATOM    101  H28 non d ame     -14.311  16.442  72.791  0.00  0.00     0.028 H 
ATOM    102  H29 non d ame     -14.084  15.501  71.297  0.00  0.00     0.028 H 
ENDBRANCH  93  99
ENDBRANCH  90  93
ENDBRANCH   1  90
TORSDOF 26
ENDMDL
MODEL 2
REMARK VINA RESULT:      -6.6      2.192      5.772
REMARK  26 active torsions:
REMARK  status: ('A' for Active; 'I' for Inactive)
REMARK    1  A    between atoms: C2_2  and  C3_3 
REMARK    2  A    between atoms: C4_6  and  C5_7 
REMARK       I    between atoms: C5_7  and  N2_9 
REMARK    3  A    between atoms: N2_9  and  C6_10 
REMARK    4  A    between atoms: C6_10  and  C7_11 
REMARK    5  A    between atoms: C6_10  and  C8_13 
REMARK       I    between atoms: C7_11  and  N3_14 
REMARK    6  A    between atoms: N3_14  and  C9_15 
REMARK    7  A    between atoms: C9_15  and  C10_16 
REMARK    8  A    between atoms: C9_15  and  C11_18 
REMARK       I    between atoms: C10_16  and  N4_21 
REMARK    9  A    between atoms: C11_18  and  C12_19 
REMARK   10  A    between atoms: C11_18  and  C13_20 
REMARK   11  A    between atoms: N4_21  and  C14_22 
REMARK   12  A    between atoms: C14_22  and  C15_23 
REMARK   13  A    between atoms: C14_22  and  C16_25 
REMARK       I    between atoms: C15_23  and  N6_40 
REMARK   14  A    between atoms: C16_25  and  C17_26 
REMARK   15  A    between atoms: C17_26  and  C18_27 
REMARK   16  A    between atoms: C17_26  and  C19_28 
REMARK   17  A    between atoms: C20_29  and  C21_30 
REMARK   18  A    between atoms: C20_29  and  C24_33 
REMARK   19  A    between atoms: C20_29  and  N6_40 
REMARK   20  A    between atoms: C21_30  and  C22_31 
REMARK   21  A    between atoms: C22_31  and  C23_32 
REMARK   22  A    between atoms: C23_32  and  O8_43 
REMARK   23  A    between atoms: C24_33  and  C25_34 
REMARK   24  A    between atoms: C28_38  and  O6_39 
REMARK   25  A    between atoms: C29_42  and  O8_43 
REMARK   26  A    between atoms: C29_42  and  C35_49 
ROOT
ATOM      1  C14 non d ame     -12.044  14.229  70.315  0.00  0.00     0.089 C 
ATOM      2  H20 non d ame     -13.076  14.396  70.005  0.00  0.00     0.087 H 
ENDROOT
BRANCH   1   3
ATOM      3  N4  non d ame     -11.751  12.817  70.122  0.00  0.00    -0.346 N 
ATOM      4  C10 non d ame     -12.483  11.771  70.926  0.00  0.00     0.241 C 
ATOM      5  O4  non d ame     -13.301  12.091  71.724  0.00  0.00    -0.271 OA
ATOM      6  H19 non d ame     -11.050  12.565  69.440  0.00  0.00     0.163 HD
BRANCH   4   7
ATOM      7  C9  non d ame     -12.171  10.313  70.710  0.00  0.00     0.092 C 
ATOM      8  H11 non d ame     -12.584   9.997  69.751  0.00  0.00     0.088 H 
BRANCH   7   9
ATOM      9  N3  non d ame     -10.719  10.129  70.639  0.00  0.00    -0.346 N 
ATOM     10  C7  non d ame     -10.063  10.062  69.356  0.00  0.00     0.240 C 
ATOM     11  O3  non d ame     -10.689  10.154  68.371  0.00  0.00    -0.271 OA
ATOM     12  H10 non d ame     -10.166  10.046  71.480  0.00  0.00     0.163 HD
BRANCH  10  13
ATOM     13  C6  non d ame      -8.517   9.863  69.287  0.00  0.00     0.086 C 
ATOM     14  H6  non d ame      -8.206   9.273  68.425  0.00  0.00     0.086 H 
BRANCH  13  15
ATOM     15  N2  non d ame      -7.879  11.162  69.153  0.00  0.00    -0.343 N 
ATOM     16  C5  non d ame      -7.269  11.538  67.876  0.00  0.00     0.273 C 
ATOM     17  O2  non d ame      -7.294  10.788  66.963  0.00  0.00    -0.266 OA
ATOM     18  H5  non d ame      -7.860  11.796  69.940  0.00  0.00     0.163 HD
BRANCH  16  19
ATOM     19  C4  non d ame      -6.593  12.910  67.721  0.00  0.00     0.154 A 
ATOM     20  C1  non d ame      -7.181  14.194  67.949  0.00  0.00    -0.017 A 
ATOM     21  C2  non d ame      -6.151  15.120  67.669  0.00  0.00     0.077 A 
ATOM     22  H1  non d ame      -8.198  14.420  68.269  0.00  0.00     0.091 H 
ATOM     23  O1  non d ame      -5.100  14.437  67.322  0.00  0.00    -0.218 OA
ATOM     24  N1  non d ame      -5.333  13.145  67.345  0.00  0.00    -0.123 NA
BRANCH  21  25
ATOM     25  C3  non d ame      -6.253  16.637  67.757  0.00  0.00    -0.029 C 
ATOM     26  H2  non d ame      -5.256  17.063  67.873  0.00  0.00     0.036 H 
ATOM     27  H3  non d ame      -6.711  17.024  66.847  0.00  0.00     0.036 H 
ATOM     28  H4  non d ame      -6.867  16.911  68.616  0.00  0.00     0.036 H 
ENDBRANCH  21  25
ENDBRANCH  16  19
ENDBRANCH  13  15
BRANCH  13  29
ATOM     29  C8  non d ame      -8.039   9.179  70.543  0.00  0.00    -0.049 C 
ATOM     30  H7  non d ame      -7.577   8.226  70.285  0.00  0.00     0.030 H 
ATOM     31  H8  non d ame      -7.309   9.813  71.046  0.00  0.00     0.030 H 
ATOM     32  H9  non d ame      -8.886   9.004  71.205  0.00  0.00     0.030 H 
ENDBRANCH  13  29
ENDBRANCH  10  13
ENDBRANCH   7   9
BRANCH   7  33
ATOM     33  C11 non d ame     -12.740   9.480  71.895  0.00  0.00    -0.033 C 
ATOM     34  H12 non d ame     -12.945  10.171  72.714  0.00  0.00     0.042 H 
BRANCH  33  35
ATOM     35  C12 non d ame     -14.088   8.794  71.513  0.00  0.00    -0.071 C 
ATOM     36  H13 non d ame     -14.420   9.161  70.541  0.00  0.00     0.028 H 
ATOM     37  H14 non d ame     -13.945   7.715  71.463  0.00  0.00     0.028 H 
ATOM     38  H15 non d ame     -14.841   9.027  72.266  0.00  0.00     0.028 H 
ENDBRANCH  33  35
BRANCH  33  39
ATOM     39  C13 non d ame     -11.694   8.434  72.396  0.00  0.00    -0.071 C 
ATOM     40  H16 non d ame     -10.721   8.652  71.956  0.00  0.00     0.028 H 
ATOM     41  H17 non d ame     -11.620   8.485  73.483  0.00  0.00     0.028 H 
ATOM     42  H18 non d ame     -12.010   7.434  72.100  0.00  0.00     0.028 H 
ENDBRANCH  33  39
ENDBRANCH   7  33
ENDBRANCH   4   7
ENDBRANCH   1   3
BRANCH   1  43
ATOM     43  C15 non d ame     -11.036  15.063  69.472  0.00  0.00     0.240 C 
ATOM     44  O5  non d ame     -10.067  15.517  69.989  0.00  0.00    -0.271 OA
ATOM     45  N6  non d ame     -11.275  15.287  68.018  0.00  0.00    -0.355 N 
ATOM     46  H46 non d ame     -12.092  14.902  67.566  0.00  0.00     0.162 HD
BRANCH  45  47
ATOM     47  C20 non d ame     -10.306  16.081  67.231  0.00  0.00     0.013 C 
ATOM     48  H30 non d ame      -9.320  15.943  67.674  0.00  0.00     0.072 H 
BRANCH  47  49
ATOM     49  C21 non d ame     -10.697  17.541  67.283  0.00  0.00    -0.038 C 
ATOM     50  H31 non d ame     -10.726  17.876  66.246  0.00  0.00     0.036 H 
ATOM     51  H32 non d ame     -11.598  17.582  67.895  0.00  0.00     0.036 H 
BRANCH  49  52
ATOM     52  C22 non d ame      -9.644  18.417  67.996  0.00  0.00     0.018 C 
ATOM     53  H33 non d ame     -10.208  19.198  68.508  0.00  0.00     0.048 H 
ATOM     54  H34 non d ame      -9.025  17.727  68.570  0.00  0.00     0.048 H 
BRANCH  52  55
ATOM     55  C23 non d ame      -8.679  19.152  67.024  0.00  0.00     0.259 C 
ATOM     56  O7  non d ame      -8.660  18.874  65.869  0.00  0.00    -0.265 OA
BRANCH  55  57
ATOM     57  O8  non d ame      -7.807  20.154  67.534  0.00  0.00    -0.317 OA
BRANCH  57  58
ATOM     58  C29 non d ame      -7.385  19.928  68.882  0.00  0.00     0.052 C 
ATOM     59  H47 non d ame      -7.940  20.643  69.488  0.00  0.00     0.082 H 
ATOM     60  H48 non d ame      -7.506  18.859  69.054  0.00  0.00     0.082 H 
BRANCH  58  61
ATOM     61  C35 non d ame      -5.875  20.272  68.975  0.00  0.00    -0.034 A 
ATOM     62  C30 non d ame      -5.309  20.600  70.203  0.00  0.00    -0.075 A 
ATOM     63  C31 non d ame      -3.953  20.910  70.286  0.00  0.00    -0.082 A 
ATOM     64  H49 non d ame      -5.929  20.614  71.100  0.00  0.00     0.084 H 
ATOM     65  C32 non d ame      -3.161  20.894  69.135  0.00  0.00    -0.083 A 
ATOM     66  H50 non d ame      -3.512  21.164  71.251  0.00  0.00     0.083 H 
ATOM     67  C33 non d ame      -3.730  20.569  67.911  0.00  0.00    -0.082 A 
ATOM     68  H51 non d ame      -2.099  21.134  69.192  0.00  0.00     0.083 H 
ATOM     69  C34 non d ame      -5.085  20.257  67.823  0.00  0.00    -0.075 A 
ATOM     70  H52 non d ame      -3.110  20.560  67.014  0.00  0.00     0.083 H 
ATOM     71  H53 non d ame      -5.525  20.002  66.859  0.00  0.00     0.084 H 
ENDBRANCH  58  61
ENDBRANCH  57  58
ENDBRANCH  55  57
ENDBRANCH  52  55
ENDBRANCH  49  52
ENDBRANCH  47  49
BRANCH  47  72
ATOM     72  C24 non d ame     -10.307  15.605  65.779  0.00  0.00    -0.039 C 
ATOM     73  H35 non d ame     -10.451  16.504  65.179  0.00  0.00     0.036 H 
ATOM     74  H36 non d ame      -9.397  15.015  65.667  0.00  0.00     0.036 H 
BRANCH  72  75
ATOM     75  C25 non d ame     -11.542  14.631  65.476  0.00  0.00    -0.001 C 
ATOM     76  C26 non d ame     -11.002  13.095  65.248  0.00  0.00    -0.035 C 
ATOM     77  C27 non d ame     -11.512  12.621  64.086  0.00  0.00     0.085 C 
ATOM     78  H38 non d ame      -9.927  13.100  65.070  0.00  0.00     0.036 H 
ATOM     79  H39 non d ame     -11.427  12.433  66.002  0.00  0.00     0.036 H 
ATOM     80  N5  non d ame     -12.085  13.802  63.341  0.00  0.00    -0.049 N 
ATOM     81  H40 non d ame     -10.659  12.230  63.531  0.00  0.00     0.075 H 
ATOM     82  H41 non d ame     -12.325  11.956  64.376  0.00  0.00     0.075 H 
ATOM     83  C28 non d ame     -12.181  15.002  64.416  0.00  0.00     0.193 C 
ATOM     84  H42 non d ame     -11.405  14.054  62.638  0.00  0.00     0.280 HD
ATOM     85  H43 non d ame     -13.021  13.541  63.067  0.00  0.00     0.280 HD
ATOM     86  H44 non d ame     -13.141  15.281  64.851  0.00  0.00     0.129 H 
ATOM     87  H37 non d ame     -12.360  14.769  66.183  0.00  0.00     0.046 H 
BRANCH  83  88
ATOM     88  O6  non d ame     -11.649  16.206  63.860  0.00  0.00    -0.369 OA
ATOM     89  H45 non d ame     -12.332  16.879  63.842  0.00  0.00     0.212 HD
ENDBRANCH  83  88
ENDBRANCH  72  75
ENDBRANCH  47  72
ENDBRANCH  45  47
ENDBRANCH   1  43
BRANCH   1  90
ATOM     90  C16 non d ame     -11.886  14.572  71.787  0.00  0.00    -0.035 C 
ATOM     91  H21 non d ame     -12.133  13.657  72.325  0.00  0.00     0.037 H 
ATOM     92  H22 non d ame     -10.890  15.006  71.877  0.00  0.00     0.037 H 
BRANCH  90  93
ATOM     93  C17 non d ame     -12.888  15.661  72.287  0.00  0.00    -0.059 C 
ATOM     94  H23 non d ame     -12.618  16.603  71.811  0.00  0.00     0.038 H 
BRANCH  93  95
ATOM     95  C18 non d ame     -14.363  15.332  71.891  0.00  0.00    -0.073 C 
ATOM     96  H24 non d ame     -14.410  14.328  71.471  0.00  0.00     0.028 H 
ATOM     97  H25 non d ame     -14.998  15.387  72.775  0.00  0.00     0.028 H 
ATOM     98  H26 non d ame     -14.709  16.053  71.150  0.00  0.00     0.028 H 
ENDBRANCH  93  95
BRANCH  93  99
ATOM     99  C19 non d ame     -12.763  15.865  73.800  0.00  0.00    -0.073 C 
ATOM    100  H27 non d ame     -11.710  15.871  74.080  0.00  0.00     0.028 H 
ATOM    101  H28 non d ame     -13.218  16.817  74.076  0.00  0.00     0.028 H 
ATOM    102  H29 non d ame     -13.274  15.054  74.319  0.00  0.00     0.028 H 
ENDBRANCH  93  99
ENDBRANCH  90  93
ENDBRANCH   1  90
TORSDOF 26
ENDMDL
MODEL 3
REMARK VINA RESULT:      -6.5      2.890      7.874
REMARK  26 active torsions:
REMARK  status: ('A' for Active; 'I' for Inactive)
REMARK    1  A    between atoms: C2_2  and  C3_3 
REMARK    2  A    between atoms: C4_6  and  C5_7 
REMARK       I    between atoms: C5_7  and  N2_9 
REMARK    3  A    between atoms: N2_9  and  C6_10 
REMARK    4  A    between atoms: C6_10  and  C7_11 
REMARK    5  A    between atoms: C6_10  and  C8_13 
REMARK       I    between atoms: C7_11  and  N3_14 
REMARK    6  A    between atoms: N3_14  and  C9_15 
REMARK    7  A    between atoms: C9_15  and  C10_16 
REMARK    8  A    between atoms: C9_15  and  C11_18 
REMARK       I    between atoms: C10_16  and  N4_21 
REMARK    9  A    between atoms: C11_18  and  C12_19 
REMARK   10  A    between atoms: C11_18  and  C13_20 
REMARK   11  A    between atoms: N4_21  and  C14_22 
REMARK   12  A    between atoms: C14_22  and  C15_23 
REMARK   13  A    between atoms: C14_22  and  C16_25 
REMARK       I    between atoms: C15_23  and  N6_40 
REMARK   14  A    between atoms: C16_25  and  C17_26 
REMARK   15  A    between atoms: C17_26  and  C18_27 
REMARK   16  A    between atoms: C17_26  and  C19_28 
REMARK   17  A    between atoms: C20_29  and  C21_30 
REMARK   18  A    between atoms: C20_29  and  C24_33 
REMARK   19  A    between atoms: C20_29  and  N6_40 
REMARK   20  A    between atoms: C21_30  and  C22_31 
REMARK   21  A    between atoms: C22_31  and  C23_32 
REMARK   22  A    between atoms: C23_32  and  O8_43 
REMARK   23  A    between atoms: C24_33  and  C25_34 
REMARK   24  A    between atoms: C28_38  and  O6_39 
REMARK   25  A    between atoms: C29_42  and  O8_43 
REMARK   26  A    between atoms: C29_42  and  C35_49 
ROOT
ATOM      1  C14 non d ame     -10.288  10.920  64.438  0.00  0.00     0.089 C 
ATOM      2  H20 non d ame     -11.277  10.485  64.582  0.00  0.00     0.087 H 
ENDROOT
BRANCH   1   3
ATOM      3  N4  non d ame      -9.735  11.198  65.755  0.00  0.00    -0.346 N 
ATOM      4  C10 non d ame     -10.513  10.845  66.998  0.00  0.00     0.241 C 
ATOM      5  O4  non d ame     -11.584  10.340  66.912  0.00  0.00    -0.271 OA
ATOM      6  H19 non d ame      -8.823  11.630  65.807  0.00  0.00     0.163 HD
BRANCH   4   7
ATOM      7  C9  non d ame      -9.924  11.135  68.353  0.00  0.00     0.092 C 
ATOM      8  H11 non d ame      -8.840  11.025  68.303  0.00  0.00     0.088 H 
BRANCH   7   9
ATOM      9  N3  non d ame     -10.203  12.526  68.721  0.00  0.00    -0.346 N 
ATOM     10  C7  non d ame      -9.363  13.586  68.219  0.00  0.00     0.240 C 
ATOM     11  O3  non d ame      -8.458  13.337  67.520  0.00  0.00    -0.271 OA
ATOM     12  H10 non d ame     -10.979  12.756  69.324  0.00  0.00     0.163 HD
BRANCH  10  13
ATOM     13  C6  non d ame      -9.663  15.065  68.616  0.00  0.00     0.086 C 
ATOM     14  H6  non d ame     -10.349  15.555  67.926  0.00  0.00     0.086 H 
BRANCH  13  15
ATOM     15  N2  non d ame     -10.303  15.082  69.921  0.00  0.00    -0.343 N 
ATOM     16  C5  non d ame     -11.601  15.741  70.080  0.00  0.00     0.273 C 
ATOM     17  O2  non d ame     -12.121  16.257  69.152  0.00  0.00    -0.266 OA
ATOM     18  H5  non d ame      -9.850  14.641  70.709  0.00  0.00     0.163 HD
BRANCH  16  19
ATOM     19  C4  non d ame     -12.289  15.765  71.453  0.00  0.00     0.154 A 
ATOM     20  C1  non d ame     -11.670  15.970  72.727  0.00  0.00    -0.017 A 
ATOM     21  C2  non d ame     -12.728  15.901  73.661  0.00  0.00     0.077 A 
ATOM     22  H1  non d ame     -10.615  16.141  72.941  0.00  0.00     0.091 H 
ATOM     23  O1  non d ame     -13.822  15.685  72.991  0.00  0.00    -0.218 OA
ATOM     24  N1  non d ame     -13.591  15.601  71.701  0.00  0.00    -0.123 NA
BRANCH  21  25
ATOM     25  C3  non d ame     -12.609  16.055  75.171  0.00  0.00    -0.029 C 
ATOM     26  H2  non d ame     -11.583  15.848  75.478  0.00  0.00     0.036 H 
ATOM     27  H3  non d ame     -12.875  17.073  75.455  0.00  0.00     0.036 H 
ATOM     28  H4  non d ame     -13.284  15.353  75.663  0.00  0.00     0.036 H 
ENDBRANCH  21  25
ENDBRANCH  16  19
ENDBRANCH  13  15
BRANCH  13  29
ATOM     29  C8  non d ame      -8.375  15.847  68.662  0.00  0.00    -0.049 C 
ATOM     30  H7  non d ame      -8.585  16.903  68.491  0.00  0.00     0.030 H 
ATOM     31  H8  non d ame      -7.909  15.722  69.639  0.00  0.00     0.030 H 
ATOM     32  H9  non d ame      -7.701  15.482  67.887  0.00  0.00     0.030 H 
ENDBRANCH  13  29
ENDBRANCH  10  13
ENDBRANCH   7   9
BRANCH   7  33
ATOM     33  C11 non d ame     -10.560  10.184  69.409  0.00  0.00    -0.033 C 
ATOM     34  H12 non d ame     -11.029   9.361  68.871  0.00  0.00     0.042 H 
BRANCH  33  35
ATOM     35  C12 non d ame      -9.476   9.573  70.350  0.00  0.00    -0.071 C 
ATOM     36  H13 non d ame      -9.198  10.305  71.108  0.00  0.00     0.028 H 
ATOM     37  H14 non d ame      -9.877   8.683  70.836  0.00  0.00     0.028 H 
ATOM     38  H15 non d ame      -8.598   9.304  69.765  0.00  0.00     0.028 H 
ENDBRANCH  33  35
BRANCH  33  39
ATOM     39  C13 non d ame     -11.670  10.920  70.227  0.00  0.00    -0.071 C 
ATOM     40  H16 non d ame     -11.322  11.084  71.246  0.00  0.00     0.028 H 
ATOM     41  H17 non d ame     -11.889  11.881  69.760  0.00  0.00     0.028 H 
ATOM     42  H18 non d ame     -12.573  10.310  70.244  0.00  0.00     0.028 H 
ENDBRANCH  33  39
ENDBRANCH   7  33
ENDBRANCH   4   7
ENDBRANCH   1   3
BRANCH   1  43
ATOM     43  C15 non d ame      -9.325   9.953  63.691  0.00  0.00     0.240 C 
ATOM     44  O5  non d ame      -9.019  10.176  62.564  0.00  0.00    -0.271 OA
ATOM     45  N6  non d ame      -8.776   8.752  64.384  0.00  0.00    -0.355 N 
ATOM     46  H46 non d ame      -9.024   8.554  65.342  0.00  0.00     0.162 HD
BRANCH  45  47
ATOM     47  C20 non d ame      -7.861   7.843  63.660  0.00  0.00     0.013 C 
ATOM     48  H30 non d ame      -8.029   7.978  62.592  0.00  0.00     0.072 H 
BRANCH  47  49
ATOM     49  C21 non d ame      -8.160   6.414  64.055  0.00  0.00    -0.038 C 
ATOM     50  H31 non d ame      -9.044   6.130  63.484  0.00  0.00     0.036 H 
ATOM     51  H32 non d ame      -7.225   5.870  63.920  0.00  0.00     0.036 H 
BRANCH  49  52
ATOM     52  C22 non d ame      -8.538   6.271  65.545  0.00  0.00     0.018 C 
ATOM     53  H33 non d ame      -7.636   5.918  66.046  0.00  0.00     0.048 H 
ATOM     54  H34 non d ame      -8.982   7.225  65.830  0.00  0.00     0.048 H 
BRANCH  52  55
ATOM     55  C23 non d ame      -9.627   5.195  65.814  0.00  0.00     0.259 C 
ATOM     56  O7  non d ame      -9.537   4.112  65.332  0.00  0.00    -0.265 OA
BRANCH  55  57
ATOM     57  O8  non d ame     -10.741   5.521  66.635  0.00  0.00    -0.317 OA
BRANCH  57  58
ATOM     58  C29 non d ame     -10.598   6.753  67.348  0.00  0.00     0.052 C 
ATOM     59  H47 non d ame      -9.664   7.191  66.996  0.00  0.00     0.082 H 
ATOM     60  H48 non d ame     -11.537   7.288  67.204  0.00  0.00     0.082 H 
BRANCH  58  61
ATOM     61  C35 non d ame     -10.448   6.420  68.856  0.00  0.00    -0.034 A 
ATOM     62  C30 non d ame      -9.208   6.055  69.369  0.00  0.00    -0.075 A 
ATOM     63  C31 non d ame      -9.073   5.756  70.723  0.00  0.00    -0.082 A 
ATOM     64  H49 non d ame      -8.341   6.005  68.709  0.00  0.00     0.084 H 
ATOM     65  C32 non d ame     -10.186   5.819  71.566  0.00  0.00    -0.083 A 
ATOM     66  H50 non d ame      -8.099   5.473  71.123  0.00  0.00     0.083 H 
ATOM     67  C33 non d ame     -11.422   6.180  71.049  0.00  0.00    -0.082 A 
ATOM     68  H51 non d ame     -10.089   5.587  72.627  0.00  0.00     0.083 H 
ATOM     69  C34 non d ame     -11.561   6.482  69.696  0.00  0.00    -0.075 A 
ATOM     70  H52 non d ame     -12.289   6.226  71.709  0.00  0.00     0.083 H 
ATOM     71  H53 non d ame     -12.536   6.766  69.298  0.00  0.00     0.084 H 
ENDBRANCH  58  61
ENDBRANCH  57  58
ENDBRANCH  55  57
ENDBRANCH  52  55
ENDBRANCH  49  52
ENDBRANCH  47  49
BRANCH  47  72
ATOM     72  C24 non d ame      -6.413   8.178  64.015  0.00  0.00    -0.039 C 
ATOM     73  H35 non d ame      -6.473   8.867  64.858  0.00  0.00     0.036 H 
ATOM     74  H36 non d ame      -5.914   7.216  64.133  0.00  0.00     0.036 H 
BRANCH  72  75
ATOM     75  C25 non d ame      -5.674   8.951  62.823  0.00  0.00    -0.001 C 
ATOM     76  C26 non d ame      -4.133   8.399  62.668  0.00  0.00    -0.035 C 
ATOM     77  C27 non d ame      -3.288   9.458  62.666  0.00  0.00     0.085 C 
ATOM     78  H38 non d ame      -3.844   7.843  63.560  0.00  0.00     0.036 H 
ATOM     79  H39 non d ame      -3.991   7.958  61.681  0.00  0.00     0.036 H 
ATOM     80  N5  non d ame      -4.080  10.655  63.133  0.00  0.00    -0.049 N 
ATOM     81  H40 non d ame      -2.526   9.224  63.410  0.00  0.00     0.075 H 
ATOM     82  H41 non d ame      -3.006   9.603  61.624  0.00  0.00     0.075 H 
ATOM     83  C28 non d ame      -5.633  10.222  63.045  0.00  0.00     0.193 C 
ATOM     84  H42 non d ame      -3.840  10.796  64.104  0.00  0.00     0.280 HD
ATOM     85  H43 non d ame      -3.913  11.389  62.460  0.00  0.00     0.280 HD
ATOM     86  H44 non d ame      -6.264  10.586  62.233  0.00  0.00     0.129 H 
ATOM     87  H37 non d ame      -6.280   8.990  61.918  0.00  0.00     0.046 H 
BRANCH  83  88
ATOM     88  O6  non d ame      -6.314  10.582  64.248  0.00  0.00    -0.369 OA
ATOM     89  H45 non d ame      -6.993   9.931  64.438  0.00  0.00     0.212 HD
ENDBRANCH  83  88
ENDBRANCH  72  75
ENDBRANCH  47  72
ENDBRANCH  45  47
ENDBRANCH   1  43
BRANCH   1  90
ATOM     90  C16 non d ame     -10.405  12.223  63.664  0.00  0.00    -0.035 C 
ATOM     91  H21 non d ame      -9.783  12.937  64.205  0.00  0.00     0.037 H 
ATOM     92  H22 non d ame     -10.168  11.968  62.631  0.00  0.00     0.037 H 
BRANCH  90  93
ATOM     93  C17 non d ame     -11.850  12.816  63.652  0.00  0.00    -0.059 C 
ATOM     94  H23 non d ame     -11.914  13.512  62.816  0.00  0.00     0.038 H 
BRANCH  93  95
ATOM     95  C18 non d ame     -12.937  11.715  63.440  0.00  0.00    -0.073 C 
ATOM     96  H24 non d ame     -13.926  12.173  63.457  0.00  0.00     0.028 H 
ATOM     97  H25 non d ame     -12.779  11.228  62.477  0.00  0.00     0.028 H 
ATOM     98  H26 non d ame     -12.865  10.975  64.237  0.00  0.00     0.028 H 
ENDBRANCH  93  95
BRANCH  93  99
ATOM     99  C19 non d ame     -12.124  13.614  64.929  0.00  0.00    -0.073 C 
ATOM    100  H27 non d ame     -11.350  13.398  65.666  0.00  0.00     0.028 H 
ATOM    101  H28 non d ame     -12.121  14.680  64.700  0.00  0.00     0.028 H 
ATOM    102  H29 non d ame     -13.097  13.332  65.331  0.00  0.00     0.028 H 
ENDBRANCH  93  99
ENDBRANCH  90  93
ENDBRANCH   1  90
TORSDOF 26
ENDMDL
MODEL 4
REMARK VINA RESULT:      -6.5      2.759      9.089
REMARK  26 active torsions:
REMARK  status: ('A' for Active; 'I' for Inactive)
REMARK    1  A    between atoms: C2_2  and  C3_3 
REMARK    2  A    between atoms: C4_6  and  C5_7 
REMARK       I    between atoms: C5_7  and  N2_9 
REMARK    3  A    between atoms: N2_9  and  C6_10 
REMARK    4  A    between atoms: C6_10  and  C7_11 
REMARK    5  A    between atoms: C6_10  and  C8_13 
REMARK       I    between atoms: C7_11  and  N3_14 
REMARK    6  A    between atoms: N3_14  and  C9_15 
REMARK    7  A    between atoms: C9_15  and  C10_16 
REMARK    8  A    between atoms: C9_15  and  C11_18 
REMARK       I    between atoms: C10_16  and  N4_21 
REMARK    9  A    between atoms: C11_18  and  C12_19 
REMARK   10  A    between atoms: C11_18  and  C13_20 
REMARK   11  A    between atoms: N4_21  and  C14_22 
REMARK   12  A    between atoms: C14_22  and  C15_23 
REMARK   13  A    between atoms: C14_22  and  C16_25 
REMARK       I    between atoms: C15_23  and  N6_40 
REMARK   14  A    between atoms: C16_25  and  C17_26 
REMARK   15  A    between atoms: C17_26  and  C18_27 
REMARK   16  A    between atoms: C17_26  and  C19_28 
REMARK   17  A    between atoms: C20_29  and  C21_30 
REMARK   18  A    between atoms: C20_29  and  C24_33 
REMARK   19  A    between atoms: C20_29  and  N6_40 
REMARK   20  A    between atoms: C21_30  and  C22_31 
REMARK   21  A    between atoms: C22_31  and  C23_32 
REMARK   22  A    between atoms: C23_32  and  O8_43 
REMARK   23  A    between atoms: C24_33  and  C25_34 
REMARK   24  A    between atoms: C28_38  and  O6_39 
REMARK   25  A    between atoms: C29_42  and  O8_43 
REMARK   26  A    between atoms: C29_42  and  C35_49 
ROOT
ATOM      1  C14 non d ame      -9.157   7.081  66.485  0.00  0.00     0.089 C 
ATOM      2  H20 non d ame      -9.622   6.606  65.620  0.00  0.00     0.087 H 
ENDROOT
BRANCH   1   3
ATOM      3  N4  non d ame      -8.684   8.392  66.063  0.00  0.00    -0.346 N 
ATOM      4  C10 non d ame      -8.230   8.617  64.643  0.00  0.00     0.241 C 
ATOM      5  O4  non d ame      -8.252   7.727  63.858  0.00  0.00    -0.271 OA
ATOM      6  H19 non d ame      -8.671   9.135  66.748  0.00  0.00     0.163 HD
BRANCH   4   7
ATOM      7  C9  non d ame      -7.748   9.981  64.223  0.00  0.00     0.092 C 
ATOM      8  H11 non d ame      -7.727  10.033  63.134  0.00  0.00     0.088 H 
BRANCH   7   9
ATOM      9  N3  non d ame      -8.696  10.999  64.687  0.00  0.00    -0.346 N 
ATOM     10  C7  non d ame      -9.837  11.344  63.876  0.00  0.00     0.240 C 
ATOM     11  O3  non d ame     -10.008  10.814  62.847  0.00  0.00    -0.271 OA
ATOM     12  H10 non d ame      -8.561  11.466  65.573  0.00  0.00     0.163 HD
BRANCH  10  13
ATOM     13  C6  non d ame     -10.841  12.430  64.374  0.00  0.00     0.086 C 
ATOM     14  H6  non d ame     -11.300  12.174  65.329  0.00  0.00     0.086 H 
BRANCH  13  15
ATOM     15  N2  non d ame     -10.122  13.676  64.580  0.00  0.00    -0.343 N 
ATOM     16  C5  non d ame     -10.640  14.659  65.535  0.00  0.00     0.273 C 
ATOM     17  O2  non d ame     -11.638  14.438  66.130  0.00  0.00    -0.266 OA
ATOM     18  H5  non d ame      -9.272  13.858  64.066  0.00  0.00     0.163 HD
BRANCH  16  19
ATOM     19  C4  non d ame      -9.890  15.980  65.764  0.00  0.00     0.154 A 
ATOM     20  C1  non d ame      -8.557  16.143  66.259  0.00  0.00    -0.017 A 
ATOM     21  C2  non d ame      -8.346  17.539  66.282  0.00  0.00     0.077 A 
ATOM     22  H1  non d ame      -7.851  15.367  66.556  0.00  0.00     0.091 H 
ATOM     23  O1  non d ame      -9.435  18.103  65.848  0.00  0.00    -0.218 OA
ATOM     24  N1  non d ame     -10.350  17.214  65.540  0.00  0.00    -0.123 NA
BRANCH  21  25
ATOM     25  C3  non d ame      -7.077  18.252  66.731  0.00  0.00    -0.029 C 
ATOM     26  H2  non d ame      -7.207  19.329  66.624  0.00  0.00     0.036 H 
ATOM     27  H3  non d ame      -6.876  18.012  67.775  0.00  0.00     0.036 H 
ATOM     28  H4  non d ame      -6.239  17.925  66.115  0.00  0.00     0.036 H 
ENDBRANCH  21  25
ENDBRANCH  16  19
ENDBRANCH  13  15
BRANCH  13  29
ATOM     29  C8  non d ame     -11.927  12.624  63.347  0.00  0.00    -0.049 C 
ATOM     30  H7  non d ame     -12.850  12.168  63.703  0.00  0.00     0.030 H 
ATOM     31  H8  non d ame     -12.087  13.690  63.184  0.00  0.00     0.030 H 
ATOM     32  H9  non d ame     -11.628  12.154  62.410  0.00  0.00     0.030 H 
ENDBRANCH  13  29
ENDBRANCH  10  13
ENDBRANCH   7   9
BRANCH   7  33
ATOM     33  C11 non d ame      -6.350  10.253  64.851  0.00  0.00    -0.033 C 
ATOM     34  H12 non d ame      -5.819  10.935  64.187  0.00  0.00     0.042 H 
BRANCH  33  35
ATOM     35  C12 non d ame      -6.477  10.953  66.239  0.00  0.00    -0.071 C 
ATOM     36  H13 non d ame      -5.527  10.884  66.769  0.00  0.00     0.028 H 
ATOM     37  H14 non d ame      -6.735  12.002  66.095  0.00  0.00     0.028 H 
ATOM     38  H15 non d ame      -7.256  10.464  66.823  0.00  0.00     0.028 H 
ENDBRANCH  33  35
BRANCH  33  39
ATOM     39  C13 non d ame      -5.517   8.935  64.955  0.00  0.00    -0.071 C 
ATOM     40  H16 non d ame      -6.158   8.128  65.311  0.00  0.00     0.028 H 
ATOM     41  H17 non d ame      -5.120   8.677  63.973  0.00  0.00     0.028 H 
ATOM     42  H18 non d ame      -4.693   9.080  65.653  0.00  0.00     0.028 H 
ENDBRANCH  33  39
ENDBRANCH   7  33
ENDBRANCH   4   7
ENDBRANCH   1   3
BRANCH   1  43
ATOM     43  C15 non d ame     -10.159   7.271  67.660  0.00  0.00     0.240 C 
ATOM     44  O5  non d ame     -11.164   6.636  67.688  0.00  0.00    -0.271 OA
ATOM     45  N6  non d ame      -9.862   8.238  68.754  0.00  0.00    -0.355 N 
ATOM     46  H46 non d ame      -9.010   8.780  68.744  0.00  0.00     0.162 HD
BRANCH  45  47
ATOM     47  C20 non d ame     -10.824   8.406  69.865  0.00  0.00     0.013 C 
ATOM     48  H30 non d ame     -11.826   8.241  69.469  0.00  0.00     0.072 H 
BRANCH  47  49
ATOM     49  C21 non d ame     -10.712   9.810  70.416  0.00  0.00    -0.038 C 
ATOM     50  H31 non d ame     -10.626   9.696  71.497  0.00  0.00     0.036 H 
ATOM     51  H32 non d ame      -9.908  10.284  69.852  0.00  0.00     0.036 H 
BRANCH  49  52
ATOM     52  C22 non d ame     -11.979  10.655  70.165  0.00  0.00     0.018 C 
ATOM     53  H33 non d ame     -12.786   9.939  70.005  0.00  0.00     0.048 H 
ATOM     54  H34 non d ame     -12.033  11.360  70.995  0.00  0.00     0.048 H 
BRANCH  52  55
ATOM     55  C23 non d ame     -11.911  11.518  68.874  0.00  0.00     0.259 C 
ATOM     56  O7  non d ame     -11.530  11.046  67.852  0.00  0.00    -0.265 OA
BRANCH  55  57
ATOM     57  O8  non d ame     -12.298  12.886  68.929  0.00  0.00    -0.317 OA
BRANCH  57  58
ATOM     58  C29 non d ame     -11.342  13.736  69.569  0.00  0.00     0.052 C 
ATOM     59  H47 non d ame     -10.563  13.073  69.946  0.00  0.00     0.082 H 
ATOM     60  H48 non d ame     -11.096  14.506  68.839  0.00  0.00     0.082 H 
BRANCH  58  61
ATOM     61  C35 non d ame     -12.039  14.413  70.780  0.00  0.00    -0.034 A 
ATOM     62  C30 non d ame     -11.441  15.500  71.409  0.00  0.00    -0.075 A 
ATOM     63  C31 non d ame     -12.067  16.108  72.496  0.00  0.00    -0.082 A 
ATOM     64  H49 non d ame     -10.483  15.876  71.050  0.00  0.00     0.084 H 
ATOM     65  C32 non d ame     -13.294  15.623  72.956  0.00  0.00    -0.083 A 
ATOM     66  H50 non d ame     -11.597  16.962  72.986  0.00  0.00     0.083 H 
ATOM     67  C33 non d ame     -13.885  14.536  72.327  0.00  0.00    -0.082 A 
ATOM     68  H51 non d ame     -13.790  16.093  73.805  0.00  0.00     0.083 H 
ATOM     69  C34 non d ame     -13.265  13.927  71.239  0.00  0.00    -0.075 A 
ATOM     70  H52 non d ame     -14.842  14.158  72.690  0.00  0.00     0.083 H 
ATOM     71  H53 non d ame     -13.736  13.074  70.749  0.00  0.00     0.084 H 
ENDBRANCH  58  61
ENDBRANCH  57  58
ENDBRANCH  55  57
ENDBRANCH  52  55
ENDBRANCH  49  52
ENDBRANCH  47  49
BRANCH  47  72
ATOM     72  C24 non d ame     -10.518   7.398  70.971  0.00  0.00    -0.039 C 
ATOM     73  H35 non d ame     -11.422   6.797  71.074  0.00  0.00     0.036 H 
ATOM     74  H36 non d ame      -9.580   6.925  70.680  0.00  0.00     0.036 H 
BRANCH  72  75
ATOM     75  C25 non d ame     -10.267   8.121  72.378  0.00  0.00    -0.001 C 
ATOM     76  C26 non d ame      -8.656   8.162  72.707  0.00  0.00    -0.035 C 
ATOM     77  C27 non d ame      -8.453   7.667  73.952  0.00  0.00     0.085 C 
ATOM     78  H38 non d ame      -8.126   7.460  72.064  0.00  0.00     0.036 H 
ATOM     79  H39 non d ame      -8.317   9.194  72.785  0.00  0.00     0.036 H 
ATOM     80  N5  non d ame      -9.735   6.991  74.373  0.00  0.00    -0.049 N 
ATOM     81  H40 non d ame      -7.673   6.912  73.841  0.00  0.00     0.075 H 
ATOM     82  H41 non d ame      -8.284   8.536  74.587  0.00  0.00     0.075 H 
ATOM     83  C28 non d ame     -10.865   7.496  73.337  0.00  0.00     0.193 C 
ATOM     84  H42 non d ame      -9.594   6.000  74.238  0.00  0.00     0.280 HD
ATOM     85  H43 non d ame      -9.958   7.348  75.292  0.00  0.00     0.280 HD
ATOM     86  H44 non d ame     -11.595   8.247  73.638  0.00  0.00     0.129 H 
ATOM     87  H37 non d ame     -10.815   9.059  72.464  0.00  0.00     0.046 H 
BRANCH  83  88
ATOM     88  O6  non d ame     -11.631   6.387  72.863  0.00  0.00    -0.369 OA
ATOM     89  H45 non d ame     -12.565   6.605  72.897  0.00  0.00     0.212 HD
ENDBRANCH  83  88
ENDBRANCH  72  75
ENDBRANCH  47  72
ENDBRANCH  45  47
ENDBRANCH   1  43
BRANCH   1  90
ATOM     90  C16 non d ame      -7.972   6.253  66.953  0.00  0.00    -0.035 C 
ATOM     91  H21 non d ame      -7.100   6.894  66.819  0.00  0.00     0.037 H 
ATOM     92  H22 non d ame      -8.241   5.901  67.949  0.00  0.00     0.037 H 
BRANCH  90  93
ATOM     93  C17 non d ame      -7.718   4.977  66.088  0.00  0.00    -0.059 C 
ATOM     94  H23 non d ame      -7.584   4.137  66.769  0.00  0.00     0.038 H 
BRANCH  93  95
ATOM     95  C18 non d ame      -8.929   4.647  65.157  0.00  0.00    -0.073 C 
ATOM     96  H24 non d ame      -9.844   5.043  65.596  0.00  0.00     0.028 H 
ATOM     97  H25 non d ame      -8.769   5.101  64.178  0.00  0.00     0.028 H 
ATOM     98  H26 non d ame      -9.017   3.566  65.046  0.00  0.00     0.028 H 
ENDBRANCH  93  95
BRANCH  93  99
ATOM     99  C19 non d ame      -6.428   5.115  65.275  0.00  0.00    -0.073 C 
ATOM    100  H27 non d ame      -6.067   4.125  64.996  0.00  0.00     0.028 H 
ATOM    101  H28 non d ame      -6.627   5.697  64.375  0.00  0.00     0.028 H 
ATOM    102  H29 non d ame      -5.673   5.622  65.876  0.00  0.00     0.028 H 
ENDBRANCH  93  99
ENDBRANCH  90  93
ENDBRANCH   1  90
TORSDOF 26
ENDMDL
MODEL 5
REMARK VINA RESULT:      -6.4      2.415      7.649
REMARK  26 active torsions:
REMARK  status: ('A' for Active; 'I' for Inactive)
REMARK    1  A    between atoms: C2_2  and  C3_3 
REMARK    2  A    between atoms: C4_6  and  C5_7 
REMARK       I    between atoms: C5_7  and  N2_9 
REMARK    3  A    between atoms: N2_9  and  C6_10 
REMARK    4  A    between atoms: C6_10  and  C7_11 
REMARK    5  A    between atoms: C6_10  and  C8_13 
REMARK       I    between atoms: C7_11  and  N3_14 
REMARK    6  A    between atoms: N3_14  and  C9_15 
REMARK    7  A    between atoms: C9_15  and  C10_16 
REMARK    8  A    between atoms: C9_15  and  C11_18 
REMARK       I    between atoms: C10_16  and  N4_21 
REMARK    9  A    between atoms: C11_18  and  C12_19 
REMARK   10  A    between atoms: C11_18  and  C13_20 
REMARK   11  A    between atoms: N4_21  and  C14_22 
REMARK   12  A    between atoms: C14_22  and  C15_23 
REMARK   13  A    between atoms: C14_22  and  C16_25 
REMARK       I    between atoms: C15_23  and  N6_40 
REMARK   14  A    between atoms: C16_25  and  C17_26 
REMARK   15  A    between atoms: C17_26  and  C18_27 
REMARK   16  A    between atoms: C17_26  and  C19_28 
REMARK   17  A    between atoms: C20_29  and  C21_30 
REMARK   18  A    between atoms: C20_29  and  C24_33 
REMARK   19  A    between atoms: C20_29  and  N6_40 
REMARK   20  A    between atoms: C21_30  and  C22_31 
REMARK   21  A    between atoms: C22_31  and  C23_32 
REMARK   22  A    between atoms: C23_32  and  O8_43 
REMARK   23  A    between atoms: C24_33  and  C25_34 
REMARK   24  A    between atoms: C28_38  and  O6_39 
REMARK   25  A    between atoms: C29_42  and  O8_43 
REMARK   26  A    between atoms: C29_42  and  C35_49 
ROOT
ATOM      1  C14 non d ame     -11.495  15.054  69.864  0.00  0.00     0.089 C 
ATOM      2  H20 non d ame     -10.572  15.123  70.440  0.00  0.00     0.087 H 
ENDROOT
BRANCH   1   3
ATOM      3  N4  non d ame     -11.296  15.796  68.628  0.00  0.00    -0.346 N 
ATOM      4  C10 non d ame     -10.026  16.576  68.403  0.00  0.00     0.241 C 
ATOM      5  O4  non d ame      -9.178  16.595  69.234  0.00  0.00    -0.271 OA
ATOM      6  H19 non d ame     -12.031  15.769  67.934  0.00  0.00     0.163 HD
BRANCH   4   7
ATOM      7  C9  non d ame      -9.834  17.333  67.115  0.00  0.00     0.092 C 
ATOM      8  H11 non d ame      -8.768  17.419  66.905  0.00  0.00     0.088 H 
BRANCH   7   9
ATOM      9  N3  non d ame     -10.434  16.578  66.011  0.00  0.00    -0.346 N 
ATOM     10  C7  non d ame     -10.069  15.199  65.799  0.00  0.00     0.240 C 
ATOM     11  O3  non d ame      -9.294  14.681  66.508  0.00  0.00    -0.271 OA
ATOM     12  H10 non d ame     -11.102  17.012  65.390  0.00  0.00     0.163 HD
BRANCH  10  13
ATOM     13  C6  non d ame     -10.708  14.401  64.620  0.00  0.00     0.086 C 
ATOM     14  H6  non d ame     -10.731  14.969  63.690  0.00  0.00     0.086 H 
BRANCH  13  15
ATOM     15  N2  non d ame      -9.907  13.216  64.364  0.00  0.00    -0.343 N 
ATOM     16  C5  non d ame     -10.432  12.166  63.487  0.00  0.00     0.273 C 
ATOM     17  O2  non d ame     -11.501  12.284  62.996  0.00  0.00    -0.266 OA
ATOM     18  H5  non d ame      -8.996  13.122  64.790  0.00  0.00     0.163 HD
BRANCH  16  19
ATOM     19  C4  non d ame      -9.595  10.908  63.206  0.00  0.00     0.154 A 
ATOM     20  C1  non d ame      -9.381   9.798  64.084  0.00  0.00    -0.017 A 
ATOM     21  C2  non d ame      -8.549   8.917  63.358  0.00  0.00     0.077 A 
ATOM     22  H1  non d ame      -9.770   9.655  65.092  0.00  0.00     0.091 H 
ATOM     23  O1  non d ame      -8.320   9.465  62.201  0.00  0.00    -0.218 OA
ATOM     24  N1  non d ame      -8.919  10.628  62.089  0.00  0.00    -0.123 NA
BRANCH  21  25
ATOM     25  C3  non d ame      -8.021   7.573  63.842  0.00  0.00    -0.029 C 
ATOM     26  H2  non d ame      -8.835   6.848  63.865  0.00  0.00     0.036 H 
ATOM     27  H3  non d ame      -7.243   7.223  63.164  0.00  0.00     0.036 H 
ATOM     28  H4  non d ame      -7.605   7.685  64.844  0.00  0.00     0.036 H 
ENDBRANCH  21  25
ENDBRANCH  16  19
ENDBRANCH  13  15
BRANCH  13  29
ATOM     29  C8  non d ame     -12.117  14.004  64.983  0.00  0.00    -0.049 C 
ATOM     30  H7  non d ame     -12.172  12.921  65.093  0.00  0.00     0.030 H 
ATOM     31  H8  non d ame     -12.398  14.480  65.923  0.00  0.00     0.030 H 
ATOM     32  H9  non d ame     -12.798  14.324  64.195  0.00  0.00     0.030 H 
ENDBRANCH  13  29
ENDBRANCH  10  13
ENDBRANCH   7   9
BRANCH   7  33
ATOM     33  C11 non d ame     -10.524  18.724  67.224  0.00  0.00    -0.033 C 
ATOM     34  H12 non d ame     -11.549  18.557  67.555  0.00  0.00     0.042 H 
BRANCH  33  35
ATOM     35  C12 non d ame      -9.827  19.623  68.292  0.00  0.00    -0.071 C 
ATOM     36  H13 non d ame     -10.247  19.411  69.275  0.00  0.00     0.028 H 
ATOM     37  H14 non d ame      -8.758  19.412  68.301  0.00  0.00     0.028 H 
ATOM     38  H15 non d ame      -9.989  20.672  68.045  0.00  0.00     0.028 H 
ENDBRANCH  33  35
BRANCH  33  39
ATOM     39  C13 non d ame     -10.576  19.433  65.833  0.00  0.00    -0.071 C 
ATOM     40  H16 non d ame     -11.224  20.307  65.893  0.00  0.00     0.028 H 
ATOM     41  H17 non d ame      -9.571  19.747  65.547  0.00  0.00     0.028 H 
ATOM     42  H18 non d ame     -10.966  18.741  65.087  0.00  0.00     0.028 H 
ENDBRANCH  33  39
ENDBRANCH   7  33
ENDBRANCH   4   7
ENDBRANCH   1   3
BRANCH   1  43
ATOM     43  C15 non d ame     -11.857  13.584  69.507  0.00  0.00     0.240 C 
ATOM     44  O5  non d ame     -12.133  13.298  68.387  0.00  0.00    -0.271 OA
ATOM     45  N6  non d ame     -11.849  12.529  70.561  0.00  0.00    -0.355 N 
ATOM     46  H46 non d ame     -11.611  12.759  71.515  0.00  0.00     0.162 HD
BRANCH  45  47
ATOM     47  C20 non d ame     -12.194  11.136  70.205  0.00  0.00     0.013 C 
ATOM     48  H30 non d ame     -12.776  11.159  69.284  0.00  0.00     0.072 H 
BRANCH  47  49
ATOM     49  C21 non d ame     -13.013  10.524  71.319  0.00  0.00    -0.038 C 
ATOM     50  H31 non d ame     -12.989  11.247  72.135  0.00  0.00     0.036 H 
ATOM     51  H32 non d ame     -13.965  10.246  70.865  0.00  0.00     0.036 H 
BRANCH  49  52
ATOM     52  C22 non d ame     -12.395   9.222  71.872  0.00  0.00     0.018 C 
ATOM     53  H33 non d ame     -11.452   9.093  71.341  0.00  0.00     0.048 H 
ATOM     54  H34 non d ame     -12.400   9.330  72.957  0.00  0.00     0.048 H 
BRANCH  52  55
ATOM     55  C23 non d ame     -13.235   7.951  71.566  0.00  0.00     0.259 C 
ATOM     56  O7  non d ame     -14.396   7.918  71.821  0.00  0.00    -0.265 OA
BRANCH  55  57
ATOM     57  O8  non d ame     -12.599   6.818  70.987  0.00  0.00    -0.317 OA
BRANCH  57  58
ATOM     58  C29 non d ame     -11.700   6.140  71.870  0.00  0.00     0.052 C 
ATOM     59  H47 non d ame     -11.655   6.753  72.771  0.00  0.00     0.082 H 
ATOM     60  H48 non d ame     -12.060   5.113  71.927  0.00  0.00     0.082 H 
BRANCH  58  61
ATOM     61  C35 non d ame     -10.296   6.133  71.210  0.00  0.00    -0.034 A 
ATOM     62  C30 non d ame      -9.370   7.121  71.529  0.00  0.00    -0.075 A 
ATOM     63  C31 non d ame      -8.109   7.114  70.936  0.00  0.00    -0.082 A 
ATOM     64  H49 non d ame      -9.633   7.901  72.244  0.00  0.00     0.084 H 
ATOM     65  C32 non d ame      -7.774   6.115  70.018  0.00  0.00    -0.083 A 
ATOM     66  H50 non d ame      -7.385   7.889  71.190  0.00  0.00     0.083 H 
ATOM     67  C33 non d ame      -8.702   5.132  69.700  0.00  0.00    -0.082 A 
ATOM     68  H51 non d ame      -6.790   6.102  69.550  0.00  0.00     0.083 H 
ATOM     69  C34 non d ame      -9.964   5.134  70.292  0.00  0.00    -0.075 A 
ATOM     70  H52 non d ame      -8.439   4.355  68.982  0.00  0.00     0.083 H 
ATOM     71  H53 non d ame     -10.687   4.358  70.038  0.00  0.00     0.084 H 
ENDBRANCH  58  61
ENDBRANCH  57  58
ENDBRANCH  55  57
ENDBRANCH  52  55
ENDBRANCH  49  52
ENDBRANCH  47  49
BRANCH  47  72
ATOM     72  C24 non d ame     -10.917  10.323  70.006  0.00  0.00    -0.039 C 
ATOM     73  H35 non d ame     -10.110  10.953  70.381  0.00  0.00     0.036 H 
ATOM     74  H36 non d ame     -11.113   9.356  70.470  0.00  0.00     0.036 H 
BRANCH  72  75
ATOM     75  C25 non d ame     -10.622  10.052  68.455  0.00  0.00    -0.001 C 
ATOM     76  C26 non d ame     -10.396   8.443  68.201  0.00  0.00    -0.035 C 
ATOM     77  C27 non d ame      -9.239   8.267  67.519  0.00  0.00     0.085 C 
ATOM     78  H38 non d ame     -10.213   7.937  69.148  0.00  0.00     0.036 H 
ATOM     79  H39 non d ame     -11.155   8.062  67.517  0.00  0.00     0.036 H 
ATOM     80  N5  non d ame      -8.493   9.578  67.571  0.00  0.00    -0.049 N 
ATOM     81  H40 non d ame      -8.680   7.518  68.081  0.00  0.00     0.075 H 
ATOM     82  H41 non d ame      -9.535   8.068  66.490  0.00  0.00     0.075 H 
ATOM     83  C28 non d ame      -9.565  10.680  68.063  0.00  0.00     0.193 C 
ATOM     84  H42 non d ame      -7.785   9.477  68.285  0.00  0.00     0.280 HD
ATOM     85  H43 non d ame      -8.224   9.793  66.621  0.00  0.00     0.280 HD
ATOM     86  H44 non d ame     -10.003  11.382  67.353  0.00  0.00     0.129 H 
ATOM     87  H37 non d ame     -11.334  10.561  67.805  0.00  0.00     0.046 H 
BRANCH  83  88
ATOM     88  O6  non d ame      -9.003  11.487  69.099  0.00  0.00    -0.369 OA
ATOM     89  H45 non d ame      -8.481  10.936  69.686  0.00  0.00     0.212 HD
ENDBRANCH  83  88
ENDBRANCH  72  75
ENDBRANCH  47  72
ENDBRANCH  45  47
ENDBRANCH   1  43
BRANCH   1  90
ATOM     90  C16 non d ame     -12.637  15.687  70.643  0.00  0.00    -0.035 C 
ATOM     91  H21 non d ame     -12.403  16.751  70.686  0.00  0.00     0.037 H 
ATOM     92  H22 non d ame     -13.547  15.348  70.148  0.00  0.00     0.037 H 
BRANCH  90  93
ATOM     93  C17 non d ame     -12.732  15.197  72.124  0.00  0.00    -0.059 C 
ATOM     94  H23 non d ame     -12.144  14.283  72.208  0.00  0.00     0.038 H 
BRANCH  93  95
ATOM     95  C18 non d ame     -12.140  16.237  73.128  0.00  0.00    -0.073 C 
ATOM     96  H24 non d ame     -11.129  16.504  72.821  0.00  0.00     0.028 H 
ATOM     97  H25 non d ame     -12.765  17.131  73.135  0.00  0.00     0.028 H 
ATOM     98  H26 non d ame     -12.115  15.803  74.127  0.00  0.00     0.028 H 
ENDBRANCH  93  95
BRANCH  93  99
ATOM     99  C19 non d ame     -14.176  14.845  72.491  0.00  0.00    -0.073 C 
ATOM    100  H27 non d ame     -14.721  15.757  72.736  0.00  0.00     0.028 H 
ATOM    101  H28 non d ame     -14.655  14.350  71.646  0.00  0.00     0.028 H 
ATOM    102  H29 non d ame     -14.179  14.177  73.352  0.00  0.00     0.028 H 
ENDBRANCH  93  99
ENDBRANCH  90  93
ENDBRANCH   1  90
TORSDOF 26
ENDMDL
MODEL 6
REMARK VINA RESULT:      -6.4      3.125      7.766
REMARK  26 active torsions:
REMARK  status: ('A' for Active; 'I' for Inactive)
REMARK    1  A    between atoms: C2_2  and  C3_3 
REMARK    2  A    between atoms: C4_6  and  C5_7 
REMARK       I    between atoms: C5_7  and  N2_9 
REMARK    3  A    between atoms: N2_9  and  C6_10 
REMARK    4  A    between atoms: C6_10  and  C7_11 
REMARK    5  A    between atoms: C6_10  and  C8_13 
REMARK       I    between atoms: C7_11  and  N3_14 
REMARK    6  A    between atoms: N3_14  and  C9_15 
REMARK    7  A    between atoms: C9_15  and  C10_16 
REMARK    8  A    between atoms: C9_15  and  C11_18 
REMARK       I    between atoms: C10_16  and  N4_21 
REMARK    9  A    between atoms: C11_18  and  C12_19 
REMARK   10  A    between atoms: C11_18  and  C13_20 
REMARK   11  A    between atoms: N4_21  and  C14_22 
REMARK   12  A    between atoms: C14_22  and  C15_23 
REMARK   13  A    between atoms: C14_22  and  C16_25 
REMARK       I    between atoms: C15_23  and  N6_40 
REMARK   14  A    between atoms: C16_25  and  C17_26 
REMARK   15  A    between atoms: C17_26  and  C18_27 
REMARK   16  A    between atoms: C17_26  and  C19_28 
REMARK   17  A    between atoms: C20_29  and  C21_30 
REMARK   18  A    between atoms: C20_29  and  C24_33 
REMARK   19  A    between atoms: C20_29  and  N6_40 
REMARK   20  A    between atoms: C21_30  and  C22_31 
REMARK   21  A    between atoms: C22_31  and  C23_32 
REMARK   22  A    between atoms: C23_32  and  O8_43 
REMARK   23  A    between atoms: C24_33  and  C25_34 
REMARK   24  A    between atoms: C28_38  and  O6_39 
REMARK   25  A    between atoms: C29_42  and  O8_43 
REMARK   26  A    between atoms: C29_42  and  C35_49 
ROOT
ATOM      1  C14 non d ame     -12.192  13.632  69.642  0.00  0.00     0.089 C 
ATOM      2  H20 non d ame     -13.201  13.271  69.443  0.00  0.00     0.087 H 
ENDROOT
BRANCH   1   3
ATOM      3  N4  non d ame     -11.398  12.494  70.081  0.00  0.00    -0.346 N 
ATOM      4  C10 non d ame     -11.522  11.164  69.381  0.00  0.00     0.241 C 
ATOM      5  O4  non d ame     -12.269  11.033  68.469  0.00  0.00    -0.271 OA
ATOM      6  H19 non d ame     -10.769  12.626  70.861  0.00  0.00     0.163 HD
BRANCH   4   7
ATOM      7  C9  non d ame     -10.688   9.999  69.845  0.00  0.00     0.092 C 
ATOM      8  H11 non d ame     -10.285  10.217  70.834  0.00  0.00     0.088 H 
BRANCH   7   9
ATOM      9  N3  non d ame     -11.537   8.811  69.975  0.00  0.00    -0.346 N 
ATOM     10  C7  non d ame     -12.354   8.635  71.151  0.00  0.00     0.240 C 
ATOM     11  O3  non d ame     -12.338   9.438  72.003  0.00  0.00    -0.271 OA
ATOM     12  H10 non d ame     -11.560   8.109  69.250  0.00  0.00     0.163 HD
BRANCH  10  13
ATOM     13  C6  non d ame     -13.254   7.367  71.286  0.00  0.00     0.086 C 
ATOM     14  H6  non d ame     -13.235   6.740  70.395  0.00  0.00     0.086 H 
BRANCH  13  15
ATOM     15  N2  non d ame     -12.756   6.550  72.380  0.00  0.00    -0.343 N 
ATOM     16  C5  non d ame     -11.526   5.776  72.201  0.00  0.00     0.273 C 
ATOM     17  O2  non d ame     -10.945   5.816  71.172  0.00  0.00    -0.266 OA
ATOM     18  H5  non d ame     -13.260   6.520  73.255  0.00  0.00     0.163 HD
BRANCH  16  19
ATOM     19  C4  non d ame     -10.987   4.909  73.350  0.00  0.00     0.154 A 
ATOM     20  C1  non d ame     -10.814   3.489  73.353  0.00  0.00    -0.017 A 
ATOM     21  C2  non d ame     -10.294   3.189  74.632  0.00  0.00     0.077 A 
ATOM     22  H1  non d ame     -11.033   2.784  72.551  0.00  0.00     0.091 H 
ATOM     23  O1  non d ame     -10.184   4.313  75.278  0.00  0.00    -0.218 OA
ATOM     24  N1  non d ame     -10.582   5.331  74.551  0.00  0.00    -0.123 NA
BRANCH  21  25
ATOM     25  C3  non d ame      -9.930   1.806  75.156  0.00  0.00    -0.029 C 
ATOM     26  H2  non d ame      -9.783   1.126  74.316  0.00  0.00     0.036 H 
ATOM     27  H3  non d ame      -9.010   1.869  75.737  0.00  0.00     0.036 H 
ATOM     28  H4  non d ame     -10.735   1.433  75.789  0.00  0.00     0.036 H 
ENDBRANCH  21  25
ENDBRANCH  16  19
ENDBRANCH  13  15
BRANCH  13  29
ATOM     29  C8  non d ame     -14.677   7.784  71.559  0.00  0.00    -0.049 C 
ATOM     30  H7  non d ame     -15.355   7.172  70.964  0.00  0.00     0.030 H 
ATOM     31  H8  non d ame     -14.898   7.649  72.617  0.00  0.00     0.030 H 
ATOM     32  H9  non d ame     -14.805   8.833  71.291  0.00  0.00     0.030 H 
ENDBRANCH  13  29
ENDBRANCH  10  13
ENDBRANCH   7   9
BRANCH   7  33
ATOM     33  C11 non d ame      -9.565   9.718  68.804  0.00  0.00    -0.033 C 
ATOM     34  H12 non d ame      -9.429  10.624  68.214  0.00  0.00     0.042 H 
BRANCH  33  35
ATOM     35  C12 non d ame      -8.206   9.406  69.505  0.00  0.00    -0.071 C 
ATOM     36  H13 non d ame      -7.829  10.309  69.985  0.00  0.00     0.028 H 
ATOM     37  H14 non d ame      -8.354   8.631  70.256  0.00  0.00     0.028 H 
ATOM     38  H15 non d ame      -7.486   9.062  68.763  0.00  0.00     0.028 H 
ENDBRANCH  33  35
BRANCH  33  39
ATOM     39  C13 non d ame      -9.978   8.566  67.832  0.00  0.00    -0.071 C 
ATOM     40  H16 non d ame     -10.199   7.667  68.407  0.00  0.00     0.028 H 
ATOM     41  H17 non d ame     -10.864   8.865  67.270  0.00  0.00     0.028 H 
ATOM     42  H18 non d ame      -9.160   8.364  67.141  0.00  0.00     0.028 H 
ENDBRANCH  33  39
ENDBRANCH   7  33
ENDBRANCH   4   7
ENDBRANCH   1   3
BRANCH   1  43
ATOM     43  C15 non d ame     -11.526  14.243  68.376  0.00  0.00     0.240 C 
ATOM     44  O5  non d ame     -11.933  15.265  67.928  0.00  0.00    -0.271 OA
ATOM     45  N6  non d ame     -10.373  13.556  67.726  0.00  0.00    -0.355 N 
ATOM     46  H46 non d ame     -10.015  12.689  68.100  0.00  0.00     0.162 HD
BRANCH  45  47
ATOM     47  C20 non d ame      -9.750  14.150  66.524  0.00  0.00     0.013 C 
ATOM     48  H30 non d ame      -8.849  13.580  66.296  0.00  0.00     0.072 H 
BRANCH  47  49
ATOM     49  C21 non d ame      -9.391  15.591  66.807  0.00  0.00    -0.038 C 
ATOM     50  H31 non d ame      -9.911  15.848  67.730  0.00  0.00     0.036 H 
ATOM     51  H32 non d ame      -8.302  15.637  66.764  0.00  0.00     0.036 H 
BRANCH  49  52
ATOM     52  C22 non d ame      -9.912  16.562  65.726  0.00  0.00     0.018 C 
ATOM     53  H33 non d ame      -9.078  16.716  65.040  0.00  0.00     0.048 H 
ATOM     54  H34 non d ame     -10.843  16.127  65.363  0.00  0.00     0.048 H 
BRANCH  52  55
ATOM     55  C23 non d ame     -10.281  17.969  66.273  0.00  0.00     0.259 C 
ATOM     56  O7  non d ame     -10.596  18.842  65.531  0.00  0.00    -0.265 OA
BRANCH  55  57
ATOM     57  O8  non d ame     -10.227  18.208  67.674  0.00  0.00    -0.317 OA
BRANCH  57  58
ATOM     58  C29 non d ame      -9.815  19.532  68.024  0.00  0.00     0.052 C 
ATOM     59  H47 non d ame     -10.167  20.173  67.216  0.00  0.00     0.082 H 
ATOM     60  H48 non d ame     -10.171  19.693  69.041  0.00  0.00     0.082 H 
BRANCH  58  61
ATOM     61  C35 non d ame      -8.264  19.563  68.037  0.00  0.00    -0.034 A 
ATOM     62  C30 non d ame      -7.581  20.554  67.337  0.00  0.00    -0.075 A 
ATOM     63  C31 non d ame      -6.188  20.582  67.348  0.00  0.00    -0.082 A 
ATOM     64  H49 non d ame      -8.139  21.308  66.782  0.00  0.00     0.084 H 
ATOM     65  C32 non d ame      -5.476  19.613  68.060  0.00  0.00    -0.083 A 
ATOM     66  H50 non d ame      -5.656  21.361  66.801  0.00  0.00     0.083 H 
ATOM     67  C33 non d ame      -6.161  18.624  68.753  0.00  0.00    -0.082 A 
ATOM     68  H51 non d ame      -4.386  19.628  68.074  0.00  0.00     0.083 H 
ATOM     69  C34 non d ame      -7.554  18.594  68.747  0.00  0.00    -0.075 A 
ATOM     70  H52 non d ame      -5.602  17.868  69.306  0.00  0.00     0.083 H 
ATOM     71  H53 non d ame      -8.085  17.815  69.295  0.00  0.00     0.084 H 
ENDBRANCH  58  61
ENDBRANCH  57  58
ENDBRANCH  55  57
ENDBRANCH  52  55
ENDBRANCH  49  52
ENDBRANCH  47  49
BRANCH  47  72
ATOM     72  C24 non d ame     -10.727  14.089  65.352  0.00  0.00    -0.039 C 
ATOM     73  H35 non d ame     -11.549  14.750  65.625  0.00  0.00     0.036 H 
ATOM     74  H36 non d ame     -10.129  14.300  64.465  0.00  0.00     0.036 H 
BRANCH  72  75
ATOM     75  C25 non d ame     -11.341  12.621  65.168  0.00  0.00    -0.001 C 
ATOM     76  C26 non d ame     -10.130  11.510  65.105  0.00  0.00    -0.035 C 
ATOM     77  C27 non d ame     -10.304  10.736  64.008  0.00  0.00     0.085 C 
ATOM     78  H38 non d ame      -9.178  12.006  64.919  0.00  0.00     0.036 H 
ATOM     79  H39 non d ame     -10.225  10.806  65.932  0.00  0.00     0.036 H 
ATOM     80  N5  non d ame     -11.333  11.422  63.142  0.00  0.00    -0.049 N 
ATOM     81  H40 non d ame      -9.344  10.742  63.491  0.00  0.00     0.075 H 
ATOM     82  H41 non d ame     -10.719   9.798  64.376  0.00  0.00     0.075 H 
ATOM     83  C28 non d ame     -12.032  12.535  64.080  0.00  0.00     0.193 C 
ATOM     84  H42 non d ame     -10.822  11.894  62.410  0.00  0.00     0.280 HD
ATOM     85  H43 non d ame     -12.023  10.722  62.907  0.00  0.00     0.280 HD
ATOM     86  H44 non d ame     -13.028  12.368  64.490  0.00  0.00     0.129 H 
ATOM     87  H37 non d ame     -12.158  12.425  65.864  0.00  0.00     0.046 H 
BRANCH  83  88
ATOM     88  O6  non d ame     -12.107  13.784  63.390  0.00  0.00    -0.369 OA
ATOM     89  H45 non d ame     -11.986  14.502  64.015  0.00  0.00     0.212 HD
ENDBRANCH  83  88
ENDBRANCH  72  75
ENDBRANCH  47  72
ENDBRANCH  45  47
ENDBRANCH   1  43
BRANCH   1  90
ATOM     90  C16 non d ame     -12.227  14.670  70.752  0.00  0.00    -0.035 C 
ATOM     91  H21 non d ame     -11.247  14.618  71.228  0.00  0.00     0.037 H 
ATOM     92  H22 non d ame     -12.551  15.594  70.273  0.00  0.00     0.037 H 
BRANCH  90  93
ATOM     93  C17 non d ame     -13.275  14.360  71.868  0.00  0.00    -0.059 C 
ATOM     94  H23 non d ame     -13.418  13.280  71.896  0.00  0.00     0.038 H 
BRANCH  93  95
ATOM     95  C18 non d ame     -12.784  14.813  73.280  0.00  0.00    -0.073 C 
ATOM     96  H24 non d ame     -13.493  15.527  73.699  0.00  0.00     0.028 H 
ATOM     97  H25 non d ame     -12.713  13.945  73.936  0.00  0.00     0.028 H 
ATOM     98  H26 non d ame     -11.805  15.283  73.191  0.00  0.00     0.028 H 
ENDBRANCH  93  95
BRANCH  93  99
ATOM     99  C19 non d ame     -14.630  14.989  71.535  0.00  0.00    -0.073 C 
ATOM    100  H27 non d ame     -15.275  14.241  71.073  0.00  0.00     0.028 H 
ATOM    101  H28 non d ame     -15.096  15.355  72.450  0.00  0.00     0.028 H 
ATOM    102  H29 non d ame     -14.486  15.820  70.844  0.00  0.00     0.028 H 
ENDBRANCH  93  99
ENDBRANCH  90  93
ENDBRANCH   1  90
TORSDOF 26
ENDMDL
MODEL 7
REMARK VINA RESULT:      -6.3      2.410      8.060
REMARK  26 active torsions:
REMARK  status: ('A' for Active; 'I' for Inactive)
REMARK    1  A    between atoms: C2_2  and  C3_3 
REMARK    2  A    between atoms: C4_6  and  C5_7 
REMARK       I    between atoms: C5_7  and  N2_9 
REMARK    3  A    between atoms: N2_9  and  C6_10 
REMARK    4  A    between atoms: C6_10  and  C7_11 
REMARK    5  A    between atoms: C6_10  and  C8_13 
REMARK       I    between atoms: C7_11  and  N3_14 
REMARK    6  A    between atoms: N3_14  and  C9_15 
REMARK    7  A    between atoms: C9_15  and  C10_16 
REMARK    8  A    between atoms: C9_15  and  C11_18 
REMARK       I    between atoms: C10_16  and  N4_21 
REMARK    9  A    between atoms: C11_18  and  C12_19 
REMARK   10  A    between atoms: C11_18  and  C13_20 
REMARK   11  A    between atoms: N4_21  and  C14_22 
REMARK   12  A    between atoms: C14_22  and  C15_23 
REMARK   13  A    between atoms: C14_22  and  C16_25 
REMARK       I    between atoms: C15_23  and  N6_40 
REMARK   14  A    between atoms: C16_25  and  C17_26 
REMARK   15  A    between atoms: C17_26  and  C18_27 
REMARK   16  A    between atoms: C17_26  and  C19_28 
REMARK   17  A    between atoms: C20_29  and  C21_30 
REMARK   18  A    between atoms: C20_29  and  C24_33 
REMARK   19  A    between atoms: C20_29  and  N6_40 
REMARK   20  A    between atoms: C21_30  and  C22_31 
REMARK   21  A    between atoms: C22_31  and  C23_32 
REMARK   22  A    between atoms: C23_32  and  O8_43 
REMARK   23  A    between atoms: C24_33  and  C25_34 
REMARK   24  A    between atoms: C28_38  and  O6_39 
REMARK   25  A    between atoms: C29_42  and  O8_43 
REMARK   26  A    between atoms: C29_42  and  C35_49 
ROOT
ATOM      1  C14 non d ame      -6.503  16.177  67.878  0.00  0.00     0.089 C 
ATOM      2  H20 non d ame      -5.928  16.752  67.151  0.00  0.00     0.087 H 
ENDROOT
BRANCH   1   3
ATOM      3  N4  non d ame      -7.911  16.337  67.546  0.00  0.00    -0.346 N 
ATOM      4  C10 non d ame      -8.325  17.180  66.366  0.00  0.00     0.241 C 
ATOM      5  O4  non d ame      -7.507  17.724  65.700  0.00  0.00    -0.271 OA
ATOM      6  H19 non d ame      -8.592  15.868  68.126  0.00  0.00     0.163 HD
BRANCH   4   7
ATOM      7  C9  non d ame      -9.786  17.329  66.034  0.00  0.00     0.092 C 
ATOM      8  H11 non d ame      -9.886  17.864  65.089  0.00  0.00     0.088 H 
BRANCH   7   9
ATOM      9  N3  non d ame     -10.383  16.003  65.847  0.00  0.00    -0.346 N 
ATOM     10  C7  non d ame     -11.247  15.755  64.718  0.00  0.00     0.240 C 
ATOM     11  O3  non d ame     -11.474  16.611  63.953  0.00  0.00    -0.271 OA
ATOM     12  H10 non d ame     -10.198  15.256  66.500  0.00  0.00     0.163 HD
BRANCH  10  13
ATOM     13  C6  non d ame     -11.882  14.343  64.526  0.00  0.00     0.086 C 
ATOM     14  H6  non d ame     -12.552  14.295  63.668  0.00  0.00     0.086 H 
BRANCH  13  15
ATOM     15  N2  non d ame     -10.822  13.379  64.279  0.00  0.00    -0.343 N 
ATOM     16  C5  non d ame     -11.138  12.114  63.613  0.00  0.00     0.273 C 
ATOM     17  O2  non d ame     -12.248  11.880  63.282  0.00  0.00    -0.266 OA
ATOM     18  H5  non d ame      -9.876  13.587  64.568  0.00  0.00     0.163 HD
BRANCH  16  19
ATOM     19  C4  non d ame     -10.027  11.087  63.344  0.00  0.00     0.154 A 
ATOM     20  C1  non d ame      -9.615  10.015  64.199  0.00  0.00    -0.017 A 
ATOM     21  C2  non d ame      -8.570   9.373  63.498  0.00  0.00     0.077 A 
ATOM     22  H1  non d ame     -10.014   9.745  65.177  0.00  0.00     0.091 H 
ATOM     23  O1  non d ame      -8.410  10.008  62.374  0.00  0.00    -0.218 OA
ATOM     24  N1  non d ame      -9.248  11.012  62.261  0.00  0.00    -0.123 NA
BRANCH  21  25
ATOM     25  C3  non d ame      -7.779   8.160  63.971  0.00  0.00    -0.029 C 
ATOM     26  H2  non d ame      -7.975   7.317  63.309  0.00  0.00     0.036 H 
ATOM     27  H3  non d ame      -6.715   8.393  63.958  0.00  0.00     0.036 H 
ATOM     28  H4  non d ame      -8.082   7.902  64.987  0.00  0.00     0.036 H 
ENDBRANCH  21  25
ENDBRANCH  16  19
ENDBRANCH  13  15
BRANCH  13  29
ATOM     29  C8  non d ame     -12.649  13.960  65.766  0.00  0.00    -0.049 C 
ATOM     30  H7  non d ame     -12.218  14.465  66.631  0.00  0.00     0.030 H 
ATOM     31  H8  non d ame     -13.692  14.258  65.655  0.00  0.00     0.030 H 
ATOM     32  H9  non d ame     -12.592  12.882  65.910  0.00  0.00     0.030 H 
ENDBRANCH  13  29
ENDBRANCH  10  13
ENDBRANCH   7   9
BRANCH   7  33
ATOM     33  C11 non d ame     -10.512  18.061  67.201  0.00  0.00    -0.033 C 
ATOM     34  H12 non d ame     -11.506  18.336  66.849  0.00  0.00     0.042 H 
BRANCH  33  35
ATOM     35  C12 non d ame     -10.694  17.123  68.434  0.00  0.00    -0.071 C 
ATOM     36  H13 non d ame     -11.754  17.042  68.676  0.00  0.00     0.028 H 
ATOM     37  H14 non d ame     -10.299  16.135  68.200  0.00  0.00     0.028 H 
ATOM     38  H15 non d ame     -10.157  17.536  69.288  0.00  0.00     0.028 H 
ENDBRANCH  33  35
BRANCH  33  39
ATOM     39  C13 non d ame      -9.758  19.372  67.593  0.00  0.00    -0.071 C 
ATOM     40  H16 non d ame     -10.481  20.137  67.876  0.00  0.00     0.028 H 
ATOM     41  H17 non d ame      -9.094  19.172  68.435  0.00  0.00     0.028 H 
ATOM     42  H18 non d ame      -9.172  19.722  66.743  0.00  0.00     0.028 H 
ENDBRANCH  33  39
ENDBRANCH   7  33
ENDBRANCH   4   7
ENDBRANCH   1   3
BRANCH   1  43
ATOM     43  C15 non d ame      -6.153  14.662  67.838  0.00  0.00     0.240 C 
ATOM     44  O5  non d ame      -5.137  14.303  67.336  0.00  0.00    -0.271 OA
ATOM     45  N6  non d ame      -7.081  13.659  68.434  0.00  0.00    -0.355 N 
ATOM     46  H46 non d ame      -7.944  13.952  68.867  0.00  0.00     0.162 HD
BRANCH  45  47
ATOM     47  C20 non d ame      -6.733  12.222  68.389  0.00  0.00     0.013 C 
ATOM     48  H30 non d ame      -5.872  12.106  67.732  0.00  0.00     0.072 H 
BRANCH  47  49
ATOM     49  C21 non d ame      -7.907  11.440  67.846  0.00  0.00    -0.038 C 
ATOM     50  H31 non d ame      -7.487  10.745  67.118  0.00  0.00     0.036 H 
ATOM     51  H32 non d ame      -8.438  11.061  68.719  0.00  0.00     0.036 H 
BRANCH  49  52
ATOM     52  C22 non d ame      -8.911  12.325  67.075  0.00  0.00     0.018 C 
ATOM     53  H33 non d ame      -8.352  13.211  66.772  0.00  0.00     0.048 H 
ATOM     54  H34 non d ame      -9.356  11.677  66.319  0.00  0.00     0.048 H 
BRANCH  52  55
ATOM     55  C23 non d ame     -10.090  12.840  67.946  0.00  0.00     0.259 C 
ATOM     56  O7  non d ame     -10.140  13.978  68.282  0.00  0.00    -0.265 OA
BRANCH  55  57
ATOM     57  O8  non d ame     -11.106  11.930  68.351  0.00  0.00    -0.317 OA
BRANCH  57  58
ATOM     58  C29 non d ame     -11.740  12.276  69.586  0.00  0.00     0.052 C 
ATOM     59  H47 non d ame     -11.046  12.944  70.096  0.00  0.00     0.082 H 
ATOM     60  H48 non d ame     -12.736  12.626  69.318  0.00  0.00     0.082 H 
BRANCH  58  61
ATOM     61  C35 non d ame     -11.884  10.981  70.429  0.00  0.00    -0.034 A 
ATOM     62  C30 non d ame     -10.969   9.945  70.276  0.00  0.00    -0.075 A 
ATOM     63  C31 non d ame     -11.099   8.781  71.033  0.00  0.00    -0.082 A 
ATOM     64  H49 non d ame     -10.151  10.043  69.563  0.00  0.00     0.084 H 
ATOM     65  C32 non d ame     -12.151   8.656  71.945  0.00  0.00    -0.083 A 
ATOM     66  H50 non d ame     -10.379   7.972  70.913  0.00  0.00     0.083 H 
ATOM     67  C33 non d ame     -13.063   9.692  72.092  0.00  0.00    -0.082 A 
ATOM     68  H51 non d ame     -12.260   7.750  72.542  0.00  0.00     0.083 H 
ATOM     69  C34 non d ame     -12.936  10.857  71.339  0.00  0.00    -0.075 A 
ATOM     70  H52 non d ame     -13.884   9.590  72.803  0.00  0.00     0.083 H 
ATOM     71  H53 non d ame     -13.656  11.667  71.460  0.00  0.00     0.084 H 
ENDBRANCH  58  61
ENDBRANCH  57  58
ENDBRANCH  55  57
ENDBRANCH  52  55
ENDBRANCH  49  52
ENDBRANCH  47  49
BRANCH  47  72
ATOM     72  C24 non d ame      -6.398  11.728  69.795  0.00  0.00    -0.039 C 
ATOM     73  H35 non d ame      -7.008  12.332  70.468  0.00  0.00     0.036 H 
ATOM     74  H36 non d ame      -6.531  10.647  69.762  0.00  0.00     0.036 H 
BRANCH  72  75
ATOM     75  C25 non d ame      -4.865  12.004  70.171  0.00  0.00    -0.001 C 
ATOM     76  C26 non d ame      -4.183  10.637  70.780  0.00  0.00    -0.035 C 
ATOM     77  C27 non d ame      -3.583  10.937  71.957  0.00  0.00     0.085 C 
ATOM     78  H38 non d ame      -4.959   9.927  71.063  0.00  0.00     0.036 H 
ATOM     79  H39 non d ame      -3.356  10.318  70.146  0.00  0.00     0.036 H 
ATOM     80  N5  non d ame      -4.071  12.305  72.366  0.00  0.00    -0.049 N 
ATOM     81  H40 non d ame      -3.954  10.199  72.669  0.00  0.00     0.075 H 
ATOM     82  H41 non d ame      -2.518  10.992  71.734  0.00  0.00     0.075 H 
ATOM     83  C28 non d ame      -4.762  12.941  71.053  0.00  0.00     0.193 C 
ATOM     84  H42 non d ame      -4.785  12.157  73.065  0.00  0.00     0.280 HD
ATOM     85  H43 non d ame      -3.249  12.847  72.591  0.00  0.00     0.280 HD
ATOM     86  H44 non d ame      -4.246  13.705  70.471  0.00  0.00     0.129 H 
ATOM     87  H37 non d ame      -4.329  12.512  69.369  0.00  0.00     0.046 H 
BRANCH  83  88
ATOM     88  O6  non d ame      -6.030  13.508  71.389  0.00  0.00    -0.369 OA
ATOM     89  H45 non d ame      -6.147  14.334  70.915  0.00  0.00     0.212 HD
ENDBRANCH  83  88
ENDBRANCH  72  75
ENDBRANCH  47  72
ENDBRANCH  45  47
ENDBRANCH   1  43
BRANCH   1  90
ATOM     90  C16 non d ame      -6.258  16.722  69.276  0.00  0.00    -0.035 C 
ATOM     91  H21 non d ame      -7.133  17.332  69.505  0.00  0.00     0.037 H 
ATOM     92  H22 non d ame      -6.026  15.851  69.888  0.00  0.00     0.037 H 
BRANCH  90  93
ATOM     93  C17 non d ame      -5.022  17.671  69.371  0.00  0.00    -0.059 C 
ATOM     94  H23 non d ame      -5.202  18.369  70.188  0.00  0.00     0.038 H 
BRANCH  93  95
ATOM     95  C18 non d ame      -3.705  16.893  69.691  0.00  0.00    -0.073 C 
ATOM     96  H24 non d ame      -3.933  16.042  70.332  0.00  0.00     0.028 H 
ATOM     97  H25 non d ame      -3.258  16.538  68.762  0.00  0.00     0.028 H 
ATOM     98  H26 non d ame      -3.006  17.556  70.200  0.00  0.00     0.028 H 
ENDBRANCH  93  95
BRANCH  93  99
ATOM     99  C19 non d ame      -4.868  18.499  68.092  0.00  0.00    -0.073 C 
ATOM    100  H27 non d ame      -3.895  18.992  68.093  0.00  0.00     0.028 H 
ATOM    101  H28 non d ame      -4.943  17.843  67.224  0.00  0.00     0.028 H 
ATOM    102  H29 non d ame      -5.656  19.250  68.049  0.00  0.00     0.028 H 
ENDBRANCH  93  99
ENDBRANCH  90  93
ENDBRANCH   1  90
TORSDOF 26
ENDMDL
MODEL 8
REMARK VINA RESULT:      -6.2      2.171      7.704
REMARK  26 active torsions:
REMARK  status: ('A' for Active; 'I' for Inactive)
REMARK    1  A    between atoms: C2_2  and  C3_3 
REMARK    2  A    between atoms: C4_6  and  C5_7 
REMARK       I    between atoms: C5_7  and  N2_9 
REMARK    3  A    between atoms: N2_9  and  C6_10 
REMARK    4  A    between atoms: C6_10  and  C7_11 
REMARK    5  A    between atoms: C6_10  and  C8_13 
REMARK       I    between atoms: C7_11  and  N3_14 
REMARK    6  A    between atoms: N3_14  and  C9_15 
REMARK    7  A    between atoms: C9_15  and  C10_16 
REMARK    8  A    between atoms: C9_15  and  C11_18 
REMARK       I    between atoms: C10_16  and  N4_21 
REMARK    9  A    between atoms: C11_18  and  C12_19 
REMARK   10  A    between atoms: C11_18  and  C13_20 
REMARK   11  A    between atoms: N4_21  and  C14_22 
REMARK   12  A    between atoms: C14_22  and  C15_23 
REMARK   13  A    between atoms: C14_22  and  C16_25 
REMARK       I    between atoms: C15_23  and  N6_40 
REMARK   14  A    between atoms: C16_25  and  C17_26 
REMARK   15  A    between atoms: C17_26  and  C18_27 
REMARK   16  A    between atoms: C17_26  and  C19_28 
REMARK   17  A    between atoms: C20_29  and  C21_30 
REMARK   18  A    between atoms: C20_29  and  C24_33 
REMARK   19  A    between atoms: C20_29  and  N6_40 
REMARK   20  A    between atoms: C21_30  and  C22_31 
REMARK   21  A    between atoms: C22_31  and  C23_32 
REMARK   22  A    between atoms: C23_32  and  O8_43 
REMARK   23  A    between atoms: C24_33  and  C25_34 
REMARK   24  A    between atoms: C28_38  and  O6_39 
REMARK   25  A    between atoms: C29_42  and  O8_43 
REMARK   26  A    between atoms: C29_42  and  C35_49 
ROOT
ATOM      1  C14 non d ame     -10.015  12.173  65.430  0.00  0.00     0.089 C 
ATOM      2  H20 non d ame      -9.886  12.644  64.455  0.00  0.00     0.087 H 
ENDROOT
BRANCH   1   3
ATOM      3  N4  non d ame      -9.205  10.964  65.443  0.00  0.00    -0.346 N 
ATOM      4  C10 non d ame      -9.095  10.108  64.207  0.00  0.00     0.241 C 
ATOM      5  O4  non d ame      -9.669  10.411  63.213  0.00  0.00    -0.271 OA
ATOM      6  H19 non d ame      -8.726  10.722  66.299  0.00  0.00     0.163 HD
BRANCH   4   7
ATOM      7  C9  non d ame      -8.247   8.863  64.237  0.00  0.00     0.092 C 
ATOM      8  H11 non d ame      -7.273   9.102  64.663  0.00  0.00     0.088 H 
BRANCH   7   9
ATOM      9  N3  non d ame      -8.872   7.867  65.113  0.00  0.00    -0.346 N 
ATOM     10  C7  non d ame      -8.291   7.576  66.401  0.00  0.00     0.240 C 
ATOM     11  O3  non d ame      -7.321   8.132  66.747  0.00  0.00    -0.271 OA
ATOM     12  H10 non d ame      -9.708   7.378  64.828  0.00  0.00     0.163 HD
BRANCH  10  13
ATOM     13  C6  non d ame      -8.958   6.513  67.328  0.00  0.00     0.086 C 
ATOM     14  H6  non d ame      -8.249   5.775  67.702  0.00  0.00     0.086 H 
BRANCH  13  15
ATOM     15  N2  non d ame      -9.512   7.184  68.492  0.00  0.00    -0.343 N 
ATOM     16  C5  non d ame     -10.362   8.362  68.309  0.00  0.00     0.273 C 
ATOM     17  O2  non d ame     -10.592   8.764  67.221  0.00  0.00    -0.266 OA
ATOM     18  H5  non d ame      -9.308   6.836  69.418  0.00  0.00     0.163 HD
BRANCH  16  19
ATOM     19  C4  non d ame     -10.956   9.081  69.531  0.00  0.00     0.154 A 
ATOM     20  C1  non d ame     -11.662  10.325  69.543  0.00  0.00    -0.017 A 
ATOM     21  C2  non d ame     -11.992  10.542  70.900  0.00  0.00     0.077 A 
ATOM     22  H1  non d ame     -11.898  10.972  68.698  0.00  0.00     0.091 H 
ATOM     23  O1  non d ame     -11.527   9.534  71.578  0.00  0.00    -0.218 OA
ATOM     24  N1  non d ame     -10.918   8.668  70.801  0.00  0.00    -0.123 NA
BRANCH  21  25
ATOM     25  C3  non d ame     -12.753  11.735  71.463  0.00  0.00    -0.029 C 
ATOM     26  H2  non d ame     -12.347  12.656  71.044  0.00  0.00     0.036 H 
ATOM     27  H3  non d ame     -13.808  11.650  71.200  0.00  0.00     0.036 H 
ATOM     28  H4  non d ame     -12.650  11.753  72.548  0.00  0.00     0.036 H 
ENDBRANCH  21  25
ENDBRANCH  16  19
ENDBRANCH  13  15
BRANCH  13  29
ATOM     29  C8  non d ame     -10.052   5.800  66.574  0.00  0.00    -0.049 C 
ATOM     30  H7  non d ame      -9.632   5.326  65.686  0.00  0.00     0.030 H 
ATOM     31  H8  non d ame     -10.499   5.040  67.215  0.00  0.00     0.030 H 
ATOM     32  H9  non d ame     -10.814   6.519  66.275  0.00  0.00     0.030 H 
ENDBRANCH  13  29
ENDBRANCH  10  13
ENDBRANCH   7   9
BRANCH   7  33
ATOM     33  C11 non d ame      -8.129   8.281  62.797  0.00  0.00    -0.033 C 
ATOM     34  H12 non d ame      -9.057   8.511  62.273  0.00  0.00     0.042 H 
BRANCH  33  35
ATOM     35  C12 non d ame      -6.964   8.954  62.007  0.00  0.00    -0.071 C 
ATOM     36  H13 non d ame      -6.842   9.983  62.345  0.00  0.00     0.028 H 
ATOM     37  H14 non d ame      -6.041   8.402  62.182  0.00  0.00     0.028 H 
ATOM     38  H15 non d ame      -7.196   8.946  60.942  0.00  0.00     0.028 H 
ENDBRANCH  33  35
BRANCH  33  39
ATOM     39  C13 non d ame      -7.967   6.728  62.833  0.00  0.00    -0.071 C 
ATOM     40  H16 non d ame      -8.733   6.297  63.478  0.00  0.00     0.028 H 
ATOM     41  H17 non d ame      -8.074   6.328  61.825  0.00  0.00     0.028 H 
ATOM     42  H18 non d ame      -6.981   6.475  63.222  0.00  0.00     0.028 H 
ENDBRANCH  33  39
ENDBRANCH   7  33
ENDBRANCH   4   7
ENDBRANCH   1   3
BRANCH   1  43
ATOM     43  C15 non d ame      -9.549  13.094  66.594  0.00  0.00     0.240 C 
ATOM     44  O5  non d ame      -9.853  12.832  67.713  0.00  0.00    -0.271 OA
ATOM     45  N6  non d ame      -8.717  14.299  66.314  0.00  0.00    -0.355 N 
ATOM     46  H46 non d ame      -8.449  14.529  65.368  0.00  0.00     0.162 HD
BRANCH  45  47
ATOM     47  C20 non d ame      -8.281  15.164  67.431  0.00  0.00     0.013 C 
ATOM     48  H30 non d ame      -8.860  14.890  68.313  0.00  0.00     0.072 H 
BRANCH  47  49
ATOM     49  C21 non d ame      -8.537  16.610  67.073  0.00  0.00    -0.038 C 
ATOM     50  H31 non d ame      -8.337  17.179  67.981  0.00  0.00     0.036 H 
ATOM     51  H32 non d ame      -7.952  16.798  66.172  0.00  0.00     0.036 H 
BRANCH  49  52
ATOM     52  C22 non d ame     -10.011  16.884  66.702  0.00  0.00     0.018 C 
ATOM     53  H33 non d ame      -9.983  17.653  65.929  0.00  0.00     0.048 H 
ATOM     54  H34 non d ame     -10.447  15.908  66.485  0.00  0.00     0.048 H 
BRANCH  52  55
ATOM     55  C23 non d ame     -10.850  17.478  67.868  0.00  0.00     0.259 C 
ATOM     56  O7  non d ame     -10.852  18.648  68.073  0.00  0.00    -0.265 OA
BRANCH  55  57
ATOM     57  O8  non d ame     -11.607  16.605  68.697  0.00  0.00    -0.317 OA
BRANCH  57  58
ATOM     58  C29 non d ame     -10.904  16.146  69.855  0.00  0.00     0.052 C 
ATOM     59  H47 non d ame     -10.436  15.206  69.562  0.00  0.00     0.082 H 
ATOM     60  H48 non d ame     -10.287  16.984  70.177  0.00  0.00     0.082 H 
BRANCH  58  61
ATOM     61  C35 non d ame     -11.949  15.851  70.964  0.00  0.00    -0.034 A 
ATOM     62  C30 non d ame     -11.609  16.018  72.303  0.00  0.00    -0.075 A 
ATOM     63  C31 non d ame     -12.548  15.752  73.299  0.00  0.00    -0.082 A 
ATOM     64  H49 non d ame     -10.609  16.357  72.571  0.00  0.00     0.084 H 
ATOM     65  C32 non d ame     -13.829  15.316  72.952  0.00  0.00    -0.083 A 
ATOM     66  H50 non d ame     -12.280  15.886  74.347  0.00  0.00     0.083 H 
ATOM     67  C33 non d ame     -14.162  15.148  71.615  0.00  0.00    -0.082 A 
ATOM     68  H51 non d ame     -14.569  15.107  73.725  0.00  0.00     0.083 H 
ATOM     69  C34 non d ame     -13.228  15.414  70.616  0.00  0.00    -0.075 A 
ATOM     70  H52 non d ame     -15.162  14.805  71.348  0.00  0.00     0.083 H 
ATOM     71  H53 non d ame     -13.497  15.280  69.568  0.00  0.00     0.084 H 
ENDBRANCH  58  61
ENDBRANCH  57  58
ENDBRANCH  55  57
ENDBRANCH  52  55
ENDBRANCH  49  52
ENDBRANCH  47  49
BRANCH  47  72
ATOM     72  C24 non d ame      -6.790  14.959  67.691  0.00  0.00    -0.039 C 
ATOM     73  H35 non d ame      -6.391  14.533  66.770  0.00  0.00     0.036 H 
ATOM     74  H36 non d ame      -6.423  15.921  68.050  0.00  0.00     0.036 H 
BRANCH  72  75
ATOM     75  C25 non d ame      -6.533  13.890  68.857  0.00  0.00    -0.001 C 
ATOM     76  C26 non d ame      -5.438  14.484  69.930  0.00  0.00    -0.035 C 
ATOM     77  C27 non d ame      -4.461  13.565  70.111  0.00  0.00     0.085 C 
ATOM     78  H38 non d ame      -4.912  15.334  69.496  0.00  0.00     0.036 H 
ATOM     79  H39 non d ame      -5.892  14.571  70.918  0.00  0.00     0.036 H 
ATOM     80  N5  non d ame      -4.614  12.537  69.016  0.00  0.00    -0.049 N 
ATOM     81  H40 non d ame      -3.523  14.103  69.965  0.00  0.00     0.075 H 
ATOM     82  H41 non d ame      -4.676  13.096  71.071  0.00  0.00     0.075 H 
ATOM     83  C28 non d ame      -6.078  12.780  68.380  0.00  0.00     0.193 C 
ATOM     84  H42 non d ame      -3.919  12.757  68.317  0.00  0.00     0.280 HD
ATOM     85  H43 non d ame      -4.606  11.633  69.468  0.00  0.00     0.280 HD
ATOM     86  H44 non d ame      -6.903  12.108  68.618  0.00  0.00     0.129 H 
ATOM     87  H37 non d ame      -7.463  13.493  69.265  0.00  0.00     0.046 H 
BRANCH  83  88
ATOM     88  O6  non d ame      -5.999  12.797  66.954  0.00  0.00    -0.369 OA
ATOM     89  H45 non d ame      -6.823  13.130  66.592  0.00  0.00     0.212 HD
ENDBRANCH  83  88
ENDBRANCH  72  75
ENDBRANCH  47  72
ENDBRANCH  45  47
ENDBRANCH   1  43
BRANCH   1  90
ATOM     90  C16 non d ame     -11.474  11.795  65.630  0.00  0.00    -0.035 C 
ATOM     91  H21 non d ame     -11.549  10.753  65.316  0.00  0.00     0.037 H 
ATOM     92  H22 non d ame     -11.706  12.071  66.659  0.00  0.00     0.037 H 
BRANCH  90  93
ATOM     93  C17 non d ame     -12.460  12.600  64.725  0.00  0.00    -0.059 C 
ATOM     94  H23 non d ame     -13.439  12.583  65.204  0.00  0.00     0.038 H 
BRANCH  93  95
ATOM     95  C18 non d ame     -12.031  14.095  64.571  0.00  0.00    -0.073 C 
ATOM     96  H24 non d ame     -12.277  14.639  65.483  0.00  0.00     0.028 H 
ATOM     97  H25 non d ame     -10.957  14.148  64.394  0.00  0.00     0.028 H 
ATOM     98  H26 non d ame     -12.561  14.539  63.728  0.00  0.00     0.028 H 
ENDBRANCH  93  95
BRANCH  93  99
ATOM     99  C19 non d ame     -12.613  11.934  63.355  0.00  0.00    -0.073 C 
ATOM    100  H27 non d ame     -12.210  12.591  62.584  0.00  0.00     0.028 H 
ATOM    101  H28 non d ame     -12.069  10.989  63.349  0.00  0.00     0.028 H 
ATOM    102  H29 non d ame     -13.668  11.746  63.158  0.00  0.00     0.028 H 
ENDBRANCH  93  99
ENDBRANCH  90  93
ENDBRANCH   1  90
TORSDOF 26
ENDMDL
MODEL 9
REMARK VINA RESULT:      -6.2      1.492      2.012
REMARK  26 active torsions:
REMARK  status: ('A' for Active; 'I' for Inactive)
REMARK    1  A    between atoms: C2_2  and  C3_3 
REMARK    2  A    between atoms: C4_6  and  C5_7 
REMARK       I    between atoms: C5_7  and  N2_9 
REMARK    3  A    between atoms: N2_9  and  C6_10 
REMARK    4  A    between atoms: C6_10  and  C7_11 
REMARK    5  A    between atoms: C6_10  and  C8_13 
REMARK       I    between atoms: C7_11  and  N3_14 
REMARK    6  A    between atoms: N3_14  and  C9_15 
REMARK    7  A    between atoms: C9_15  and  C10_16 
REMARK    8  A    between atoms: C9_15  and  C11_18 
REMARK       I    between atoms: C10_16  and  N4_21 
REMARK    9  A    between atoms: C11_18  and  C12_19 
REMARK   10  A    between atoms: C11_18  and  C13_20 
REMARK   11  A    between atoms: N4_21  and  C14_22 
REMARK   12  A    between atoms: C14_22  and  C15_23 
REMARK   13  A    between atoms: C14_22  and  C16_25 
REMARK       I    between atoms: C15_23  and  N6_40 
REMARK   14  A    between atoms: C16_25  and  C17_26 
REMARK   15  A    between atoms: C17_26  and  C18_27 
REMARK   16  A    between atoms: C17_26  and  C19_28 
REMARK   17  A    between atoms: C20_29  and  C21_30 
REMARK   18  A    between atoms: C20_29  and  C24_33 
REMARK   19  A    between atoms: C20_29  and  N6_40 
REMARK   20  A    between atoms: C21_30  and  C22_31 
REMARK   21  A    between atoms: C22_31  and  C23_32 
REMARK   22  A    between atoms: C23_32  and  O8_43 
REMARK   23  A    between atoms: C24_33  and  C25_34 
REMARK   24  A    between atoms: C28_38  and  O6_39 
REMARK   25  A    between atoms: C29_42  and  O8_43 
REMARK   26  A    between atoms: C29_42  and  C35_49 
ROOT
ATOM      1  C14 non d ame     -11.933  14.131  69.729  0.00  0.00     0.089 C 
ATOM      2  H20 non d ame     -12.901  13.652  69.579  0.00  0.00     0.087 H 
ENDROOT
BRANCH   1   3
ATOM      3  N4  non d ame     -10.907  13.118  69.531  0.00  0.00    -0.346 N 
ATOM      4  C10 non d ame     -11.245  11.814  68.853  0.00  0.00     0.241 C 
ATOM      5  O4  non d ame     -12.351  11.602  68.478  0.00  0.00    -0.271 OA
ATOM      6  H19 non d ame      -9.973  13.317  69.860  0.00  0.00     0.163 HD
BRANCH   4   7
ATOM      7  C9  non d ame     -10.169  10.779  68.651  0.00  0.00     0.092 C 
ATOM      8  H11 non d ame     -10.239  10.382  67.639  0.00  0.00     0.088 H 
BRANCH   7   9
ATOM      9  N3  non d ame      -8.853  11.410  68.780  0.00  0.00    -0.346 N 
ATOM     10  C7  non d ame      -7.783  11.033  67.889  0.00  0.00     0.240 C 
ATOM     11  O3  non d ame      -7.964  10.222  67.064  0.00  0.00    -0.271 OA
ATOM     12  H10 non d ame      -8.681  12.110  69.487  0.00  0.00     0.163 HD
BRANCH  10  13
ATOM     13  C6  non d ame      -6.383  11.706  68.032  0.00  0.00     0.086 C 
ATOM     14  H6  non d ame      -5.862  11.804  67.079  0.00  0.00     0.086 H 
BRANCH  13  15
ATOM     15  N2  non d ame      -6.558  13.053  68.550  0.00  0.00    -0.343 N 
ATOM     16  C5  non d ame      -5.649  14.117  68.117  0.00  0.00     0.273 C 
ATOM     17  O2  non d ame      -4.778  13.878  67.354  0.00  0.00    -0.266 OA
ATOM     18  H5  non d ame      -7.303  13.248  69.204  0.00  0.00     0.163 HD
BRANCH  16  19
ATOM     19  C4  non d ame      -5.824  15.545  68.655  0.00  0.00     0.154 A 
ATOM     20  C1  non d ame      -4.833  16.576  68.708  0.00  0.00    -0.017 A 
ATOM     21  C2  non d ame      -5.493  17.686  69.283  0.00  0.00     0.077 A 
ATOM     22  H1  non d ame      -3.795  16.528  68.380  0.00  0.00     0.091 H 
ATOM     23  O1  non d ame      -6.719  17.323  69.526  0.00  0.00    -0.218 OA
ATOM     24  N1  non d ame      -6.936  16.079  69.169  0.00  0.00    -0.123 NA
BRANCH  21  25
ATOM     25  C3  non d ame      -4.882  19.052  69.564  0.00  0.00    -0.029 C 
ATOM     26  H2  non d ame      -5.628  19.827  69.389  0.00  0.00     0.036 H 
ATOM     27  H3  non d ame      -4.550  19.095  70.601  0.00  0.00     0.036 H 
ATOM     28  H4  non d ame      -4.029  19.212  68.903  0.00  0.00     0.036 H 
ENDBRANCH  21  25
ENDBRANCH  16  19
ENDBRANCH  13  15
BRANCH  13  29
ATOM     29  C8  non d ame      -5.527  10.898  68.974  0.00  0.00    -0.049 C 
ATOM     30  H7  non d ame      -4.536  10.764  68.541  0.00  0.00     0.030 H 
ATOM     31  H8  non d ame      -5.440  11.422  69.926  0.00  0.00     0.030 H 
ATOM     32  H9  non d ame      -5.987   9.923  69.136  0.00  0.00     0.030 H 
ENDBRANCH  13  29
ENDBRANCH  10  13
ENDBRANCH   7   9
BRANCH   7  33
ATOM     33  C11 non d ame     -10.314   9.664  69.729  0.00  0.00    -0.033 C 
ATOM     34  H12 non d ame     -10.629   8.754  69.219  0.00  0.00     0.042 H 
BRANCH  33  35
ATOM     35  C12 non d ame      -8.949   9.365  70.423  0.00  0.00    -0.071 C 
ATOM     36  H13 non d ame      -9.048   9.514  71.499  0.00  0.00     0.028 H 
ATOM     37  H14 non d ame      -8.660   8.332  70.226  0.00  0.00     0.028 H 
ATOM     38  H15 non d ame      -8.187  10.037  70.031  0.00  0.00     0.028 H 
ENDBRANCH  33  35
BRANCH  33  39
ATOM     39  C13 non d ame     -11.413  10.037  70.775  0.00  0.00    -0.071 C 
ATOM     40  H16 non d ame     -11.959  10.915  70.432  0.00  0.00     0.028 H 
ATOM     41  H17 non d ame     -12.104   9.202  70.891  0.00  0.00     0.028 H 
ATOM     42  H18 non d ame     -10.942  10.254  71.734  0.00  0.00     0.028 H 
ENDBRANCH  33  39
ENDBRANCH   7  33
ENDBRANCH   4   7
ENDBRANCH   1   3
BRANCH   1  43
ATOM     43  C15 non d ame     -11.687  15.288  68.718  0.00  0.00     0.240 C 
ATOM     44  O5  non d ame     -12.086  16.381  68.963  0.00  0.00    -0.271 OA
ATOM     45  N6  non d ame     -10.947  15.036  67.449  0.00  0.00    -0.355 N 
ATOM     46  H46 non d ame     -10.599  14.113  67.233  0.00  0.00     0.162 HD
BRANCH  45  47
ATOM     47  C20 non d ame     -10.720  16.147  66.500  0.00  0.00     0.013 C 
ATOM     48  H30 non d ame     -11.517  16.877  66.642  0.00  0.00     0.072 H 
BRANCH  47  49
ATOM     49  C21 non d ame     -10.757  15.611  65.086  0.00  0.00    -0.038 C 
ATOM     50  H31 non d ame     -11.386  16.303  64.525  0.00  0.00     0.036 H 
ATOM     51  H32 non d ame      -9.715  15.467  64.799  0.00  0.00     0.036 H 
BRANCH  49  52
ATOM     52  C22 non d ame     -11.434  14.227  64.987  0.00  0.00     0.018 C 
ATOM     53  H33 non d ame     -11.953  14.084  65.935  0.00  0.00     0.048 H 
ATOM     54  H34 non d ame     -11.997  14.240  64.054  0.00  0.00     0.048 H 
BRANCH  52  55
ATOM     55  C23 non d ame     -10.430  13.047  64.866  0.00  0.00     0.259 C 
ATOM     56  O7  non d ame      -9.766  12.722  65.796  0.00  0.00    -0.265 OA
BRANCH  55  57
ATOM     57  O8  non d ame     -10.304  12.364  63.624  0.00  0.00    -0.317 OA
BRANCH  57  58
ATOM     58  C29 non d ame     -10.474  10.947  63.719  0.00  0.00     0.052 C 
ATOM     59  H47 non d ame     -10.570  10.732  64.783  0.00  0.00     0.082 H 
ATOM     60  H48 non d ame     -11.288  10.701  63.038  0.00  0.00     0.082 H 
BRANCH  58  61
ATOM     61  C35 non d ame      -9.177  10.274  63.196  0.00  0.00    -0.034 A 
ATOM     62  C30 non d ame      -8.711   9.105  63.790  0.00  0.00    -0.075 A 
ATOM     63  C31 non d ame      -7.545   8.500  63.321  0.00  0.00    -0.082 A 
ATOM     64  H49 non d ame      -9.258   8.663  64.623  0.00  0.00     0.084 H 
ATOM     65  C32 non d ame      -6.844   9.070  62.255  0.00  0.00    -0.083 A 
ATOM     66  H50 non d ame      -7.184   7.583  63.787  0.00  0.00     0.083 H 
ATOM     67  C33 non d ame      -7.311  10.238  61.668  0.00  0.00    -0.082 A 
ATOM     68  H51 non d ame      -5.932   8.603  61.882  0.00  0.00     0.083 H 
ATOM     69  C34 non d ame      -8.476  10.845  62.132  0.00  0.00    -0.075 A 
ATOM     70  H52 non d ame      -6.760  10.681  60.838  0.00  0.00     0.083 H 
ATOM     71  H53 non d ame      -8.837  11.761  61.665  0.00  0.00     0.084 H 
ENDBRANCH  58  61
ENDBRANCH  57  58
ENDBRANCH  55  57
ENDBRANCH  52  55
ENDBRANCH  49  52
ENDBRANCH  47  49
BRANCH  47  72
ATOM     72  C24 non d ame      -9.360  16.786  66.768  0.00  0.00    -0.039 C 
ATOM     73  H35 non d ame      -9.051  16.413  67.745  0.00  0.00     0.036 H 
ATOM     74  H36 non d ame      -8.757  16.567  65.886  0.00  0.00     0.036 H 
BRANCH  72  75
ATOM     75  C25 non d ame      -9.466  18.381  66.883  0.00  0.00    -0.001 C 
ATOM     76  C26 non d ame      -8.149  19.081  66.190  0.00  0.00    -0.035 C 
ATOM     77  C27 non d ame      -7.610  19.960  67.069  0.00  0.00     0.085 C 
ATOM     78  H38 non d ame      -7.361  18.342  66.054  0.00  0.00     0.036 H 
ATOM     79  H39 non d ame      -8.457  19.711  65.355  0.00  0.00     0.036 H 
ATOM     80  N5  non d ame      -8.242  19.685  68.412  0.00  0.00    -0.049 N 
ATOM     81  H40 non d ame      -6.550  19.711  67.117  0.00  0.00     0.075 H 
ATOM     82  H41 non d ame      -7.924  20.945  66.724  0.00  0.00     0.075 H 
ATOM     83  C28 non d ame      -9.529  18.757  68.116  0.00  0.00     0.193 C 
ATOM     84  H42 non d ame      -7.570  19.146  68.939  0.00  0.00     0.280 HD
ATOM     85  H43 non d ame      -8.562  20.576  68.765  0.00  0.00     0.280 HD
ATOM     86  H44 non d ame     -10.534  19.179  68.144  0.00  0.00     0.129 H 
ATOM     87  H37 non d ame     -10.444  18.752  66.577  0.00  0.00     0.046 H 
BRANCH  83  88
ATOM     88  O6  non d ame      -9.555  17.649  69.018  0.00  0.00    -0.369 OA
ATOM     89  H45 non d ame      -8.664  17.309  69.133  0.00  0.00     0.212 HD
ENDBRANCH  83  88
ENDBRANCH  72  75
ENDBRANCH  47  72
ENDBRANCH  45  47
ENDBRANCH   1  43
BRANCH   1  90
ATOM     90  C16 non d ame     -11.836  14.664  71.149  0.00  0.00    -0.035 C 
ATOM     91  H21 non d ame     -11.080  14.049  71.638  0.00  0.00     0.037 H 
ATOM     92  H22 non d ame     -11.681  15.738  71.045  0.00  0.00     0.037 H 
BRANCH  90  93
ATOM     93  C17 non d ame     -13.150  14.487  71.975  0.00  0.00    -0.059 C 
ATOM     94  H23 non d ame     -13.962  14.940  71.407  0.00  0.00     0.038 H 
BRANCH  93  95
ATOM     95  C18 non d ame     -13.507  12.982  72.199  0.00  0.00    -0.073 C 
ATOM     96  H24 non d ame     -12.643  12.364  71.955  0.00  0.00     0.028 H 
ATOM     97  H25 non d ame     -13.784  12.826  73.242  0.00  0.00     0.028 H 
ATOM     98  H26 non d ame     -14.344  12.708  71.556  0.00  0.00     0.028 H 
ENDBRANCH  93  95
BRANCH  93  99
ATOM     99  C19 non d ame     -13.060  15.230  73.311  0.00  0.00    -0.073 C 
ATOM    100  H27 non d ame     -13.955  15.027  73.901  0.00  0.00     0.028 H 
ATOM    101  H28 non d ame     -12.180  14.890  73.857  0.00  0.00     0.028 H 
ATOM    102  H29 non d ame     -12.982  16.301  73.126  0.00  0.00     0.028 H 
ENDBRANCH  93  99
ENDBRANCH  90  93
ENDBRANCH   1  90
TORSDOF 26
ENDMDL
MODEL 10
REMARK VINA RESULT:      -6.1      3.202      7.868
REMARK  26 active torsions:
REMARK  status: ('A' for Active; 'I' for Inactive)
REMARK    1  A    between atoms: C2_2  and  C3_3 
REMARK    2  A    between atoms: C4_6  and  C5_7 
REMARK       I    between atoms: C5_7  and  N2_9 
REMARK    3  A    between atoms: N2_9  and  C6_10 
REMARK    4  A    between atoms: C6_10  and  C7_11 
REMARK    5  A    between atoms: C6_10  and  C8_13 
REMARK       I    between atoms: C7_11  and  N3_14 
REMARK    6  A    between atoms: N3_14  and  C9_15 
REMARK    7  A    between atoms: C9_15  and  C10_16 
REMARK    8  A    between atoms: C9_15  and  C11_18 
REMARK       I    between atoms: C10_16  and  N4_21 
REMARK    9  A    between atoms: C11_18  and  C12_19 
REMARK   10  A    between atoms: C11_18  and  C13_20 
REMARK   11  A    between atoms: N4_21  and  C14_22 
REMARK   12  A    between atoms: C14_22  and  C15_23 
REMARK   13  A    between atoms: C14_22  and  C16_25 
REMARK       I    between atoms: C15_23  and  N6_40 
REMARK   14  A    between atoms: C16_25  and  C17_26 
REMARK   15  A    between atoms: C17_26  and  C18_27 
REMARK   16  A    between atoms: C17_26  and  C19_28 
REMARK   17  A    between atoms: C20_29  and  C21_30 
REMARK   18  A    between atoms: C20_29  and  C24_33 
REMARK   19  A    between atoms: C20_29  and  N6_40 
REMARK   20  A    between atoms: C21_30  and  C22_31 
REMARK   21  A    between atoms: C22_31  and  C23_32 
REMARK   22  A    between atoms: C23_32  and  O8_43 
REMARK   23  A    between atoms: C24_33  and  C25_34 
REMARK   24  A    between atoms: C28_38  and  O6_39 
REMARK   25  A    between atoms: C29_42  and  O8_43 
REMARK   26  A    between atoms: C29_42  and  C35_49 
ROOT
ATOM      1  C14 non d ame      -6.996   9.521  66.139  0.00  0.00     0.089 C 
ATOM      2  H20 non d ame      -6.826   9.373  65.072  0.00  0.00     0.087 H 
ENDROOT
BRANCH   1   3
ATOM      3  N4  non d ame      -8.183  10.350  66.283  0.00  0.00    -0.346 N 
ATOM      4  C10 non d ame      -9.301  10.261  65.275  0.00  0.00     0.241 C 
ATOM      5  O4  non d ame      -9.221   9.516  64.354  0.00  0.00    -0.271 OA
ATOM      6  H19 non d ame      -8.231  10.978  67.072  0.00  0.00     0.163 HD
BRANCH   4   7
ATOM      7  C9  non d ame     -10.526  11.122  65.444  0.00  0.00     0.092 C 
ATOM      8  H11 non d ame     -11.394  10.482  65.603  0.00  0.00     0.088 H 
BRANCH   7   9
ATOM      9  N3  non d ame     -10.376  11.956  66.639  0.00  0.00    -0.346 N 
ATOM     10  C7  non d ame     -11.198  11.708  67.799  0.00  0.00     0.240 C 
ATOM     11  O3  non d ame     -11.985  10.842  67.786  0.00  0.00    -0.271 OA
ATOM     12  H10 non d ame      -9.703  12.708  66.664  0.00  0.00     0.163 HD
BRANCH  10  13
ATOM     13  C6  non d ame     -11.036  12.602  69.067  0.00  0.00     0.086 C 
ATOM     14  H6  non d ame     -10.027  12.571  69.479  0.00  0.00     0.086 H 
BRANCH  13  15
ATOM     15  N2  non d ame     -11.294  13.986  68.705  0.00  0.00    -0.343 N 
ATOM     16  C5  non d ame     -10.195  14.820  68.215  0.00  0.00     0.273 C 
ATOM     17  O2  non d ame      -9.107  14.370  68.118  0.00  0.00    -0.266 OA
ATOM     18  H5  non d ame     -12.227  14.363  68.793  0.00  0.00     0.163 HD
BRANCH  16  19
ATOM     19  C4  non d ame     -10.454  16.284  67.827  0.00  0.00     0.154 A 
ATOM     20  C1  non d ame      -9.922  16.987  66.699  0.00  0.00    -0.017 A 
ATOM     21  C2  non d ame     -10.461  18.289  66.795  0.00  0.00     0.077 A 
ATOM     22  H1  non d ame      -9.249  16.610  65.929  0.00  0.00     0.091 H 
ATOM     23  O1  non d ame     -11.214  18.320  67.856  0.00  0.00    -0.218 OA
ATOM     24  N1  non d ame     -11.225  17.162  68.475  0.00  0.00    -0.123 NA
BRANCH  21  25
ATOM     25  C3  non d ame     -10.208  19.443  65.834  0.00  0.00    -0.029 C 
ATOM     26  H2  non d ame      -9.438  19.157  65.117  0.00  0.00     0.036 H 
ATOM     27  H3  non d ame     -11.129  19.681  65.302  0.00  0.00     0.036 H 
ATOM     28  H4  non d ame      -9.876  20.318  66.395  0.00  0.00     0.036 H 
ENDBRANCH  21  25
ENDBRANCH  16  19
ENDBRANCH  13  15
BRANCH  13  29
ATOM     29  C8  non d ame     -12.010  12.155  70.128  0.00  0.00    -0.049 C 
ATOM     30  H7  non d ame     -12.705  11.432  69.701  0.00  0.00     0.030 H 
ATOM     31  H8  non d ame     -11.464  11.693  70.951  0.00  0.00     0.030 H 
ATOM     32  H9  non d ame     -12.564  13.017  70.497  0.00  0.00     0.030 H 
ENDBRANCH  13  29
ENDBRANCH  10  13
ENDBRANCH   7   9
BRANCH   7  33
ATOM     33  C11 non d ame     -10.693  12.035  64.194  0.00  0.00    -0.033 C 
ATOM     34  H12 non d ame      -9.923  11.754  63.476  0.00  0.00     0.042 H 
BRANCH  33  35
ATOM     35  C12 non d ame     -12.077  11.812  63.508  0.00  0.00    -0.071 C 
ATOM     36  H13 non d ame     -11.925  11.431  62.498  0.00  0.00     0.028 H 
ATOM     37  H14 non d ame     -12.656  11.091  64.084  0.00  0.00     0.028 H 
ATOM     38  H15 non d ame     -12.616  12.758  63.463  0.00  0.00     0.028 H 
ENDBRANCH  33  35
BRANCH  33  39
ATOM     39  C13 non d ame     -10.481  13.538  64.567  0.00  0.00    -0.071 C 
ATOM     40  H16 non d ame     -11.425  13.965  64.904  0.00  0.00     0.028 H 
ATOM     41  H17 non d ame      -9.743  13.613  65.366  0.00  0.00     0.028 H 
ATOM     42  H18 non d ame     -10.127  14.082  63.692  0.00  0.00     0.028 H 
ENDBRANCH  33  39
ENDBRANCH   7  33
ENDBRANCH   4   7
ENDBRANCH   1   3
BRANCH   1  43
ATOM     43  C15 non d ame      -7.234   8.178  66.887  0.00  0.00     0.240 C 
ATOM     44  O5  non d ame      -6.665   7.961  67.907  0.00  0.00    -0.271 OA
ATOM     45  N6  non d ame      -8.180   7.167  66.335  0.00  0.00    -0.355 N 
ATOM     46  H46 non d ame      -8.673   7.342  65.472  0.00  0.00     0.162 HD
BRANCH  45  47
ATOM     47  C20 non d ame      -8.397   5.895  67.059  0.00  0.00     0.013 C 
ATOM     48  H30 non d ame      -7.643   5.823  67.843  0.00  0.00     0.072 H 
BRANCH  47  49
ATOM     49  C21 non d ame      -8.253   4.740  66.095  0.00  0.00    -0.038 C 
ATOM     50  H31 non d ame      -7.353   4.949  65.516  0.00  0.00     0.036 H 
ATOM     51  H32 non d ame      -8.312   3.838  66.705  0.00  0.00     0.036 H 
BRANCH  49  52
ATOM     52  C22 non d ame      -9.414   4.658  65.080  0.00  0.00     0.018 C 
ATOM     53  H33 non d ame      -9.706   3.607  65.050  0.00  0.00     0.048 H 
ATOM     54  H34 non d ame     -10.134   5.415  65.393  0.00  0.00     0.048 H 
BRANCH  52  55
ATOM     55  C23 non d ame      -9.005   5.030  63.628  0.00  0.00     0.259 C 
ATOM     56  O7  non d ame      -9.416   4.403  62.706  0.00  0.00    -0.265 OA
BRANCH  55  57
ATOM     57  O8  non d ame      -8.121   6.123  63.412  0.00  0.00    -0.317 OA
BRANCH  57  58
ATOM     58  C29 non d ame      -6.867   5.752  62.831  0.00  0.00     0.052 C 
ATOM     59  H47 non d ame      -6.769   4.680  63.001  0.00  0.00     0.082 H 
ATOM     60  H48 non d ame      -6.887   6.142  61.813  0.00  0.00     0.082 H 
BRANCH  58  61
ATOM     61  C35 non d ame      -5.742   6.480  63.614  0.00  0.00    -0.034 A 
ATOM     62  C30 non d ame      -5.334   7.752  63.226  0.00  0.00    -0.075 A 
ATOM     63  C31 non d ame      -4.323   8.405  63.929  0.00  0.00    -0.082 A 
ATOM     64  H49 non d ame      -5.806   8.236  62.371  0.00  0.00     0.084 H 
ATOM     65  C32 non d ame      -3.718   7.781  65.023  0.00  0.00    -0.083 A 
ATOM     66  H50 non d ame      -4.007   9.403  63.624  0.00  0.00     0.083 H 
ATOM     67  C33 non d ame      -4.126   6.510  65.404  0.00  0.00    -0.082 A 
ATOM     68  H51 non d ame      -2.927   8.285  65.578  0.00  0.00     0.083 H 
ATOM     69  C34 non d ame      -5.138   5.854  64.706  0.00  0.00    -0.075 A 
ATOM     70  H52 non d ame      -3.651   6.025  66.257  0.00  0.00     0.083 H 
ATOM     71  H53 non d ame      -5.454   4.856  65.012  0.00  0.00     0.084 H 
ENDBRANCH  58  61
ENDBRANCH  57  58
ENDBRANCH  55  57
ENDBRANCH  52  55
ENDBRANCH  49  52
ENDBRANCH  47  49
BRANCH  47  72
ATOM     72  C24 non d ame      -9.798   5.880  67.667  0.00  0.00    -0.039 C 
ATOM     73  H35 non d ame     -10.421   6.449  66.976  0.00  0.00     0.036 H 
ATOM     74  H36 non d ame     -10.019   4.830  67.861  0.00  0.00     0.036 H 
BRANCH  72  75
ATOM     75  C25 non d ame      -9.841   6.640  69.077  0.00  0.00    -0.001 C 
ATOM     76  C26 non d ame     -10.628   5.718  70.187  0.00  0.00    -0.035 C 
ATOM     77  C27 non d ame     -11.587   6.470  70.778  0.00  0.00     0.085 C 
ATOM     78  H38 non d ame     -11.193   4.932  69.687  0.00  0.00     0.036 H 
ATOM     79  H39 non d ame      -9.957   5.468  71.010  0.00  0.00     0.036 H 
ATOM     80  N5  non d ame     -11.744   7.720  69.946  0.00  0.00    -0.049 N 
ATOM     81  H40 non d ame     -12.503   5.881  70.710  0.00  0.00     0.075 H 
ATOM     82  H41 non d ame     -11.185   6.741  71.753  0.00  0.00     0.075 H 
ATOM     83  C28 non d ame     -10.452   7.774  68.979  0.00  0.00     0.193 C 
ATOM     84  H42 non d ame     -12.566   7.583  69.376  0.00  0.00     0.280 HD
ATOM     85  H43 non d ame     -11.697   8.499  70.587  0.00  0.00     0.280 HD
ATOM     86  H44 non d ame      -9.632   8.460  69.188  0.00  0.00     0.129 H 
ATOM     87  H37 non d ame      -8.866   7.036  69.362  0.00  0.00     0.046 H 
BRANCH  83  88
ATOM     88  O6  non d ame     -10.853   8.055  67.636  0.00  0.00    -0.369 OA
ATOM     89  H45 non d ame     -10.472   8.891  67.358  0.00  0.00     0.212 HD
ENDBRANCH  83  88
ENDBRANCH  72  75
ENDBRANCH  47  72
ENDBRANCH  45  47
ENDBRANCH   1  43
BRANCH   1  90
ATOM     90  C16 non d ame      -5.808  10.245  66.753  0.00  0.00    -0.035 C 
ATOM     91  H21 non d ame      -5.326   9.511  67.400  0.00  0.00     0.037 H 
ATOM     92  H22 non d ame      -5.262  10.670  65.911  0.00  0.00     0.037 H 
BRANCH  90  93
ATOM     93  C17 non d ame      -6.211  11.444  67.669  0.00  0.00    -0.059 C 
ATOM     94  H23 non d ame      -7.255  11.679  67.466  0.00  0.00     0.038 H 
BRANCH  93  95
ATOM     95  C18 non d ame      -6.088  11.094  69.187  0.00  0.00    -0.073 C 
ATOM     96  H24 non d ame      -7.039  11.286  69.682  0.00  0.00     0.028 H 
ATOM     97  H25 non d ame      -5.826  10.042  69.296  0.00  0.00     0.028 H 
ATOM     98  H26 non d ame      -5.311  11.711  69.639  0.00  0.00     0.028 H 
ENDBRANCH  93  95
BRANCH  93  99
ATOM     99  C19 non d ame      -5.390  12.691  67.329  0.00  0.00    -0.073 C 
ATOM    100  H27 non d ame      -5.977  13.584  67.549  0.00  0.00     0.028 H 
ATOM    101  H28 non d ame      -4.478  12.699  67.927  0.00  0.00     0.028 H 
ATOM    102  H29 non d ame      -5.130  12.678  66.271  0.00  0.00     0.028 H 
ENDBRANCH  93  99
ENDBRANCH  90  93
ENDBRANCH   1  90
TORSDOF 26
ENDMDL
MODEL 11
REMARK VINA RESULT:      -6.1      1.509      4.766
REMARK  26 active torsions:
REMARK  status: ('A' for Active; 'I' for Inactive)
REMARK    1  A    between atoms: C2_2  and  C3_3 
REMARK    2  A    between atoms: C4_6  and  C5_7 
REMARK       I    between atoms: C5_7  and  N2_9 
REMARK    3  A    between atoms: N2_9  and  C6_10 
REMARK    4  A    between atoms: C6_10  and  C7_11 
REMARK    5  A    between atoms: C6_10  and  C8_13 
REMARK       I    between atoms: C7_11  and  N3_14 
REMARK    6  A    between atoms: N3_14  and  C9_15 
REMARK    7  A    between atoms: C9_15  and  C10_16 
REMARK    8  A    between atoms: C9_15  and  C11_18 
REMARK       I    between atoms: C10_16  and  N4_21 
REMARK    9  A    between atoms: C11_18  and  C12_19 
REMARK   10  A    between atoms: C11_18  and  C13_20 
REMARK   11  A    between atoms: N4_21  and  C14_22 
REMARK   12  A    between atoms: C14_22  and  C15_23 
REMARK   13  A    between atoms: C14_22  and  C16_25 
REMARK       I    between atoms: C15_23  and  N6_40 
REMARK   14  A    between atoms: C16_25  and  C17_26 
REMARK   15  A    between atoms: C17_26  and  C18_27 
REMARK   16  A    between atoms: C17_26  and  C19_28 
REMARK   17  A    between atoms: C20_29  and  C21_30 
REMARK   18  A    between atoms: C20_29  and  C24_33 
REMARK   19  A    between atoms: C20_29  and  N6_40 
REMARK   20  A    between atoms: C21_30  and  C22_31 
REMARK   21  A    between atoms: C22_31  and  C23_32 
REMARK   22  A    between atoms: C23_32  and  O8_43 
REMARK   23  A    between atoms: C24_33  and  C25_34 
REMARK   24  A    between atoms: C28_38  and  O6_39 
REMARK   25  A    between atoms: C29_42  and  O8_43 
REMARK   26  A    between atoms: C29_42  and  C35_49 
ROOT
ATOM      1  C14 non d ame     -10.642   9.952  69.796  0.00  0.00     0.089 C 
ATOM      2  H20 non d ame     -10.662   8.966  69.331  0.00  0.00     0.087 H 
ENDROOT
BRANCH   1   3
ATOM      3  N4  non d ame      -9.247  10.326  69.971  0.00  0.00    -0.346 N 
ATOM      4  C10 non d ame      -8.253  10.102  68.859  0.00  0.00     0.241 C 
ATOM      5  O4  non d ame      -8.600   9.617  67.833  0.00  0.00    -0.271 OA
ATOM      6  H19 non d ame      -8.972  10.735  70.853  0.00  0.00     0.163 HD
BRANCH   4   7
ATOM      7  C9  non d ame      -6.814  10.500  69.056  0.00  0.00     0.092 C 
ATOM      8  H11 non d ame      -6.339  10.622  68.082  0.00  0.00     0.088 H 
BRANCH   7   9
ATOM      9  N3  non d ame      -6.754  11.799  69.733  0.00  0.00    -0.346 N 
ATOM     10  C7  non d ame      -5.981  12.874  69.162  0.00  0.00     0.240 C 
ATOM     11  O3  non d ame      -5.400  12.711  68.159  0.00  0.00    -0.271 OA
ATOM     12  H10 non d ame      -7.248  11.954  70.600  0.00  0.00     0.163 HD
BRANCH  10  13
ATOM     13  C6  non d ame      -5.918  14.253  69.889  0.00  0.00     0.086 C 
ATOM     14  H6  non d ame      -5.049  14.844  69.598  0.00  0.00     0.086 H 
BRANCH  13  15
ATOM     15  N2  non d ame      -7.091  15.031  69.526  0.00  0.00    -0.343 N 
ATOM     16  C5  non d ame      -6.921  16.387  68.998  0.00  0.00     0.273 C 
ATOM     17  O2  non d ame      -5.838  16.843  68.872  0.00  0.00    -0.266 OA
ATOM     18  H5  non d ame      -8.013  14.635  69.640  0.00  0.00     0.163 HD
BRANCH  16  19
ATOM     19  C4  non d ame      -8.152  17.220  68.608  0.00  0.00     0.154 A 
ATOM     20  C1  non d ame      -8.167  18.567  68.125  0.00  0.00    -0.017 A 
ATOM     21  C2  non d ame      -9.532  18.864  67.917  0.00  0.00     0.077 A 
ATOM     22  H1  non d ame      -7.317  19.228  67.952  0.00  0.00     0.091 H 
ATOM     23  O1  non d ame     -10.213  17.805  68.245  0.00  0.00    -0.218 OA
ATOM     24  N1  non d ame      -9.430  16.833  68.651  0.00  0.00    -0.123 NA
BRANCH  21  25
ATOM     25  C3  non d ame     -10.101  20.181  67.404  0.00  0.00    -0.029 C 
ATOM     26  H2  non d ame      -9.546  20.496  66.520  0.00  0.00     0.036 H 
ATOM     27  H3  non d ame     -11.151  20.046  67.145  0.00  0.00     0.036 H 
ATOM     28  H4  non d ame     -10.012  20.942  68.180  0.00  0.00     0.036 H 
ENDBRANCH  21  25
ENDBRANCH  16  19
ENDBRANCH  13  15
BRANCH  13  29
ATOM     29  C8  non d ame      -5.883  14.037  71.381  0.00  0.00    -0.049 C 
ATOM     30  H7  non d ame      -5.337  14.853  71.854  0.00  0.00     0.030 H 
ATOM     31  H8  non d ame      -6.902  14.009  71.768  0.00  0.00     0.030 H 
ATOM     32  H9  non d ame      -5.385  13.092  71.599  0.00  0.00     0.030 H 
ENDBRANCH  13  29
ENDBRANCH  10  13
ENDBRANCH   7   9
BRANCH   7  33
ATOM     33  C11 non d ame      -6.094   9.429  69.928  0.00  0.00    -0.033 C 
ATOM     34  H12 non d ame      -6.554   9.447  70.916  0.00  0.00     0.042 H 
BRANCH  33  35
ATOM     35  C12 non d ame      -6.291   7.995  69.344  0.00  0.00    -0.071 C 
ATOM     36  H13 non d ame      -6.920   8.048  68.455  0.00  0.00     0.028 H 
ATOM     37  H14 non d ame      -5.321   7.576  69.078  0.00  0.00     0.028 H 
ATOM     38  H15 non d ame      -6.769   7.362  70.091  0.00  0.00     0.028 H 
ENDBRANCH  33  35
BRANCH  33  39
ATOM     39  C13 non d ame      -4.578   9.770  70.094  0.00  0.00    -0.071 C 
ATOM     40  H16 non d ame      -4.462  10.843  70.246  0.00  0.00     0.028 H 
ATOM     41  H17 non d ame      -4.178   9.235  70.955  0.00  0.00     0.028 H 
ATOM     42  H18 non d ame      -4.038   9.469  69.196  0.00  0.00     0.028 H 
ENDBRANCH  33  39
ENDBRANCH   7  33
ENDBRANCH   4   7
ENDBRANCH   1   3
BRANCH   1  43
ATOM     43  C15 non d ame     -11.337  11.031  68.916  0.00  0.00     0.240 C 
ATOM     44  O5  non d ame     -12.064  10.697  68.037  0.00  0.00    -0.271 OA
ATOM     45  N6  non d ame     -11.104  12.480  69.176  0.00  0.00    -0.355 N 
ATOM     46  H46 non d ame     -10.493  12.775  69.923  0.00  0.00     0.162 HD
BRANCH  45  47
ATOM     47  C20 non d ame     -11.773  13.493  68.332  0.00  0.00     0.013 C 
ATOM     48  H30 non d ame     -12.589  13.002  67.802  0.00  0.00     0.072 H 
BRANCH  47  49
ATOM     49  C21 non d ame     -10.778  14.054  67.341  0.00  0.00    -0.038 C 
ATOM     50  H31 non d ame     -10.563  15.067  67.681  0.00  0.00     0.036 H 
ATOM     51  H32 non d ame      -9.976  13.317  67.280  0.00  0.00     0.036 H 
BRANCH  49  52
ATOM     52  C22 non d ame     -11.359  14.186  65.917  0.00  0.00     0.018 C 
ATOM     53  H33 non d ame     -12.297  14.730  66.029  0.00  0.00     0.048 H 
ATOM     54  H34 non d ame     -10.557  14.603  65.308  0.00  0.00     0.048 H 
BRANCH  52  55
ATOM     55  C23 non d ame     -11.730  12.825  65.263  0.00  0.00     0.259 C 
ATOM     56  O7  non d ame     -12.867  12.529  65.090  0.00  0.00    -0.265 OA
BRANCH  55  57
ATOM     57  O8  non d ame     -10.692  11.929  64.885  0.00  0.00    -0.317 OA
BRANCH  57  58
ATOM     58  C29 non d ame     -10.175  12.158  63.571  0.00  0.00     0.052 C 
ATOM     59  H47 non d ame     -11.040  12.152  62.908  0.00  0.00     0.082 H 
ATOM     60  H48 non d ame      -9.555  13.051  63.651  0.00  0.00     0.082 H 
BRANCH  58  61
ATOM     61  C35 non d ame      -9.262  10.959  63.200  0.00  0.00    -0.034 A 
ATOM     62  C30 non d ame      -9.250   9.819  63.998  0.00  0.00    -0.075 A 
ATOM     63  C31 non d ame      -8.431   8.742  63.665  0.00  0.00    -0.082 A 
ATOM     64  H49 non d ame      -9.882   9.771  64.885  0.00  0.00     0.084 H 
ATOM     65  C32 non d ame      -7.619   8.808  62.529  0.00  0.00    -0.083 A 
ATOM     66  H50 non d ame      -8.425   7.850  64.291  0.00  0.00     0.083 H 
ATOM     67  C33 non d ame      -7.633   9.948  61.737  0.00  0.00    -0.082 A 
ATOM     68  H51 non d ame      -6.976   7.970  62.260  0.00  0.00     0.083 H 
ATOM     69  C34 non d ame      -8.452  11.026  62.065  0.00  0.00    -0.075 A 
ATOM     70  H52 non d ame      -6.997   9.997  60.853  0.00  0.00     0.083 H 
ATOM     71  H53 non d ame      -8.457  11.918  61.438  0.00  0.00     0.084 H 
ENDBRANCH  58  61
ENDBRANCH  57  58
ENDBRANCH  55  57
ENDBRANCH  52  55
ENDBRANCH  49  52
ENDBRANCH  47  49
BRANCH  47  72
ATOM     72  C24 non d ame     -12.312  14.621  69.208  0.00  0.00    -0.039 C 
ATOM     73  H35 non d ame     -11.773  15.516  68.893  0.00  0.00     0.036 H 
ATOM     74  H36 non d ame     -13.396  14.575  69.106  0.00  0.00     0.036 H 
BRANCH  72  75
ATOM     75  C25 non d ame     -11.972  14.384  70.755  0.00  0.00    -0.001 C 
ATOM     76  C26 non d ame     -13.286  13.769  71.530  0.00  0.00    -0.035 C 
ATOM     77  C27 non d ame     -13.532  14.517  72.632  0.00  0.00     0.085 C 
ATOM     78  H38 non d ame     -14.178  13.911  70.921  0.00  0.00     0.036 H 
ATOM     79  H39 non d ame     -13.054  12.785  71.936  0.00  0.00     0.036 H 
ATOM     80  N5  non d ame     -12.709  15.776  72.505  0.00  0.00    -0.049 N 
ATOM     81  H40 non d ame     -14.590  14.776  72.579  0.00  0.00     0.075 H 
ATOM     82  H41 non d ame     -13.156  13.931  73.471  0.00  0.00     0.075 H 
ATOM     83  C28 non d ame     -11.635  15.488  71.334  0.00  0.00     0.193 C 
ATOM     84  H42 non d ame     -13.341  16.500  72.191  0.00  0.00     0.280 HD
ATOM     85  H43 non d ame     -12.212  15.883  73.377  0.00  0.00     0.280 HD
ATOM     86  H44 non d ame     -10.594  15.275  71.578  0.00  0.00     0.129 H 
ATOM     87  H37 non d ame     -11.025  13.863  70.895  0.00  0.00     0.046 H 
BRANCH  83  88
ATOM     88  O6  non d ame     -11.596  16.586  70.421  0.00  0.00    -0.369 OA
ATOM     89  H45 non d ame     -12.476  16.957  70.329  0.00  0.00     0.212 HD
ENDBRANCH  83  88
ENDBRANCH  72  75
ENDBRANCH  47  72
ENDBRANCH  45  47
ENDBRANCH   1  43
BRANCH   1  90
ATOM     90  C16 non d ame     -11.315   9.893  71.158  0.00  0.00    -0.035 C 
ATOM     91  H21 non d ame     -10.503   9.956  71.884  0.00  0.00     0.037 H 
ATOM     92  H22 non d ame     -12.085  10.664  71.134  0.00  0.00     0.037 H 
BRANCH  90  93
ATOM     93  C17 non d ame     -12.051   8.543  71.436  0.00  0.00    -0.059 C 
ATOM     94  H23 non d ame     -12.049   7.969  70.509  0.00  0.00     0.038 H 
BRANCH  93  95
ATOM     95  C18 non d ame     -11.326   7.690  72.526  0.00  0.00    -0.073 C 
ATOM     96  H24 non d ame     -11.659   8.006  73.514  0.00  0.00     0.028 H 
ATOM     97  H25 non d ame     -11.565   6.636  72.380  0.00  0.00     0.028 H 
ATOM     98  H26 non d ame     -10.248   7.833  72.441  0.00  0.00     0.028 H 
ENDBRANCH  93  95
BRANCH  93  99
ATOM     99  C19 non d ame     -13.513   8.786  71.818  0.00  0.00    -0.073 C 
ATOM    100  H27 non d ame     -13.915   7.897  72.304  0.00  0.00     0.028 H 
ATOM    101  H28 non d ame     -13.573   9.633  72.503  0.00  0.00     0.028 H 
ATOM    102  H29 non d ame     -14.092   9.004  70.921  0.00  0.00     0.028 H 
ENDBRANCH  93  99
ENDBRANCH  90  93
ENDBRANCH   1  90
TORSDOF 26
ENDMDL
MODEL 12
REMARK VINA RESULT:      -6.0      2.483      7.386
REMARK  26 active torsions:
REMARK  status: ('A' for Active; 'I' for Inactive)
REMARK    1  A    between atoms: C2_2  and  C3_3 
REMARK    2  A    between atoms: C4_6  and  C5_7 
REMARK       I    between atoms: C5_7  and  N2_9 
REMARK    3  A    between atoms: N2_9  and  C6_10 
REMARK    4  A    between atoms: C6_10  and  C7_11 
REMARK    5  A    between atoms: C6_10  and  C8_13 
REMARK       I    between atoms: C7_11  and  N3_14 
REMARK    6  A    between atoms: N3_14  and  C9_15 
REMARK    7  A    between atoms: C9_15  and  C10_16 
REMARK    8  A    between atoms: C9_15  and  C11_18 
REMARK       I    between atoms: C10_16  and  N4_21 
REMARK    9  A    between atoms: C11_18  and  C12_19 
REMARK   10  A    between atoms: C11_18  and  C13_20 
REMARK   11  A    between atoms: N4_21  and  C14_22 
REMARK   12  A    between atoms: C14_22  and  C15_23 
REMARK   13  A    between atoms: C14_22  and  C16_25 
REMARK       I    between atoms: C15_23  and  N6_40 
REMARK   14  A    between atoms: C16_25  and  C17_26 
REMARK   15  A    between atoms: C17_26  and  C18_27 
REMARK   16  A    between atoms: C17_26  and  C19_28 
REMARK   17  A    between atoms: C20_29  and  C21_30 
REMARK   18  A    between atoms: C20_29  and  C24_33 
REMARK   19  A    between atoms: C20_29  and  N6_40 
REMARK   20  A    between atoms: C21_30  and  C22_31 
REMARK   21  A    between atoms: C22_31  and  C23_32 
REMARK   22  A    between atoms: C23_32  and  O8_43 
REMARK   23  A    between atoms: C24_33  and  C25_34 
REMARK   24  A    between atoms: C28_38  and  O6_39 
REMARK   25  A    between atoms: C29_42  and  O8_43 
REMARK   26  A    between atoms: C29_42  and  C35_49 
ROOT
ATOM      1  C14 non d ame      -6.901  13.069  68.006  0.00  0.00     0.089 C 
ATOM      2  H20 non d ame      -6.140  12.988  67.229  0.00  0.00     0.087 H 
ENDROOT
BRANCH   1   3
ATOM      3  N4  non d ame      -7.241  14.478  68.142  0.00  0.00    -0.346 N 
ATOM      4  C10 non d ame      -6.247  15.542  67.750  0.00  0.00     0.241 C 
ATOM      5  O4  non d ame      -5.179  15.240  67.329  0.00  0.00    -0.271 OA
ATOM      6  H19 non d ame      -8.154  14.713  68.504  0.00  0.00     0.163 HD
BRANCH   4   7
ATOM      7  C9  non d ame      -6.618  16.995  67.892  0.00  0.00     0.092 C 
ATOM      8  H11 non d ame      -6.343  17.526  66.980  0.00  0.00     0.088 H 
BRANCH   7   9
ATOM      9  N3  non d ame      -8.071  17.117  68.043  0.00  0.00    -0.346 N 
ATOM     10  C7  non d ame      -8.884  17.486  66.911  0.00  0.00     0.240 C 
ATOM     11  O3  non d ame      -8.386  17.690  65.871  0.00  0.00    -0.271 OA
ATOM     12  H10 non d ame      -8.515  16.945  68.934  0.00  0.00     0.163 HD
BRANCH  10  13
ATOM     13  C6  non d ame     -10.430  17.617  67.079  0.00  0.00     0.086 C 
ATOM     14  H6  non d ame     -10.985  17.033  66.344  0.00  0.00     0.086 H 
BRANCH  13  15
ATOM     15  N2  non d ame     -10.807  17.107  68.386  0.00  0.00    -0.343 N 
ATOM     16  C5  non d ame     -11.419  15.781  68.494  0.00  0.00     0.273 C 
ATOM     17  O2  non d ame     -11.607  15.134  67.523  0.00  0.00    -0.266 OA
ATOM     18  H5  non d ame     -10.646  17.668  69.211  0.00  0.00     0.163 HD
BRANCH  16  19
ATOM     19  C4  non d ame     -11.822  15.228  69.870  0.00  0.00     0.154 A 
ATOM     20  C1  non d ame     -11.745  15.904  71.130  0.00  0.00    -0.017 A 
ATOM     21  C2  non d ame     -12.230  14.971  72.073  0.00  0.00     0.077 A 
ATOM     22  H1  non d ame     -11.392  16.916  71.328  0.00  0.00     0.091 H 
ATOM     23  O1  non d ame     -12.546  13.890  71.421  0.00  0.00    -0.218 OA
ATOM     24  N1  non d ame     -12.317  14.016  70.135  0.00  0.00    -0.123 NA
BRANCH  21  25
ATOM     25  C3  non d ame     -12.359  15.191  73.574  0.00  0.00    -0.029 C 
ATOM     26  H2  non d ame     -12.753  16.189  73.763  0.00  0.00     0.036 H 
ATOM     27  H3  non d ame     -13.037  14.447  73.993  0.00  0.00     0.036 H 
ATOM     28  H4  non d ame     -11.379  15.093  74.042  0.00  0.00     0.036 H 
ENDBRANCH  21  25
ENDBRANCH  16  19
ENDBRANCH  13  15
BRANCH  13  29
ATOM     29  C8  non d ame     -10.831  19.065  66.954  0.00  0.00    -0.049 C 
ATOM     30  H7  non d ame     -11.243  19.244  65.960  0.00  0.00     0.030 H 
ATOM     31  H8  non d ame     -11.583  19.300  67.707  0.00  0.00     0.030 H 
ATOM     32  H9  non d ame      -9.957  19.698  67.103  0.00  0.00     0.030 H 
ENDBRANCH  13  29
ENDBRANCH  10  13
ENDBRANCH   7   9
BRANCH   7  33
ATOM     33  C11 non d ame      -5.917  17.588  69.149  0.00  0.00    -0.033 C 
ATOM     34  H12 non d ame      -6.607  18.298  69.606  0.00  0.00     0.042 H 
BRANCH  33  35
ATOM     35  C12 non d ame      -5.614  16.481  70.206  0.00  0.00    -0.071 C 
ATOM     36  H13 non d ame      -6.198  15.590  69.977  0.00  0.00     0.028 H 
ATOM     37  H14 non d ame      -4.552  16.235  70.180  0.00  0.00     0.028 H 
ATOM     38  H15 non d ame      -5.879  16.845  71.199  0.00  0.00     0.028 H 
ENDBRANCH  33  35
BRANCH  33  39
ATOM     39  C13 non d ame      -4.619  18.363  68.752  0.00  0.00    -0.071 C 
ATOM     40  H16 non d ame      -4.843  19.058  67.943  0.00  0.00     0.028 H 
ATOM     41  H17 non d ame      -4.249  18.918  69.615  0.00  0.00     0.028 H 
ATOM     42  H18 non d ame      -3.859  17.654  68.423  0.00  0.00     0.028 H 
ENDBRANCH  33  39
ENDBRANCH   7  33
ENDBRANCH   4   7
ENDBRANCH   1   3
BRANCH   1  43
ATOM     43  C15 non d ame      -8.193  12.280  67.646  0.00  0.00     0.240 C 
ATOM     44  O5  non d ame      -9.249  12.673  68.022  0.00  0.00    -0.271 OA
ATOM     45  N6  non d ame      -8.113  11.039  66.824  0.00  0.00    -0.355 N 
ATOM     46  H46 non d ame      -7.222  10.698  66.494  0.00  0.00     0.162 HD
BRANCH  45  47
ATOM     47  C20 non d ame      -9.351  10.302  66.489  0.00  0.00     0.013 C 
ATOM     48  H30 non d ame     -10.171  10.752  67.047  0.00  0.00     0.072 H 
BRANCH  47  49
ATOM     49  C21 non d ame      -9.191   8.852  66.886  0.00  0.00    -0.038 C 
ATOM     50  H31 non d ame      -8.672   8.374  66.054  0.00  0.00     0.036 H 
ATOM     51  H32 non d ame      -8.736   8.866  67.877  0.00  0.00     0.036 H 
BRANCH  49  52
ATOM     52  C22 non d ame     -10.542   8.119  67.037  0.00  0.00     0.018 C 
ATOM     53  H33 non d ame     -11.008   8.539  67.929  0.00  0.00     0.048 H 
ATOM     54  H34 non d ame     -11.037   8.210  66.069  0.00  0.00     0.048 H 
BRANCH  52  55
ATOM     55  C23 non d ame     -10.401   6.595  67.304  0.00  0.00     0.259 C 
ATOM     56  O7  non d ame     -10.361   6.178  68.416  0.00  0.00    -0.265 OA
BRANCH  55  57
ATOM     57  O8  non d ame     -10.308   5.700  66.202  0.00  0.00    -0.317 OA
BRANCH  57  58
ATOM     58  C29 non d ame      -9.195   4.804  66.271  0.00  0.00     0.052 C 
ATOM     59  H47 non d ame      -8.740   4.975  67.247  0.00  0.00     0.082 H 
ATOM     60  H48 non d ame      -9.591   3.821  66.019  0.00  0.00     0.082 H 
BRANCH  58  61
ATOM     61  C35 non d ame      -8.177   5.219  65.176  0.00  0.00    -0.034 A 
ATOM     62  C30 non d ame      -6.839   5.409  65.504  0.00  0.00    -0.075 A 
ATOM     63  C31 non d ame      -5.924   5.782  64.521  0.00  0.00    -0.082 A 
ATOM     64  H49 non d ame      -6.506   5.266  66.533  0.00  0.00     0.084 H 
ATOM     65  C32 non d ame      -6.353   5.967  63.203  0.00  0.00    -0.083 A 
ATOM     66  H50 non d ame      -4.876   5.928  64.781  0.00  0.00     0.083 H 
ATOM     67  C33 non d ame      -7.690   5.779  62.881  0.00  0.00    -0.082 A 
ATOM     68  H51 non d ame      -5.645   6.258  62.428  0.00  0.00     0.083 H 
ATOM     69  C34 non d ame      -8.607   5.405  63.861  0.00  0.00    -0.075 A 
ATOM     70  H52 non d ame      -8.022   5.927  61.853  0.00  0.00     0.083 H 
ATOM     71  H53 non d ame      -9.656   5.258  63.599  0.00  0.00     0.084 H 
ENDBRANCH  58  61
ENDBRANCH  57  58
ENDBRANCH  55  57
ENDBRANCH  52  55
ENDBRANCH  49  52
ENDBRANCH  47  49
BRANCH  47  72
ATOM     72  C24 non d ame      -9.616  10.393  64.988  0.00  0.00    -0.039 C 
ATOM     73  H35 non d ame      -8.640  10.290  64.514  0.00  0.00     0.036 H 
ATOM     74  H36 non d ame     -10.400   9.663  64.787  0.00  0.00     0.036 H 
BRANCH  72  75
ATOM     75  C25 non d ame     -10.192  11.830  64.574  0.00  0.00    -0.001 C 
ATOM     76  C26 non d ame     -11.545  12.163  65.447  0.00  0.00    -0.035 C 
ATOM     77  C27 non d ame     -12.534  12.528  64.597  0.00  0.00     0.085 C 
ATOM     78  H38 non d ame     -11.927  11.252  65.906  0.00  0.00     0.036 H 
ATOM     79  H39 non d ame     -11.389  13.055  66.054  0.00  0.00     0.036 H 
ATOM     80  N5  non d ame     -12.078  12.160  63.205  0.00  0.00    -0.049 N 
ATOM     81  H40 non d ame     -13.392  11.910  64.865  0.00  0.00     0.075 H 
ATOM     82  H41 non d ame     -12.599  13.613  64.673  0.00  0.00     0.075 H 
ATOM     83  C28 non d ame     -10.494  11.869  63.320  0.00  0.00     0.193 C 
ATOM     84  H42 non d ame     -12.547  11.297  62.969  0.00  0.00     0.280 HD
ATOM     85  H43 non d ame     -12.214  12.981  62.633  0.00  0.00     0.280 HD
ATOM     86  H44 non d ame      -9.770  12.602  62.964  0.00  0.00     0.129 H 
ATOM     87  H37 non d ame      -9.416  12.595  64.552  0.00  0.00     0.046 H 
BRANCH  83  88
ATOM     88  O6  non d ame     -10.167  10.651  62.648  0.00  0.00    -0.369 OA
ATOM     89  H45 non d ame     -10.964  10.131  62.523  0.00  0.00     0.212 HD
ENDBRANCH  83  88
ENDBRANCH  72  75
ENDBRANCH  47  72
ENDBRANCH  45  47
ENDBRANCH   1  43
BRANCH   1  90
ATOM     90  C16 non d ame      -6.344  12.563  69.327  0.00  0.00    -0.035 C 
ATOM     91  H21 non d ame      -6.371  13.421  69.999  0.00  0.00     0.037 H 
ATOM     92  H22 non d ame      -6.924  11.670  69.561  0.00  0.00     0.037 H 
BRANCH  90  93
ATOM     93  C17 non d ame      -4.852  12.111  69.246  0.00  0.00    -0.059 C 
ATOM     94  H23 non d ame      -4.756  11.184  69.811  0.00  0.00     0.038 H 
BRANCH  93  95
ATOM     95  C18 non d ame      -4.401  11.824  67.778  0.00  0.00    -0.073 C 
ATOM     96  H24 non d ame      -4.739  10.831  67.483  0.00  0.00     0.028 H 
ATOM     97  H25 non d ame      -4.837  12.569  67.112  0.00  0.00     0.028 H 
ATOM     98  H26 non d ame      -3.314  11.873  67.715  0.00  0.00     0.028 H 
ENDBRANCH  93  95
BRANCH  93  99
ATOM     99  C19 non d ame      -3.932  13.142  69.906  0.00  0.00    -0.073 C 
ATOM    100  H27 non d ame      -3.006  12.657  70.216  0.00  0.00     0.028 H 
ATOM    101  H28 non d ame      -3.706  13.936  69.193  0.00  0.00     0.028 H 
ATOM    102  H29 non d ame      -4.429  13.567  70.778  0.00  0.00     0.028 H 
ENDBRANCH  93  99
ENDBRANCH  90  93
ENDBRANCH   1  90
TORSDOF 26
ENDMDL
MODEL 13
REMARK VINA RESULT:      -6.0      2.096      8.165
REMARK  26 active torsions:
REMARK  status: ('A' for Active; 'I' for Inactive)
REMARK    1  A    between atoms: C2_2  and  C3_3 
REMARK    2  A    between atoms: C4_6  and  C5_7 
REMARK       I    between atoms: C5_7  and  N2_9 
REMARK    3  A    between atoms: N2_9  and  C6_10 
REMARK    4  A    between atoms: C6_10  and  C7_11 
REMARK    5  A    between atoms: C6_10  and  C8_13 
REMARK       I    between atoms: C7_11  and  N3_14 
REMARK    6  A    between atoms: N3_14  and  C9_15 
REMARK    7  A    between atoms: C9_15  and  C10_16 
REMARK    8  A    between atoms: C9_15  and  C11_18 
REMARK       I    between atoms: C10_16  and  N4_21 
REMARK    9  A    between atoms: C11_18  and  C12_19 
REMARK   10  A    between atoms: C11_18  and  C13_20 
REMARK   11  A    between atoms: N4_21  and  C14_22 
REMARK   12  A    between atoms: C14_22  and  C15_23 
REMARK   13  A    between atoms: C14_22  and  C16_25 
REMARK       I    between atoms: C15_23  and  N6_40 
REMARK   14  A    between atoms: C16_25  and  C17_26 
REMARK   15  A    between atoms: C17_26  and  C18_27 
REMARK   16  A    between atoms: C17_26  and  C19_28 
REMARK   17  A    between atoms: C20_29  and  C21_30 
REMARK   18  A    between atoms: C20_29  and  C24_33 
REMARK   19  A    between atoms: C20_29  and  N6_40 
REMARK   20  A    between atoms: C21_30  and  C22_31 
REMARK   21  A    between atoms: C22_31  and  C23_32 
REMARK   22  A    between atoms: C23_32  and  O8_43 
REMARK   23  A    between atoms: C24_33  and  C25_34 
REMARK   24  A    between atoms: C28_38  and  O6_39 
REMARK   25  A    between atoms: C29_42  and  O8_43 
REMARK   26  A    between atoms: C29_42  and  C35_49 
ROOT
ATOM      1  C14 non d ame      -6.880  13.302  68.054  0.00  0.00     0.089 C 
ATOM      2  H20 non d ame      -6.227  13.194  67.188  0.00  0.00     0.087 H 
ENDROOT
BRANCH   1   3
ATOM      3  N4  non d ame      -7.168  14.720  68.210  0.00  0.00    -0.346 N 
ATOM      4  C10 non d ame      -6.154  15.754  67.789  0.00  0.00     0.241 C 
ATOM      5  O4  non d ame      -5.112  15.421  67.330  0.00  0.00    -0.271 OA
ATOM      6  H19 non d ame      -8.060  14.983  68.606  0.00  0.00     0.163 HD
BRANCH   4   7
ATOM      7  C9  non d ame      -6.471  17.218  67.953  0.00  0.00     0.092 C 
ATOM      8  H11 non d ame      -6.118  17.761  67.077  0.00  0.00     0.088 H 
BRANCH   7   9
ATOM      9  N3  non d ame      -7.924  17.399  68.019  0.00  0.00    -0.346 N 
ATOM     10  C7  non d ame      -8.655  17.793  66.840  0.00  0.00     0.240 C 
ATOM     11  O3  non d ame      -8.090  17.970  65.830  0.00  0.00    -0.271 OA
ATOM     12  H10 non d ame      -8.426  17.252  68.883  0.00  0.00     0.163 HD
BRANCH  10  13
ATOM     13  C6  non d ame     -10.201  17.988  66.917  0.00  0.00     0.086 C 
ATOM     14  H6  non d ame     -10.738  17.402  66.170  0.00  0.00     0.086 H 
BRANCH  13  15
ATOM     15  N2  non d ame     -10.669  17.534  68.216  0.00  0.00    -0.343 N 
ATOM     16  C5  non d ame     -11.230  16.188  68.351  0.00  0.00     0.273 C 
ATOM     17  O2  non d ame     -11.303  15.479  67.408  0.00  0.00    -0.266 OA
ATOM     18  H5  non d ame     -10.606  18.148  69.016  0.00  0.00     0.163 HD
BRANCH  16  19
ATOM     19  C4  non d ame     -11.728  15.695  69.719  0.00  0.00     0.154 A 
ATOM     20  C1  non d ame     -12.427  14.478  69.997  0.00  0.00    -0.017 A 
ATOM     21  C2  non d ame     -12.653  14.499  71.392  0.00  0.00     0.077 A 
ATOM     22  H1  non d ame     -12.726  13.699  69.295  0.00  0.00     0.091 H 
ATOM     23  O1  non d ame     -12.138  15.602  71.851  0.00  0.00    -0.218 OA
ATOM     24  N1  non d ame     -11.592  16.317  70.894  0.00  0.00    -0.123 NA
BRANCH  21  25
ATOM     25  C3  non d ame     -13.366  13.428  72.206  0.00  0.00    -0.029 C 
ATOM     26  H2  non d ame     -13.014  12.443  71.899  0.00  0.00     0.036 H 
ATOM     27  H3  non d ame     -13.154  13.576  73.265  0.00  0.00     0.036 H 
ATOM     28  H4  non d ame     -14.441  13.498  72.038  0.00  0.00     0.036 H 
ENDBRANCH  21  25
ENDBRANCH  16  19
ENDBRANCH  13  15
BRANCH  13  29
ATOM     29  C8  non d ame     -10.537  19.445  66.727  0.00  0.00    -0.049 C 
ATOM     30  H7  non d ame     -10.208  20.011  67.598  0.00  0.00     0.030 H 
ATOM     31  H8  non d ame     -10.033  19.821  65.837  0.00  0.00     0.030 H 
ATOM     32  H9  non d ame     -11.615  19.556  66.608  0.00  0.00     0.030 H 
ENDBRANCH  13  29
ENDBRANCH  10  13
ENDBRANCH   7   9
BRANCH   7  33
ATOM     33  C11 non d ame      -5.825  17.744  69.269  0.00  0.00    -0.033 C 
ATOM     34  H12 non d ame      -6.527  18.443  69.723  0.00  0.00     0.042 H 
BRANCH  33  35
ATOM     35  C12 non d ame      -5.590  16.587  70.289  0.00  0.00    -0.071 C 
ATOM     36  H13 non d ame      -4.550  16.594  70.614  0.00  0.00     0.028 H 
ATOM     37  H14 non d ame      -6.241  16.726  71.152  0.00  0.00     0.028 H 
ATOM     38  H15 non d ame      -5.816  15.632  69.814  0.00  0.00     0.028 H 
ENDBRANCH  33  35
BRANCH  33  39
ATOM     39  C13 non d ame      -4.499  18.515  68.971  0.00  0.00    -0.071 C 
ATOM     40  H16 non d ame      -4.301  18.497  67.900  0.00  0.00     0.028 H 
ATOM     41  H17 non d ame      -4.597  19.548  69.305  0.00  0.00     0.028 H 
ATOM     42  H18 non d ame      -3.675  18.037  69.502  0.00  0.00     0.028 H 
ENDBRANCH  33  39
ENDBRANCH   7  33
ENDBRANCH   4   7
ENDBRANCH   1   3
BRANCH   1  43
ATOM     43  C15 non d ame      -8.225  12.541  67.875  0.00  0.00     0.240 C 
ATOM     44  O5  non d ame      -9.242  13.049  68.221  0.00  0.00    -0.271 OA
ATOM     45  N6  non d ame      -8.245  11.181  67.263  0.00  0.00    -0.355 N 
ATOM     46  H46 non d ame      -7.388  10.742  66.961  0.00  0.00     0.162 HD
BRANCH  45  47
ATOM     47  C20 non d ame      -9.532  10.471  67.098  0.00  0.00     0.013 C 
ATOM     48  H30 non d ame     -10.320  11.108  67.499  0.00  0.00     0.072 H 
BRANCH  47  49
ATOM     49  C21 non d ame      -9.483   9.166  67.860  0.00  0.00    -0.038 C 
ATOM     50  H31 non d ame     -10.206   9.271  68.670  0.00  0.00     0.036 H 
ATOM     51  H32 non d ame      -9.612   8.384  67.112  0.00  0.00     0.036 H 
BRANCH  49  52
ATOM     52  C22 non d ame      -8.114   8.912  68.528  0.00  0.00     0.018 C 
ATOM     53  H33 non d ame      -7.840   7.892  68.260  0.00  0.00     0.048 H 
ATOM     54  H34 non d ame      -7.479   9.745  68.224  0.00  0.00     0.048 H 
BRANCH  52  55
ATOM     55  C23 non d ame      -8.158   8.951  70.081  0.00  0.00     0.259 C 
ATOM     56  O7  non d ame      -7.571   9.793  70.680  0.00  0.00    -0.265 OA
BRANCH  55  57
ATOM     57  O8  non d ame      -8.898   7.959  70.782  0.00  0.00    -0.317 OA
BRANCH  57  58
ATOM     58  C29 non d ame      -9.426   8.404  72.035  0.00  0.00     0.052 C 
ATOM     59  H47 non d ame      -9.392   7.537  72.694  0.00  0.00     0.082 H 
ATOM     60  H48 non d ame      -8.866   9.304  72.288  0.00  0.00     0.082 H 
BRANCH  58  61
ATOM     61  C35 non d ame     -10.912   8.796  71.816  0.00  0.00    -0.034 A 
ATOM     62  C30 non d ame     -11.233   9.904  71.038  0.00  0.00    -0.075 A 
ATOM     63  C31 non d ame     -12.567  10.257  70.841  0.00  0.00    -0.082 A 
ATOM     64  H49 non d ame     -10.439  10.496  70.582  0.00  0.00     0.084 H 
ATOM     65  C32 non d ame     -13.583   9.498  71.428  0.00  0.00    -0.083 A 
ATOM     66  H50 non d ame     -12.815  11.124  70.229  0.00  0.00     0.083 H 
ATOM     67  C33 non d ame     -13.258   8.395  72.206  0.00  0.00    -0.082 A 
ATOM     68  H51 non d ame     -14.629   9.766  71.279  0.00  0.00     0.083 H 
ATOM     69  C34 non d ame     -11.926   8.038  72.404  0.00  0.00    -0.075 A 
ATOM     70  H52 non d ame     -14.053   7.806  72.665  0.00  0.00     0.083 H 
ATOM     71  H53 non d ame     -11.678   7.170  73.016  0.00  0.00     0.084 H 
ENDBRANCH  58  61
ENDBRANCH  57  58
ENDBRANCH  55  57
ENDBRANCH  52  55
ENDBRANCH  49  52
ENDBRANCH  47  49
BRANCH  47  72
ATOM     72  C24 non d ame      -9.780  10.188  65.618  0.00  0.00    -0.039 C 
ATOM     73  H35 non d ame      -8.830   9.818  65.230  0.00  0.00     0.036 H 
ATOM     74  H36 non d ame     -10.665   9.553  65.588  0.00  0.00     0.036 H 
BRANCH  72  75
ATOM     75  C25 non d ame     -10.130  11.526  64.810  0.00  0.00    -0.001 C 
ATOM     76  C26 non d ame     -11.493  12.211  65.424  0.00  0.00    -0.035 C 
ATOM     77  C27 non d ame     -12.356  12.451  64.408  0.00  0.00     0.085 C 
ATOM     78  H38 non d ame     -12.025  11.491  66.045  0.00  0.00     0.036 H 
ATOM     79  H39 non d ame     -11.271  13.206  65.810  0.00  0.00     0.036 H 
ATOM     80  N5  non d ame     -11.844  11.697  63.205  0.00  0.00    -0.049 N 
ATOM     81  H40 non d ame     -13.306  12.016  64.722  0.00  0.00     0.075 H 
ATOM     82  H41 non d ame     -12.286  13.521  64.213  0.00  0.00     0.075 H 
ATOM     83  C28 non d ame     -10.325  11.279  63.557  0.00  0.00     0.193 C 
ATOM     84  H42 non d ame     -12.401  10.857  63.135  0.00  0.00     0.280 HD
ATOM     85  H43 non d ame     -11.826  12.356  62.440  0.00  0.00     0.280 HD
ATOM     86  H44 non d ame      -9.486  11.817  63.116  0.00  0.00     0.129 H 
ATOM     87  H37 non d ame      -9.262  12.174  64.687  0.00  0.00     0.046 H 
BRANCH  83  88
ATOM     88  O6  non d ame     -10.106   9.903  63.240  0.00  0.00    -0.369 OA
ATOM     89  H45 non d ame     -10.099   9.792  62.287  0.00  0.00     0.212 HD
ENDBRANCH  83  88
ENDBRANCH  72  75
ENDBRANCH  47  72
ENDBRANCH  45  47
ENDBRANCH   1  43
BRANCH   1  90
ATOM     90  C16 non d ame      -6.170  12.800  69.301  0.00  0.00    -0.035 C 
ATOM     91  H21 non d ame      -6.111  13.661  69.967  0.00  0.00     0.037 H 
ATOM     92  H22 non d ame      -6.722  11.911  69.608  0.00  0.00     0.037 H 
BRANCH  90  93
ATOM     93  C17 non d ame      -4.700  12.340  69.042  0.00  0.00    -0.059 C 
ATOM     94  H23 non d ame      -4.085  13.235  68.952  0.00  0.00     0.038 H 
BRANCH  93  95
ATOM     95  C18 non d ame      -4.133  11.489  70.223  0.00  0.00    -0.073 C 
ATOM     96  H24 non d ame      -3.046  11.564  70.235  0.00  0.00     0.028 H 
ATOM     97  H25 non d ame      -4.533  11.863  71.166  0.00  0.00     0.028 H 
ATOM     98  H26 non d ame      -4.424  10.447  70.093  0.00  0.00     0.028 H 
ENDBRANCH  93  95
BRANCH  93  99
ATOM     99  C19 non d ame      -4.590  11.577  67.720  0.00  0.00    -0.073 C 
ATOM    100  H27 non d ame      -3.587  11.163  67.621  0.00  0.00     0.028 H 
ATOM    101  H28 non d ame      -5.321  10.768  67.705  0.00  0.00     0.028 H 
ATOM    102  H29 non d ame      -4.786  12.257  66.891  0.00  0.00     0.028 H 
ENDBRANCH  93  99
ENDBRANCH  90  93
ENDBRANCH   1  90
TORSDOF 26
ENDMDL
MODEL 14
REMARK VINA RESULT:      -6.0      3.011      8.030
REMARK  26 active torsions:
REMARK  status: ('A' for Active; 'I' for Inactive)
REMARK    1  A    between atoms: C2_2  and  C3_3 
REMARK    2  A    between atoms: C4_6  and  C5_7 
REMARK       I    between atoms: C5_7  and  N2_9 
REMARK    3  A    between atoms: N2_9  and  C6_10 
REMARK    4  A    between atoms: C6_10  and  C7_11 
REMARK    5  A    between atoms: C6_10  and  C8_13 
REMARK       I    between atoms: C7_11  and  N3_14 
REMARK    6  A    between atoms: N3_14  and  C9_15 
REMARK    7  A    between atoms: C9_15  and  C10_16 
REMARK    8  A    between atoms: C9_15  and  C11_18 
REMARK       I    between atoms: C10_16  and  N4_21 
REMARK    9  A    between atoms: C11_18  and  C12_19 
REMARK   10  A    between atoms: C11_18  and  C13_20 
REMARK   11  A    between atoms: N4_21  and  C14_22 
REMARK   12  A    between atoms: C14_22  and  C15_23 
REMARK   13  A    between atoms: C14_22  and  C16_25 
REMARK       I    between atoms: C15_23  and  N6_40 
REMARK   14  A    between atoms: C16_25  and  C17_26 
REMARK   15  A    between atoms: C17_26  and  C18_27 
REMARK   16  A    between atoms: C17_26  and  C19_28 
REMARK   17  A    between atoms: C20_29  and  C21_30 
REMARK   18  A    between atoms: C20_29  and  C24_33 
REMARK   19  A    between atoms: C20_29  and  N6_40 
REMARK   20  A    between atoms: C21_30  and  C22_31 
REMARK   21  A    between atoms: C22_31  and  C23_32 
REMARK   22  A    between atoms: C23_32  and  O8_43 
REMARK   23  A    between atoms: C24_33  and  C25_34 
REMARK   24  A    between atoms: C28_38  and  O6_39 
REMARK   25  A    between atoms: C29_42  and  O8_43 
REMARK   26  A    between atoms: C29_42  and  C35_49 
ROOT
ATOM      1  C14 non d ame      -7.346   8.778  67.758  0.00  0.00     0.089 C 
ATOM      2  H20 non d ame      -7.181   7.931  67.091  0.00  0.00     0.087 H 
ENDROOT
BRANCH   1   3
ATOM      3  N4  non d ame      -8.178   9.738  67.049  0.00  0.00    -0.346 N 
ATOM      4  C10 non d ame      -9.275   9.264  66.129  0.00  0.00     0.241 C 
ATOM      5  O4  non d ame      -9.466   8.103  65.973  0.00  0.00    -0.271 OA
ATOM      6  H19 non d ame      -7.997  10.722  67.195  0.00  0.00     0.163 HD
BRANCH   4   7
ATOM      7  C9  non d ame     -10.130  10.272  65.408  0.00  0.00     0.092 C 
ATOM      8  H11 non d ame     -11.180  10.014  65.544  0.00  0.00     0.088 H 
BRANCH   7   9
ATOM      9  N3  non d ame      -9.930  11.598  66.002  0.00  0.00    -0.346 N 
ATOM     10  C7  non d ame     -10.971  12.193  66.803  0.00  0.00     0.240 C 
ATOM     11  O3  non d ame     -11.977  11.621  66.979  0.00  0.00    -0.271 OA
ATOM     12  H10 non d ame      -9.068  12.104  65.858  0.00  0.00     0.163 HD
BRANCH  10  13
ATOM     13  C6  non d ame     -10.753  13.605  67.430  0.00  0.00     0.086 C 
ATOM     14  H6  non d ame     -11.362  14.375  66.957  0.00  0.00     0.086 H 
BRANCH  13  15
ATOM     15  N2  non d ame     -11.146  13.566  68.829  0.00  0.00    -0.343 N 
ATOM     16  C5  non d ame     -11.792  14.735  69.430  0.00  0.00     0.273 C 
ATOM     17  O2  non d ame     -11.987  15.703  68.781  0.00  0.00    -0.266 OA
ATOM     18  H5  non d ame     -10.973  12.735  69.377  0.00  0.00     0.163 HD
BRANCH  16  19
ATOM     19  C4  non d ame     -12.214  14.707  70.907  0.00  0.00     0.154 A 
ATOM     20  C1  non d ame     -11.791  15.597  71.945  0.00  0.00    -0.017 A 
ATOM     21  C2  non d ame     -12.461  15.148  73.105  0.00  0.00     0.077 A 
ATOM     22  H1  non d ame     -11.104  16.439  71.868  0.00  0.00     0.091 H 
ATOM     23  O1  non d ame     -13.182  14.121  72.762  0.00  0.00    -0.218 OA
ATOM     24  N1  non d ame     -13.055  13.844  71.485  0.00  0.00    -0.123 NA
BRANCH  21  25
ATOM     25  C3  non d ame     -12.358  15.755  74.497  0.00  0.00    -0.029 C 
ATOM     26  H2  non d ame     -13.066  15.260  75.163  0.00  0.00     0.036 H 
ATOM     27  H3  non d ame     -11.346  15.620  74.878  0.00  0.00     0.036 H 
ATOM     28  H4  non d ame     -12.589  16.820  74.448  0.00  0.00     0.036 H 
ENDBRANCH  21  25
ENDBRANCH  16  19
ENDBRANCH  13  15
BRANCH  13  29
ATOM     29  C8  non d ame      -9.300  13.991  67.313  0.00  0.00    -0.049 C 
ATOM     30  H7  non d ame      -9.104  14.365  66.308  0.00  0.00     0.030 H 
ATOM     31  H8  non d ame      -9.071  14.769  68.041  0.00  0.00     0.030 H 
ATOM     32  H9  non d ame      -8.676  13.119  67.504  0.00  0.00     0.030 H 
ENDBRANCH  13  29
ENDBRANCH  10  13
ENDBRANCH   7   9
BRANCH   7  33
ATOM     33  C11 non d ame      -9.727  10.314  63.905  0.00  0.00    -0.033 C 
ATOM     34  H12 non d ame     -10.332   9.574  63.382  0.00  0.00     0.042 H 
BRANCH  33  35
ATOM     35  C12 non d ame     -10.038  11.706  63.272  0.00  0.00    -0.071 C 
ATOM     36  H13 non d ame      -9.196  12.021  62.655  0.00  0.00     0.028 H 
ATOM     37  H14 non d ame     -10.933  11.633  62.655  0.00  0.00     0.028 H 
ATOM     38  H15 non d ame     -10.201  12.437  64.064  0.00  0.00     0.028 H 
ENDBRANCH  33  35
BRANCH  33  39
ATOM     39  C13 non d ame      -8.224   9.930  63.718  0.00  0.00    -0.071 C 
ATOM     40  H16 non d ame      -7.920  10.142  62.694  0.00  0.00     0.028 H 
ATOM     41  H17 non d ame      -7.612  10.512  64.407  0.00  0.00     0.028 H 
ATOM     42  H18 non d ame      -8.093   8.867  63.924  0.00  0.00     0.028 H 
ENDBRANCH  33  39
ENDBRANCH   7  33
ENDBRANCH   4   7
ENDBRANCH   1   3
BRANCH   1  43
ATOM     43  C15 non d ame      -8.075   8.361  69.067  0.00  0.00     0.240 C 
ATOM     44  O5  non d ame      -7.768   8.861  70.100  0.00  0.00    -0.271 OA
ATOM     45  N6  non d ame      -9.164   7.343  69.031  0.00  0.00    -0.355 N 
ATOM     46  H46 non d ame      -9.437   6.914  68.159  0.00  0.00     0.162 HD
BRANCH  45  47
ATOM     47  C20 non d ame      -9.849   6.958  70.284  0.00  0.00     0.013 C 
ATOM     48  H30 non d ame      -9.253   7.327  71.119  0.00  0.00     0.072 H 
BRANCH  47  49
ATOM     49  C21 non d ame      -9.956   5.451  70.353  0.00  0.00    -0.038 C 
ATOM     50  H31 non d ame      -9.119   5.124  70.970  0.00  0.00     0.036 H 
ATOM     51  H32 non d ame     -10.979   5.243  70.666  0.00  0.00     0.036 H 
BRANCH  49  52
ATOM     52  C22 non d ame      -9.774   4.774  68.977  0.00  0.00     0.018 C 
ATOM     53  H33 non d ame     -10.449   3.918  68.978  0.00  0.00     0.048 H 
ATOM     54  H34 non d ame      -9.900   5.567  68.239  0.00  0.00     0.048 H 
BRANCH  52  55
ATOM     55  C23 non d ame      -8.350   4.197  68.746  0.00  0.00     0.259 C 
ATOM     56  O7  non d ame      -7.620   4.006  69.665  0.00  0.00    -0.265 OA
BRANCH  55  57
ATOM     57  O8  non d ame      -7.921   3.910  67.421  0.00  0.00    -0.317 OA
BRANCH  57  58
ATOM     58  C29 non d ame      -6.825   4.715  66.976  0.00  0.00     0.052 C 
ATOM     59  H47 non d ame      -6.856   5.618  67.586  0.00  0.00     0.082 H 
ATOM     60  H48 non d ame      -5.950   4.066  67.008  0.00  0.00     0.082 H 
BRANCH  58  61
ATOM     61  C35 non d ame      -7.090   5.110  65.499  0.00  0.00    -0.034 A 
ATOM     62  C30 non d ame      -8.376   5.030  64.976  0.00  0.00    -0.075 A 
ATOM     63  C31 non d ame      -8.614   5.385  63.649  0.00  0.00    -0.082 A 
ATOM     64  H49 non d ame      -9.198   4.689  65.606  0.00  0.00     0.084 H 
ATOM     65  C32 non d ame      -7.558   5.819  62.843  0.00  0.00    -0.083 A 
ATOM     66  H50 non d ame      -9.624   5.323  63.243  0.00  0.00     0.083 H 
ATOM     67  C33 non d ame      -6.276   5.894  63.368  0.00  0.00    -0.082 A 
ATOM     68  H51 non d ame      -7.736   6.099  61.805  0.00  0.00     0.083 H 
ATOM     69  C34 non d ame      -6.034   5.543  64.695  0.00  0.00    -0.075 A 
ATOM     70  H52 non d ame      -5.454   6.232  62.736  0.00  0.00     0.083 H 
ATOM     71  H53 non d ame      -5.024   5.606  65.100  0.00  0.00     0.084 H 
ENDBRANCH  58  61
ENDBRANCH  57  58
ENDBRANCH  55  57
ENDBRANCH  52  55
ENDBRANCH  49  52
ENDBRANCH  47  49
BRANCH  47  72
ATOM     72  C24 non d ame     -11.247   7.571  70.318  0.00  0.00    -0.039 C 
ATOM     73  H35 non d ame     -11.514   7.740  69.274  0.00  0.00     0.036 H 
ATOM     74  H36 non d ame     -11.845   6.896  70.930  0.00  0.00     0.036 H 
BRANCH  72  75
ATOM     75  C25 non d ame     -11.251   8.998  71.045  0.00  0.00    -0.001 C 
ATOM     76  C26 non d ame     -12.524   9.095  72.082  0.00  0.00    -0.035 C 
ATOM     77  C27 non d ame     -13.209  10.235  71.827  0.00  0.00     0.085 C 
ATOM     78  H38 non d ame     -13.246   8.309  71.862  0.00  0.00     0.036 H 
ATOM     79  H39 non d ame     -12.165   9.235  73.102  0.00  0.00     0.036 H 
ATOM     80  N5  non d ame     -12.715  10.760  70.501  0.00  0.00    -0.049 N 
ATOM     81  H40 non d ame     -14.252   9.932  71.723  0.00  0.00     0.075 H 
ATOM     82  H41 non d ame     -12.920  10.930  72.614  0.00  0.00     0.075 H 
ATOM     83  C28 non d ame     -11.348   9.959  70.188  0.00  0.00     0.193 C 
ATOM     84  H42 non d ame     -13.406  10.498  69.813  0.00  0.00     0.280 HD
ATOM     85  H43 non d ame     -12.490  11.734  70.645  0.00  0.00     0.280 HD
ATOM     86  H44 non d ame     -10.380  10.442  70.321  0.00  0.00     0.129 H 
ATOM     87  H37 non d ame     -10.270   9.264  71.438  0.00  0.00     0.046 H 
BRANCH  83  88
ATOM     88  O6  non d ame     -11.355   9.482  68.841  0.00  0.00    -0.369 OA
ATOM     89  H45 non d ame     -11.697  10.166  68.261  0.00  0.00     0.212 HD
ENDBRANCH  83  88
ENDBRANCH  72  75
ENDBRANCH  47  72
ENDBRANCH  45  47
ENDBRANCH   1  43
BRANCH   1  90
ATOM     90  C16 non d ame      -6.016   9.430  68.099  0.00  0.00    -0.035 C 
ATOM     91  H21 non d ame      -5.781  10.069  67.248  0.00  0.00     0.037 H 
ATOM     92  H22 non d ame      -6.155   9.869  69.088  0.00  0.00     0.037 H 
BRANCH  90  93
ATOM     93  C17 non d ame      -4.835   8.416  68.229  0.00  0.00    -0.059 C 
ATOM     94  H23 non d ame      -5.180   7.584  68.844  0.00  0.00     0.038 H 
BRANCH  93  95
ATOM     95  C18 non d ame      -4.401   7.837  66.844  0.00  0.00    -0.073 C 
ATOM     96  H24 non d ame      -3.978   8.635  66.234  0.00  0.00     0.028 H 
ATOM     97  H25 non d ame      -3.653   7.059  66.995  0.00  0.00     0.028 H 
ATOM     98  H26 non d ame      -5.269   7.414  66.339  0.00  0.00     0.028 H 
ENDBRANCH  93  95
BRANCH  93  99
ATOM     99  C19 non d ame      -3.645   9.052  68.951  0.00  0.00    -0.073 C 
ATOM    100  H27 non d ame      -3.211   8.330  69.643  0.00  0.00     0.028 H 
ATOM    101  H28 non d ame      -2.894   9.351  68.219  0.00  0.00     0.028 H 
ATOM    102  H29 non d ame      -3.981   9.929  69.504  0.00  0.00     0.028 H 
ENDBRANCH  93  99
ENDBRANCH  90  93
ENDBRANCH   1  90
TORSDOF 26
ENDMDL
MODEL 15
REMARK VINA RESULT:      -6.0      4.317      9.930
REMARK  26 active torsions:
REMARK  status: ('A' for Active; 'I' for Inactive)
REMARK    1  A    between atoms: C2_2  and  C3_3 
REMARK    2  A    between atoms: C4_6  and  C5_7 
REMARK       I    between atoms: C5_7  and  N2_9 
REMARK    3  A    between atoms: N2_9  and  C6_10 
REMARK    4  A    between atoms: C6_10  and  C7_11 
REMARK    5  A    between atoms: C6_10  and  C8_13 
REMARK       I    between atoms: C7_11  and  N3_14 
REMARK    6  A    between atoms: N3_14  and  C9_15 
REMARK    7  A    between atoms: C9_15  and  C10_16 
REMARK    8  A    between atoms: C9_15  and  C11_18 
REMARK       I    between atoms: C10_16  and  N4_21 
REMARK    9  A    between atoms: C11_18  and  C12_19 
REMARK   10  A    between atoms: C11_18  and  C13_20 
REMARK   11  A    between atoms: N4_21  and  C14_22 
REMARK   12  A    between atoms: C14_22  and  C15_23 
REMARK   13  A    between atoms: C14_22  and  C16_25 
REMARK       I    between atoms: C15_23  and  N6_40 
REMARK   14  A    between atoms: C16_25  and  C17_26 
REMARK   15  A    between atoms: C17_26  and  C18_27 
REMARK   16  A    between atoms: C17_26  and  C19_28 
REMARK   17  A    between atoms: C20_29  and  C21_30 
REMARK   18  A    between atoms: C20_29  and  C24_33 
REMARK   19  A    between atoms: C20_29  and  N6_40 
REMARK   20  A    between atoms: C21_30  and  C22_31 
REMARK   21  A    between atoms: C22_31  and  C23_32 
REMARK   22  A    between atoms: C23_32  and  O8_43 
REMARK   23  A    between atoms: C24_33  and  C25_34 
REMARK   24  A    between atoms: C28_38  and  O6_39 
REMARK   25  A    between atoms: C29_42  and  O8_43 
REMARK   26  A    between atoms: C29_42  and  C35_49 
ROOT
ATOM      1  C14 non d ame      -8.348   8.205  62.801  0.00  0.00     0.089 C 
ATOM      2  H20 non d ame      -9.033   8.190  61.953  0.00  0.00     0.087 H 
ENDROOT
BRANCH   1   3
ATOM      3  N4  non d ame      -8.936   9.057  63.824  0.00  0.00    -0.346 N 
ATOM      4  C10 non d ame      -9.495  10.409  63.459  0.00  0.00     0.241 C 
ATOM      5  O4  non d ame      -9.458  10.792  62.336  0.00  0.00    -0.271 OA
ATOM      6  H19 non d ame      -8.956   8.715  64.774  0.00  0.00     0.163 HD
BRANCH   4   7
ATOM      7  C9  non d ame     -10.106  11.276  64.530  0.00  0.00     0.092 C 
ATOM      8  H11 non d ame     -10.938  10.743  64.991  0.00  0.00     0.088 H 
BRANCH   7   9
ATOM      9  N3  non d ame      -9.115  11.525  65.581  0.00  0.00    -0.346 N 
ATOM     10  C7  non d ame      -9.339  11.027  66.916  0.00  0.00     0.240 C 
ATOM     11  O3  non d ame     -10.312  10.424  67.161  0.00  0.00    -0.271 OA
ATOM     12  H10 non d ame      -8.271  12.045  65.384  0.00  0.00     0.163 HD
BRANCH  10  13
ATOM     13  C6  non d ame      -8.283  11.298  68.031  0.00  0.00     0.086 C 
ATOM     14  H6  non d ame      -8.736  11.499  69.001  0.00  0.00     0.086 H 
BRANCH  13  15
ATOM     15  N2  non d ame      -7.456  10.114  68.196  0.00  0.00    -0.343 N 
ATOM     16  C5  non d ame      -7.695   9.220  69.331  0.00  0.00     0.273 C 
ATOM     17  O2  non d ame      -8.553   9.464  70.107  0.00  0.00    -0.266 OA
ATOM     18  H5  non d ame      -6.724   9.914  67.529  0.00  0.00     0.163 HD
BRANCH  16  19
ATOM     19  C4  non d ame      -6.831   7.963  69.517  0.00  0.00     0.154 A 
ATOM     20  C1  non d ame      -7.249   6.693  70.025  0.00  0.00    -0.017 A 
ATOM     21  C2  non d ame      -6.089   5.888  69.993  0.00  0.00     0.077 A 
ATOM     22  H1  non d ame      -8.243   6.399  70.364  0.00  0.00     0.091 H 
ATOM     23  O1  non d ame      -5.123   6.619  69.519  0.00  0.00    -0.218 OA
ATOM     24  N1  non d ame      -5.531   7.834  69.234  0.00  0.00    -0.123 NA
BRANCH  21  25
ATOM     25  C3  non d ame      -5.988   4.433  70.431  0.00  0.00    -0.029 C 
ATOM     26  H2  non d ame      -6.884   4.158  70.989  0.00  0.00     0.036 H 
ATOM     27  H3  non d ame      -5.897   3.794  69.552  0.00  0.00     0.036 H 
ATOM     28  H4  non d ame      -5.111   4.304  71.066  0.00  0.00     0.036 H 
ENDBRANCH  21  25
ENDBRANCH  16  19
ENDBRANCH  13  15
BRANCH  13  29
ATOM     29  C8  non d ame      -7.426  12.475  67.640  0.00  0.00    -0.049 C 
ATOM     30  H7  non d ame      -7.480  13.239  68.416  0.00  0.00     0.030 H 
ATOM     31  H8  non d ame      -6.392  12.149  67.523  0.00  0.00     0.030 H 
ATOM     32  H9  non d ame      -7.786  12.889  66.698  0.00  0.00     0.030 H 
ENDBRANCH  13  29
ENDBRANCH  10  13
ENDBRANCH   7   9
BRANCH   7  33
ATOM     33  C11 non d ame     -10.551  12.632  63.908  0.00  0.00    -0.033 C 
ATOM     34  H12 non d ame      -9.947  12.798  63.016  0.00  0.00     0.042 H 
BRANCH  33  35
ATOM     35  C12 non d ame     -12.046  12.589  63.462  0.00  0.00    -0.071 C 
ATOM     36  H13 non d ame     -12.326  11.561  63.228  0.00  0.00     0.028 H 
ATOM     37  H14 non d ame     -12.676  12.962  64.268  0.00  0.00     0.028 H 
ATOM     38  H15 non d ame     -12.178  13.212  62.578  0.00  0.00     0.028 H 
ENDBRANCH  33  35
BRANCH  33  39
ATOM     39  C13 non d ame     -10.289  13.813  64.897  0.00  0.00    -0.071 C 
ATOM     40  H16 non d ame      -9.719  14.591  64.390  0.00  0.00     0.028 H 
ATOM     41  H17 non d ame     -11.241  14.222  65.235  0.00  0.00     0.028 H 
ATOM     42  H18 non d ame      -9.724  13.450  65.755  0.00  0.00     0.028 H 
ENDBRANCH  33  39
ENDBRANCH   7  33
ENDBRANCH   4   7
ENDBRANCH   1   3
BRANCH   1  43
ATOM     43  C15 non d ame      -8.127   6.788  63.404  0.00  0.00     0.240 C 
ATOM     44  O5  non d ame      -7.577   5.952  62.762  0.00  0.00    -0.271 OA
ATOM     45  N6  non d ame      -8.595   6.475  64.784  0.00  0.00    -0.355 N 
ATOM     46  H46 non d ame      -9.059   7.179  65.340  0.00  0.00     0.162 HD
BRANCH  45  47
ATOM     47  C20 non d ame      -8.376   5.124  65.343  0.00  0.00     0.013 C 
ATOM     48  H30 non d ame      -8.022   4.481  64.538  0.00  0.00     0.072 H 
BRANCH  47  49
ATOM     49  C21 non d ame      -9.681   4.593  65.892  0.00  0.00    -0.038 C 
ATOM     50  H31 non d ame     -10.465   5.152  65.381  0.00  0.00     0.036 H 
ATOM     51  H32 non d ame      -9.626   3.509  65.785  0.00  0.00     0.036 H 
BRANCH  49  52
ATOM     52  C22 non d ame      -9.856   4.875  67.400  0.00  0.00     0.018 C 
ATOM     53  H33 non d ame     -10.337   3.987  67.813  0.00  0.00     0.048 H 
ATOM     54  H34 non d ame      -8.873   5.179  67.760  0.00  0.00     0.048 H 
BRANCH  52  55
ATOM     55  C23 non d ame     -10.811   6.061  67.709  0.00  0.00     0.259 C 
ATOM     56  O7  non d ame     -10.982   6.922  66.908  0.00  0.00    -0.265 OA
BRANCH  55  57
ATOM     57  O8  non d ame     -11.471   6.115  68.968  0.00  0.00    -0.317 OA
BRANCH  57  58
ATOM     58  C29 non d ame     -11.051   7.201  69.799  0.00  0.00     0.052 C 
ATOM     59  H47 non d ame     -10.113   7.555  69.371  0.00  0.00     0.082 H 
ATOM     60  H48 non d ame     -11.907   7.872  69.863  0.00  0.00     0.082 H 
BRANCH  58  61
ATOM     61  C35 non d ame     -10.762   6.637  71.215  0.00  0.00    -0.034 A 
ATOM     62  C30 non d ame     -10.730   7.491  72.313  0.00  0.00    -0.075 A 
ATOM     63  C31 non d ame     -10.470   6.984  73.585  0.00  0.00    -0.082 A 
ATOM     64  H49 non d ame     -10.908   8.558  72.176  0.00  0.00     0.084 H 
ATOM     65  C32 non d ame     -10.239   5.617  73.758  0.00  0.00    -0.083 A 
ATOM     66  H50 non d ame     -10.448   7.656  74.443  0.00  0.00     0.083 H 
ATOM     67  C33 non d ame     -10.269   4.769  72.659  0.00  0.00    -0.082 A 
ATOM     68  H51 non d ame     -10.036   5.212  74.749  0.00  0.00     0.083 H 
ATOM     69  C34 non d ame     -10.531   5.271  71.386  0.00  0.00    -0.075 A 
ATOM     70  H52 non d ame     -10.087   3.702  72.797  0.00  0.00     0.083 H 
ATOM     71  H53 non d ame     -10.553   4.598  70.528  0.00  0.00     0.084 H 
ENDBRANCH  58  61
ENDBRANCH  57  58
ENDBRANCH  55  57
ENDBRANCH  52  55
ENDBRANCH  49  52
ENDBRANCH  47  49
BRANCH  47  72
ATOM     72  C24 non d ame      -7.341   5.190  66.464  0.00  0.00    -0.039 C 
ATOM     73  H35 non d ame      -7.310   6.236  66.769  0.00  0.00     0.036 H 
ATOM     74  H36 non d ame      -7.638   4.423  67.179  0.00  0.00     0.036 H 
BRANCH  72  75
ATOM     75  C25 non d ame      -5.876   4.807  65.941  0.00  0.00    -0.001 C 
ATOM     76  C26 non d ame      -5.247   3.604  66.870  0.00  0.00    -0.035 C 
ATOM     77  C27 non d ame      -4.013   3.976  67.289  0.00  0.00     0.085 C 
ATOM     78  H38 non d ame      -5.813   3.512  67.796  0.00  0.00     0.036 H 
ATOM     79  H39 non d ame      -5.053   2.722  66.259  0.00  0.00     0.036 H 
ATOM     80  N5  non d ame      -3.877   5.452  67.003  0.00  0.00    -0.049 N 
ATOM     81  H40 non d ame      -4.013   3.821  68.368  0.00  0.00     0.075 H 
ATOM     82  H41 non d ame      -3.314   3.427  66.659  0.00  0.00     0.075 H 
ATOM     83  C28 non d ame      -5.080   5.822  65.993  0.00  0.00     0.193 C 
ATOM     84  H42 non d ame      -4.034   5.929  67.880  0.00  0.00     0.280 HD
ATOM     85  H43 non d ame      -3.000   5.570  66.515  0.00  0.00     0.280 HD
ATOM     86  H44 non d ame      -4.885   5.975  64.932  0.00  0.00     0.129 H 
ATOM     87  H37 non d ame      -5.847   4.665  64.861  0.00  0.00     0.046 H 
BRANCH  83  88
ATOM     88  O6  non d ame      -5.747   7.007  66.433  0.00  0.00    -0.369 OA
ATOM     89  H45 non d ame      -5.336   7.323  67.241  0.00  0.00     0.212 HD
ENDBRANCH  83  88
ENDBRANCH  72  75
ENDBRANCH  47  72
ENDBRANCH  45  47
ENDBRANCH   1  43
BRANCH   1  90
ATOM     90  C16 non d ame      -7.012   8.793  62.374  0.00  0.00    -0.035 C 
ATOM     91  H21 non d ame      -6.633   8.119  61.605  0.00  0.00     0.037 H 
ATOM     92  H22 non d ame      -7.220   9.835  62.130  0.00  0.00     0.037 H 
BRANCH  90  93
ATOM     93  C17 non d ame      -5.943   8.811  63.512  0.00  0.00    -0.059 C 
ATOM     94  H23 non d ame      -6.356   8.268  64.362  0.00  0.00     0.038 H 
BRANCH  93  95
ATOM     95  C18 non d ame      -4.620   8.096  63.088  0.00  0.00    -0.073 C 
ATOM     96  H24 non d ame      -4.644   7.059  63.424  0.00  0.00     0.028 H 
ATOM     97  H25 non d ame      -4.523   8.124  62.003  0.00  0.00     0.028 H 
ATOM     98  H26 non d ame      -3.770   8.606  63.542  0.00  0.00     0.028 H 
ENDBRANCH  93  95
BRANCH  93  99
ATOM     99  C19 non d ame      -5.664  10.242  63.977  0.00  0.00    -0.073 C 
ATOM    100  H27 non d ame      -6.577  10.833  63.904  0.00  0.00     0.028 H 
ATOM    101  H28 non d ame      -5.322  10.227  65.013  0.00  0.00     0.028 H 
ATOM    102  H29 non d ame      -4.893  10.685  63.347  0.00  0.00     0.028 H 
ENDBRANCH  93  99
ENDBRANCH  90  93
ENDBRANCH   1  90
TORSDOF 26
ENDMDL
MODEL 16
REMARK VINA RESULT:      -6.0      2.756      6.882
REMARK  26 active torsions:
REMARK  status: ('A' for Active; 'I' for Inactive)
REMARK    1  A    between atoms: C2_2  and  C3_3 
REMARK    2  A    between atoms: C4_6  and  C5_7 
REMARK       I    between atoms: C5_7  and  N2_9 
REMARK    3  A    between atoms: N2_9  and  C6_10 
REMARK    4  A    between atoms: C6_10  and  C7_11 
REMARK    5  A    between atoms: C6_10  and  C8_13 
REMARK       I    between atoms: C7_11  and  N3_14 
REMARK    6  A    between atoms: N3_14  and  C9_15 
REMARK    7  A    between atoms: C9_15  and  C10_16 
REMARK    8  A    between atoms: C9_15  and  C11_18 
REMARK       I    between atoms: C10_16  and  N4_21 
REMARK    9  A    between atoms: C11_18  and  C12_19 
REMARK   10  A    between atoms: C11_18  and  C13_20 
REMARK   11  A    between atoms: N4_21  and  C14_22 
REMARK   12  A    between atoms: C14_22  and  C15_23 
REMARK   13  A    between atoms: C14_22  and  C16_25 
REMARK       I    between atoms: C15_23  and  N6_40 
REMARK   14  A    between atoms: C16_25  and  C17_26 
REMARK   15  A    between atoms: C17_26  and  C18_27 
REMARK   16  A    between atoms: C17_26  and  C19_28 
REMARK   17  A    between atoms: C20_29  and  C21_30 
REMARK   18  A    between atoms: C20_29  and  C24_33 
REMARK   19  A    between atoms: C20_29  and  N6_40 
REMARK   20  A    between atoms: C21_30  and  C22_31 
REMARK   21  A    between atoms: C22_31  and  C23_32 
REMARK   22  A    between atoms: C23_32  and  O8_43 
REMARK   23  A    between atoms: C24_33  and  C25_34 
REMARK   24  A    between atoms: C28_38  and  O6_39 
REMARK   25  A    between atoms: C29_42  and  O8_43 
REMARK   26  A    between atoms: C29_42  and  C35_49 
ROOT
ATOM      1  C14 non d ame      -7.345  12.375  67.559  0.00  0.00     0.089 C 
ATOM      2  H20 non d ame      -7.669  11.606  68.261  0.00  0.00     0.087 H 
ENDROOT
BRANCH   1   3
ATOM      3  N4  non d ame      -7.378  11.794  66.226  0.00  0.00    -0.346 N 
ATOM      4  C10 non d ame      -7.481  10.300  66.049  0.00  0.00     0.241 C 
ATOM      5  O4  non d ame      -7.534   9.585  66.995  0.00  0.00    -0.271 OA
ATOM      6  H19 non d ame      -7.329  12.418  65.433  0.00  0.00     0.163 HD
BRANCH   4   7
ATOM      7  C9  non d ame      -7.520   9.715  64.661  0.00  0.00     0.092 C 
ATOM      8  H11 non d ame      -6.501   9.609  64.289  0.00  0.00     0.088 H 
BRANCH   7   9
ATOM      9  N3  non d ame      -8.104   8.371  64.713  0.00  0.00    -0.346 N 
ATOM     10  C7  non d ame      -7.335   7.234  64.270  0.00  0.00     0.240 C 
ATOM     11  O3  non d ame      -6.246   7.382  63.868  0.00  0.00    -0.271 OA
ATOM     12  H10 non d ame      -9.043   8.228  65.055  0.00  0.00     0.163 HD
BRANCH  10  13
ATOM     13  C6  non d ame      -7.963   5.807  64.324  0.00  0.00     0.086 C 
ATOM     14  H6  non d ame      -7.232   5.033  64.557  0.00  0.00     0.086 H 
BRANCH  13  15
ATOM     15  N2  non d ame      -8.959   5.770  65.382  0.00  0.00    -0.343 N 
ATOM     16  C5  non d ame      -8.550   6.018  66.766  0.00  0.00     0.273 C 
ATOM     17  O2  non d ame      -7.417   6.243  67.018  0.00  0.00    -0.266 OA
ATOM     18  H5  non d ame      -9.924   5.574  65.158  0.00  0.00     0.163 HD
BRANCH  16  19
ATOM     19  C4  non d ame      -9.592   5.983  67.895  0.00  0.00     0.154 A 
ATOM     20  C1  non d ame      -9.378   5.606  69.258  0.00  0.00    -0.017 A 
ATOM     21  C2  non d ame     -10.641   5.745  69.877  0.00  0.00     0.077 A 
ATOM     22  H1  non d ame      -8.449   5.281  69.727  0.00  0.00     0.091 H 
ATOM     23  O1  non d ame     -11.475   6.157  68.967  0.00  0.00    -0.218 OA
ATOM     24  N1  non d ame     -10.886   6.302  67.802  0.00  0.00    -0.123 NA
BRANCH  21  25
ATOM     25  C3  non d ame     -10.964   5.467  71.339  0.00  0.00    -0.029 C 
ATOM     26  H2  non d ame     -11.744   6.151  71.675  0.00  0.00     0.036 H 
ATOM     27  H3  non d ame     -11.312   4.439  71.444  0.00  0.00     0.036 H 
ATOM     28  H4  non d ame     -10.069   5.611  71.943  0.00  0.00     0.036 H 
ENDBRANCH  21  25
ENDBRANCH  16  19
ENDBRANCH  13  15
BRANCH  13  29
ATOM     29  C8  non d ame      -8.606   5.487  62.998  0.00  0.00    -0.049 C 
ATOM     30  H7  non d ame      -9.225   4.596  63.100  0.00  0.00     0.030 H 
ATOM     31  H8  non d ame      -9.226   6.326  62.683  0.00  0.00     0.030 H 
ATOM     32  H9  non d ame      -7.832   5.307  62.253  0.00  0.00     0.030 H 
ENDBRANCH  13  29
ENDBRANCH  10  13
ENDBRANCH   7   9
BRANCH   7  33
ATOM     33  C11 non d ame      -8.389  10.621  63.741  0.00  0.00    -0.033 C 
ATOM     34  H12 non d ame      -8.174  11.657  64.001  0.00  0.00     0.042 H 
BRANCH  33  35
ATOM     35  C12 non d ame      -8.016  10.428  62.238  0.00  0.00    -0.071 C 
ATOM     36  H13 non d ame      -6.975  10.712  62.082  0.00  0.00     0.028 H 
ATOM     37  H14 non d ame      -8.152   9.382  61.961  0.00  0.00     0.028 H 
ATOM     38  H15 non d ame      -8.660  11.054  61.621  0.00  0.00     0.028 H 
ENDBRANCH  33  35
BRANCH  33  39
ATOM     39  C13 non d ame      -9.912  10.367  63.984  0.00  0.00    -0.071 C 
ATOM     40  H16 non d ame     -10.154  10.579  65.025  0.00  0.00     0.028 H 
ATOM     41  H17 non d ame     -10.497  11.020  63.335  0.00  0.00     0.028 H 
ATOM     42  H18 non d ame     -10.147   9.327  63.760  0.00  0.00     0.028 H 
ENDBRANCH  33  39
ENDBRANCH   7  33
ENDBRANCH   4   7
ENDBRANCH   1   3
BRANCH   1  43
ATOM     43  C15 non d ame      -8.279  13.619  67.580  0.00  0.00     0.240 C 
ATOM     44  O5  non d ame      -8.509  14.168  68.608  0.00  0.00    -0.271 OA
ATOM     45  N6  non d ame      -8.879  14.132  66.315  0.00  0.00    -0.355 N 
ATOM     46  H46 non d ame      -8.686  13.677  65.435  0.00  0.00     0.162 HD
BRANCH  45  47
ATOM     47  C20 non d ame      -9.763  15.317  66.351  0.00  0.00     0.013 C 
ATOM     48  H30 non d ame     -10.082  15.466  67.383  0.00  0.00     0.072 H 
BRANCH  47  49
ATOM     49  C21 non d ame     -10.966  15.069  65.470  0.00  0.00    -0.038 C 
ATOM     50  H31 non d ame     -11.327  16.056  65.179  0.00  0.00     0.036 H 
ATOM     51  H32 non d ame     -10.633  14.364  64.708  0.00  0.00     0.036 H 
BRANCH  49  52
ATOM     52  C22 non d ame     -12.128  14.383  66.220  0.00  0.00     0.018 C 
ATOM     53  H33 non d ame     -11.882  14.459  67.280  0.00  0.00     0.048 H 
ATOM     54  H34 non d ame     -13.040  14.845  65.839  0.00  0.00     0.048 H 
BRANCH  52  55
ATOM     55  C23 non d ame     -12.259  12.864  65.919  0.00  0.00     0.259 C 
ATOM     56  O7  non d ame     -12.690  12.491  64.876  0.00  0.00    -0.265 OA
BRANCH  55  57
ATOM     57  O8  non d ame     -11.869  11.921  66.909  0.00  0.00    -0.317 OA
BRANCH  57  58
ATOM     58  C29 non d ame     -11.751  12.473  68.224  0.00  0.00     0.052 C 
ATOM     59  H47 non d ame     -10.893  13.144  68.186  0.00  0.00     0.082 H 
ATOM     60  H48 non d ame     -12.738  12.864  68.470  0.00  0.00     0.082 H 
BRANCH  58  61
ATOM     61  C35 non d ame     -11.425  11.313  69.202  0.00  0.00    -0.034 A 
ATOM     62  C30 non d ame     -10.275  10.551  69.022  0.00  0.00    -0.075 A 
ATOM     63  C31 non d ame      -9.983   9.509  69.900  0.00  0.00    -0.082 A 
ATOM     64  H49 non d ame      -9.603  10.771  68.192  0.00  0.00     0.084 H 
ATOM     65  C32 non d ame     -10.847   9.229  70.962  0.00  0.00    -0.083 A 
ATOM     66  H50 non d ame      -9.080   8.916  69.757  0.00  0.00     0.083 H 
ATOM     67  C33 non d ame     -11.995   9.989  71.137  0.00  0.00    -0.082 A 
ATOM     68  H51 non d ame     -10.625   8.416  71.654  0.00  0.00     0.083 H 
ATOM     69  C34 non d ame     -12.290  11.033  70.262  0.00  0.00    -0.075 A 
ATOM     70  H52 non d ame     -12.668   9.766  71.965  0.00  0.00     0.083 H 
ATOM     71  H53 non d ame     -13.193  11.627  70.406  0.00  0.00     0.084 H 
ENDBRANCH  58  61
ENDBRANCH  57  58
ENDBRANCH  55  57
ENDBRANCH  52  55
ENDBRANCH  49  52
ENDBRANCH  47  49
BRANCH  47  72
ATOM     72  C24 non d ame      -9.005  16.543  65.847  0.00  0.00    -0.039 C 
ATOM     73  H35 non d ame      -7.971  16.218  65.733  0.00  0.00     0.036 H 
ATOM     74  H36 non d ame      -9.564  16.893  64.979  0.00  0.00     0.036 H 
BRANCH  72  75
ATOM     75  C25 non d ame      -9.013  17.729  66.924  0.00  0.00    -0.001 C 
ATOM     76  C26 non d ame     -10.501  18.427  66.978  0.00  0.00    -0.035 C 
ATOM     77  C27 non d ame     -10.359  19.767  66.845  0.00  0.00     0.085 C 
ATOM     78  H38 non d ame     -11.079  18.143  66.099  0.00  0.00     0.036 H 
ATOM     79  H39 non d ame     -10.931  18.313  67.974  0.00  0.00     0.036 H 
ATOM     80  N5  non d ame      -8.945  20.018  66.378  0.00  0.00    -0.049 N 
ATOM     81  H40 non d ame     -11.051  20.057  66.054  0.00  0.00     0.075 H 
ATOM     82  H41 non d ame     -10.478  20.173  67.849  0.00  0.00     0.075 H 
ATOM     83  C28 non d ame      -8.145  18.637  66.625  0.00  0.00     0.193 C 
ATOM     84  H42 non d ame      -8.998  20.186  65.384  0.00  0.00     0.280 HD
ATOM     85  H43 non d ame      -8.563  20.724  66.990  0.00  0.00     0.280 HD
ATOM     86  H44 non d ame      -7.457  18.538  67.465  0.00  0.00     0.129 H 
ATOM     87  H37 non d ame      -8.572  17.426  67.874  0.00  0.00     0.046 H 
BRANCH  83  88
ATOM     88  O6  non d ame      -7.384  18.295  65.466  0.00  0.00    -0.369 OA
ATOM     89  H45 non d ame      -6.452  18.445  65.639  0.00  0.00     0.212 HD
ENDBRANCH  83  88
ENDBRANCH  72  75
ENDBRANCH  47  72
ENDBRANCH  45  47
ENDBRANCH   1  43
BRANCH   1  90
ATOM     90  C16 non d ame      -5.921  12.800  67.881  0.00  0.00    -0.035 C 
ATOM     91  H21 non d ame      -5.290  12.239  67.191  0.00  0.00     0.037 H 
ATOM     92  H22 non d ame      -5.930  13.889  67.848  0.00  0.00     0.037 H 
BRANCH  90  93
ATOM     93  C17 non d ame      -5.460  12.405  69.320  0.00  0.00    -0.059 C 
ATOM     94  H23 non d ame      -4.450  12.002  69.244  0.00  0.00     0.038 H 
BRANCH  93  95
ATOM     95  C18 non d ame      -5.410  13.636  70.281  0.00  0.00    -0.073 C 
ATOM     96  H24 non d ame      -4.523  13.570  70.910  0.00  0.00     0.028 H 
ATOM     97  H25 non d ame      -5.373  14.554  69.694  0.00  0.00     0.028 H 
ATOM     98  H26 non d ame      -6.302  13.642  70.909  0.00  0.00     0.028 H 
ENDBRANCH  93  95
BRANCH  93  99
ATOM     99  C19 non d ame      -6.349  11.300  69.895  0.00  0.00    -0.073 C 
ATOM    100  H27 non d ame      -6.188  11.227  70.971  0.00  0.00     0.028 H 
ATOM    101  H28 non d ame      -7.395  11.537  69.699  0.00  0.00     0.028 H 
ATOM    102  H29 non d ame      -6.098  10.350  69.425  0.00  0.00     0.028 H 
ENDBRANCH  93  99
ENDBRANCH  90  93
ENDBRANCH   1  90
TORSDOF 26
ENDMDL
MODEL 17
REMARK VINA RESULT:      -6.0      2.252      5.238
REMARK  26 active torsions:
REMARK  status: ('A' for Active; 'I' for Inactive)
REMARK    1  A    between atoms: C2_2  and  C3_3 
REMARK    2  A    between atoms: C4_6  and  C5_7 
REMARK       I    between atoms: C5_7  and  N2_9 
REMARK    3  A    between atoms: N2_9  and  C6_10 
REMARK    4  A    between atoms: C6_10  and  C7_11 
REMARK    5  A    between atoms: C6_10  and  C8_13 
REMARK       I    between atoms: C7_11  and  N3_14 
REMARK    6  A    between atoms: N3_14  and  C9_15 
REMARK    7  A    between atoms: C9_15  and  C10_16 
REMARK    8  A    between atoms: C9_15  and  C11_18 
REMARK       I    between atoms: C10_16  and  N4_21 
REMARK    9  A    between atoms: C11_18  and  C12_19 
REMARK   10  A    between atoms: C11_18  and  C13_20 
REMARK   11  A    between atoms: N4_21  and  C14_22 
REMARK   12  A    between atoms: C14_22  and  C15_23 
REMARK   13  A    between atoms: C14_22  and  C16_25 
REMARK       I    between atoms: C15_23  and  N6_40 
REMARK   14  A    between atoms: C16_25  and  C17_26 
REMARK   15  A    between atoms: C17_26  and  C18_27 
REMARK   16  A    between atoms: C17_26  and  C19_28 
REMARK   17  A    between atoms: C20_29  and  C21_30 
REMARK   18  A    between atoms: C20_29  and  C24_33 
REMARK   19  A    between atoms: C20_29  and  N6_40 
REMARK   20  A    between atoms: C21_30  and  C22_31 
REMARK   21  A    between atoms: C22_31  and  C23_32 
REMARK   22  A    between atoms: C23_32  and  O8_43 
REMARK   23  A    between atoms: C24_33  and  C25_34 
REMARK   24  A    between atoms: C28_38  and  O6_39 
REMARK   25  A    between atoms: C29_42  and  O8_43 
REMARK   26  A    between atoms: C29_42  and  C35_49 
ROOT
ATOM      1  C14 non d ame     -10.791   9.420  69.281  0.00  0.00     0.089 C 
ATOM      2  H20 non d ame     -11.579   8.703  69.052  0.00  0.00     0.087 H 
ENDROOT
BRANCH   1   3
ATOM      3  N4  non d ame      -9.558   8.921  68.690  0.00  0.00    -0.346 N 
ATOM      4  C10 non d ame      -9.575   7.690  67.818  0.00  0.00     0.241 C 
ATOM      5  O4  non d ame     -10.593   7.116  67.610  0.00  0.00    -0.271 OA
ATOM      6  H19 non d ame      -8.702   9.422  68.881  0.00  0.00     0.163 HD
BRANCH   4   7
ATOM      7  C9  non d ame      -8.291   7.191  67.210  0.00  0.00     0.092 C 
ATOM      8  H11 non d ame      -8.521   6.440  66.454  0.00  0.00     0.088 H 
BRANCH   7   9
ATOM      9  N3  non d ame      -7.611   8.297  66.529  0.00  0.00    -0.346 N 
ATOM     10  C7  non d ame      -8.028   8.694  65.207  0.00  0.00     0.240 C 
ATOM     11  O3  non d ame      -8.908   8.135  64.675  0.00  0.00    -0.271 OA
ATOM     12  H10 non d ame      -6.849   8.788  66.974  0.00  0.00     0.163 HD
BRANCH  10  13
ATOM     13  C6  non d ame      -7.297   9.870  64.486  0.00  0.00     0.086 C 
ATOM     14  H6  non d ame      -7.984  10.536  63.964  0.00  0.00     0.086 H 
BRANCH  13  15
ATOM     15  N2  non d ame      -6.609  10.677  65.480  0.00  0.00    -0.343 N 
ATOM     16  C5  non d ame      -7.381  11.335  66.536  0.00  0.00     0.273 C 
ATOM     17  O2  non d ame      -8.556  11.211  66.575  0.00  0.00    -0.266 OA
ATOM     18  H5  non d ame      -5.605  10.780  65.436  0.00  0.00     0.163 HD
BRANCH  16  19
ATOM     19  C4  non d ame      -6.667  12.190  67.594  0.00  0.00     0.154 A 
ATOM     20  C1  non d ame      -6.697  12.013  69.013  0.00  0.00    -0.017 A 
ATOM     21  C2  non d ame      -5.886  13.049  69.526  0.00  0.00     0.077 A 
ATOM     22  H1  non d ame      -7.227  11.250  69.584  0.00  0.00     0.091 H 
ATOM     23  O1  non d ame      -5.445  13.734  68.512  0.00  0.00    -0.218 OA
ATOM     24  N1  non d ame      -5.887  13.252  67.374  0.00  0.00    -0.123 NA
BRANCH  21  25
ATOM     25  C3  non d ame      -5.583  13.314  70.995  0.00  0.00    -0.029 C 
ATOM     26  H2  non d ame      -5.156  14.311  71.105  0.00  0.00     0.036 H 
ATOM     27  H3  non d ame      -6.504  13.248  71.574  0.00  0.00     0.036 H 
ATOM     28  H4  non d ame      -4.872  12.572  71.360  0.00  0.00     0.036 H 
ENDBRANCH  21  25
ENDBRANCH  16  19
ENDBRANCH  13  15
BRANCH  13  29
ATOM     29  C8  non d ame      -6.306   9.317  63.494  0.00  0.00    -0.049 C 
ATOM     30  H7  non d ame      -6.703   8.400  63.057  0.00  0.00     0.030 H 
ATOM     31  H8  non d ame      -6.133  10.049  62.706  0.00  0.00     0.030 H 
ATOM     32  H9  non d ame      -5.367   9.099  64.001  0.00  0.00     0.030 H 
ENDBRANCH  13  29
ENDBRANCH  10  13
ENDBRANCH   7   9
BRANCH   7  33
ATOM     33  C11 non d ame      -7.369   6.630  68.332  0.00  0.00    -0.033 C 
ATOM     34  H12 non d ame      -7.992   6.446  69.207  0.00  0.00     0.042 H 
BRANCH  33  35
ATOM     35  C12 non d ame      -6.732   5.268  67.915  0.00  0.00    -0.071 C 
ATOM     36  H13 non d ame      -6.985   5.050  66.877  0.00  0.00     0.028 H 
ATOM     37  H14 non d ame      -5.649   5.326  68.020  0.00  0.00     0.028 H 
ATOM     38  H15 non d ame      -7.117   4.476  68.557  0.00  0.00     0.028 H 
ENDBRANCH  33  35
BRANCH  33  39
ATOM     39  C13 non d ame      -6.273   7.671  68.727  0.00  0.00    -0.071 C 
ATOM     40  H16 non d ame      -5.984   8.245  67.848  0.00  0.00     0.028 H 
ATOM     41  H17 non d ame      -6.669   8.344  69.488  0.00  0.00     0.028 H 
ATOM     42  H18 non d ame      -5.403   7.148  69.123  0.00  0.00     0.028 H 
ENDBRANCH  33  39
ENDBRANCH   7  33
ENDBRANCH   4   7
ENDBRANCH   1   3
BRANCH   1  43
ATOM     43  C15 non d ame     -11.088  10.828  68.692  0.00  0.00     0.240 C 
ATOM     44  O5  non d ame     -11.982  10.969  67.921  0.00  0.00    -0.271 OA
ATOM     45  N6  non d ame     -10.265  12.004  69.095  0.00  0.00    -0.355 N 
ATOM     46  H46 non d ame      -9.507  11.897  69.753  0.00  0.00     0.162 HD
BRANCH  45  47
ATOM     47  C20 non d ame     -10.562  13.336  68.527  0.00  0.00     0.013 C 
ATOM     48  H30 non d ame     -10.497  13.260  67.442  0.00  0.00     0.072 H 
BRANCH  47  49
ATOM     49  C21 non d ame      -9.546  14.334  69.036  0.00  0.00    -0.038 C 
ATOM     50  H31 non d ame     -10.102  15.021  69.674  0.00  0.00     0.036 H 
ATOM     51  H32 non d ame      -8.733  13.739  69.453  0.00  0.00     0.036 H 
BRANCH  49  52
ATOM     52  C22 non d ame      -8.928  15.188  67.908  0.00  0.00     0.018 C 
ATOM     53  H33 non d ame      -7.935  15.469  68.261  0.00  0.00     0.048 H 
ATOM     54  H34 non d ame      -9.035  14.598  66.998  0.00  0.00     0.048 H 
BRANCH  52  55
ATOM     55  C23 non d ame      -9.683  16.521  67.646  0.00  0.00     0.259 C 
ATOM     56  O7  non d ame      -9.291  17.539  68.117  0.00  0.00    -0.265 OA
BRANCH  55  57
ATOM     57  O8  non d ame     -10.858  16.510  66.844  0.00  0.00    -0.317 OA
BRANCH  57  58
ATOM     58  C29 non d ame     -10.615  16.251  65.459  0.00  0.00     0.052 C 
ATOM     59  H47 non d ame     -11.279  16.922  64.913  0.00  0.00     0.082 H 
ATOM     60  H48 non d ame      -9.536  16.328  65.329  0.00  0.00     0.082 H 
BRANCH  58  61
ATOM     61  C35 non d ame     -11.042  14.789  65.162  0.00  0.00    -0.034 A 
ATOM     62  C30 non d ame     -10.105  13.869  64.705  0.00  0.00    -0.075 A 
ATOM     63  C31 non d ame     -10.488  12.555  64.438  0.00  0.00    -0.082 A 
ATOM     64  H49 non d ame      -9.070  14.176  64.555  0.00  0.00     0.084 H 
ATOM     65  C32 non d ame     -11.816  12.164  64.629  0.00  0.00    -0.083 A 
ATOM     66  H50 non d ame      -9.751  11.836  64.082  0.00  0.00     0.083 H 
ATOM     67  C33 non d ame     -12.749  13.086  65.082  0.00  0.00    -0.082 A 
ATOM     68  H51 non d ame     -12.124  11.138  64.423  0.00  0.00     0.083 H 
ATOM     69  C34 non d ame     -12.369  14.400  65.352  0.00  0.00    -0.075 A 
ATOM     70  H52 non d ame     -13.784  12.778  65.228  0.00  0.00     0.083 H 
ATOM     71  H53 non d ame     -13.108  15.118  65.709  0.00  0.00     0.084 H 
ENDBRANCH  58  61
ENDBRANCH  57  58
ENDBRANCH  55  57
ENDBRANCH  52  55
ENDBRANCH  49  52
ENDBRANCH  47  49
BRANCH  47  72
ATOM     72  C24 non d ame     -11.963  13.776  68.946  0.00  0.00    -0.039 C 
ATOM     73  H35 non d ame     -12.211  14.615  68.294  0.00  0.00     0.036 H 
ATOM     74  H36 non d ame     -12.570  12.871  68.923  0.00  0.00     0.036 H 
BRANCH  72  75
ATOM     75  C25 non d ame     -11.987  14.324  70.451  0.00  0.00    -0.001 C 
ATOM     76  C26 non d ame     -12.945  13.365  71.381  0.00  0.00    -0.035 C 
ATOM     77  C27 non d ame     -13.833  14.145  72.043  0.00  0.00     0.085 C 
ATOM     78  H38 non d ame     -13.576  12.741  70.748  0.00  0.00     0.036 H 
ATOM     79  H39 non d ame     -12.358  12.912  72.180  0.00  0.00     0.036 H 
ATOM     80  N5  non d ame     -13.783  15.511  71.402  0.00  0.00    -0.049 N 
ATOM     81  H40 non d ame     -14.810  13.700  71.854  0.00  0.00     0.075 H 
ATOM     82  H41 non d ame     -13.454  14.217  73.062  0.00  0.00     0.075 H 
ATOM     83  C28 non d ame     -12.444  15.531  70.502  0.00  0.00     0.193 C 
ATOM     84  H42 non d ame     -14.584  15.569  70.789  0.00  0.00     0.280 HD
ATOM     85  H43 non d ame     -13.674  16.177  72.155  0.00  0.00     0.280 HD
ATOM     86  H44 non d ame     -11.556  16.065  70.841  0.00  0.00     0.129 H 
ATOM     87  H37 non d ame     -10.987  14.541  70.827  0.00  0.00     0.046 H 
BRANCH  83  88
ATOM     88  O6  non d ame     -12.730  16.054  69.203  0.00  0.00    -0.369 OA
ATOM     89  H45 non d ame     -12.445  16.969  69.157  0.00  0.00     0.212 HD
ENDBRANCH  83  88
ENDBRANCH  72  75
ENDBRANCH  47  72
ENDBRANCH  45  47
ENDBRANCH   1  43
BRANCH   1  90
ATOM     90  C16 non d ame     -10.611   9.524  70.787  0.00  0.00    -0.035 C 
ATOM     91  H21 non d ame      -9.652   9.050  70.998  0.00  0.00     0.037 H 
ATOM     92  H22 non d ame     -10.762  10.577  71.024  0.00  0.00     0.037 H 
BRANCH  90  93
ATOM     93  C17 non d ame     -11.683   8.732  71.602  0.00  0.00    -0.059 C 
ATOM     94  H23 non d ame     -11.258   8.512  72.581  0.00  0.00     0.038 H 
BRANCH  93  95
ATOM     95  C18 non d ame     -12.987   9.562  71.825  0.00  0.00    -0.073 C 
ATOM     96  H24 non d ame     -12.801  10.338  72.567  0.00  0.00     0.028 H 
ATOM     97  H25 non d ame     -13.289  10.023  70.884  0.00  0.00     0.028 H 
ATOM     98  H26 non d ame     -13.781   8.904  72.178  0.00  0.00     0.028 H 
ENDBRANCH  93  95
BRANCH  93  99
ATOM     99  C19 non d ame     -11.998   7.392  70.932  0.00  0.00    -0.073 C 
ATOM    100  H27 non d ame     -13.060   7.348  70.688  0.00  0.00     0.028 H 
ATOM    101  H28 non d ame     -11.410   7.295  70.019  0.00  0.00     0.028 H 
ATOM    102  H29 non d ame     -11.748   6.578  71.612  0.00  0.00     0.028 H 
ENDBRANCH  93  99
ENDBRANCH  90  93
ENDBRANCH   1  90
TORSDOF 26
ENDMDL
MODEL 18
REMARK VINA RESULT:      -6.0      3.440      7.376
REMARK  26 active torsions:
REMARK  status: ('A' for Active; 'I' for Inactive)
REMARK    1  A    between atoms: C2_2  and  C3_3 
REMARK    2  A    between atoms: C4_6  and  C5_7 
REMARK       I    between atoms: C5_7  and  N2_9 
REMARK    3  A    between atoms: N2_9  and  C6_10 
REMARK    4  A    between atoms: C6_10  and  C7_11 
REMARK    5  A    between atoms: C6_10  and  C8_13 
REMARK       I    between atoms: C7_11  and  N3_14 
REMARK    6  A    between atoms: N3_14  and  C9_15 
REMARK    7  A    between atoms: C9_15  and  C10_16 
REMARK    8  A    between atoms: C9_15  and  C11_18 
REMARK       I    between atoms: C10_16  and  N4_21 
REMARK    9  A    between atoms: C11_18  and  C12_19 
REMARK   10  A    between atoms: C11_18  and  C13_20 
REMARK   11  A    between atoms: N4_21  and  C14_22 
REMARK   12  A    between atoms: C14_22  and  C15_23 
REMARK   13  A    between atoms: C14_22  and  C16_25 
REMARK       I    between atoms: C15_23  and  N6_40 
REMARK   14  A    between atoms: C16_25  and  C17_26 
REMARK   15  A    between atoms: C17_26  and  C18_27 
REMARK   16  A    between atoms: C17_26  and  C19_28 
REMARK   17  A    between atoms: C20_29  and  C21_30 
REMARK   18  A    between atoms: C20_29  and  C24_33 
REMARK   19  A    between atoms: C20_29  and  N6_40 
REMARK   20  A    between atoms: C21_30  and  C22_31 
REMARK   21  A    between atoms: C22_31  and  C23_32 
REMARK   22  A    between atoms: C23_32  and  O8_43 
REMARK   23  A    between atoms: C24_33  and  C25_34 
REMARK   24  A    between atoms: C28_38  and  O6_39 
REMARK   25  A    between atoms: C29_42  and  O8_43 
REMARK   26  A    between atoms: C29_42  and  C35_49 
ROOT
ATOM      1  C14 non d ame     -11.497   7.979  70.412  0.00  0.00     0.089 C 
ATOM      2  H20 non d ame     -12.443   7.732  69.929  0.00  0.00     0.087 H 
ENDROOT
BRANCH   1   3
ATOM      3  N4  non d ame     -10.610   6.837  70.251  0.00  0.00    -0.346 N 
ATOM      4  C10 non d ame     -10.543   6.105  68.934  0.00  0.00     0.241 C 
ATOM      5  O4  non d ame     -11.216   6.451  68.020  0.00  0.00    -0.271 OA
ATOM      6  H19 non d ame     -10.047   6.557  71.041  0.00  0.00     0.163 HD
BRANCH   4   7
ATOM      7  C9  non d ame      -9.615   4.928  68.783  0.00  0.00     0.092 C 
ATOM      8  H11 non d ame     -10.177   4.075  68.404  0.00  0.00     0.088 H 
BRANCH   7   9
ATOM      9  N3  non d ame      -8.584   5.244  67.789  0.00  0.00    -0.346 N 
ATOM     10  C7  non d ame      -8.642   4.648  66.477  0.00  0.00     0.240 C 
ATOM     11  O3  non d ame      -9.510   3.911  66.205  0.00  0.00    -0.271 OA
ATOM     12  H10 non d ame      -7.828   5.876  68.010  0.00  0.00     0.163 HD
BRANCH  10  13
ATOM     13  C6  non d ame      -7.540   4.985  65.425  0.00  0.00     0.086 C 
ATOM     14  H6  non d ame      -7.561   4.316  64.564  0.00  0.00     0.086 H 
BRANCH  13  15
ATOM     15  N2  non d ame      -7.770   6.326  64.915  0.00  0.00    -0.343 N 
ATOM     16  C5  non d ame      -7.952   6.530  63.476  0.00  0.00     0.273 C 
ATOM     17  O2  non d ame      -7.908   5.608  62.737  0.00  0.00    -0.266 OA
ATOM     18  H5  non d ame      -7.803   7.108  65.554  0.00  0.00     0.163 HD
BRANCH  16  19
ATOM     19  C4  non d ame      -8.197   7.942  62.923  0.00  0.00     0.154 A 
ATOM     20  C1  non d ame      -8.836   9.034  63.593  0.00  0.00    -0.017 A 
ATOM     21  C2  non d ame      -8.809  10.097  62.662  0.00  0.00     0.077 A 
ATOM     22  H1  non d ame      -9.255   9.052  64.599  0.00  0.00     0.091 H 
ATOM     23  O1  non d ame      -8.220   9.657  61.589  0.00  0.00    -0.218 OA
ATOM     24  N1  non d ame      -7.854   8.403  61.717  0.00  0.00    -0.123 NA
BRANCH  21  25
ATOM     25  C3  non d ame      -9.365  11.498  62.878  0.00  0.00    -0.029 C 
ATOM     26  H2  non d ame     -10.270  11.441  63.483  0.00  0.00     0.036 H 
ATOM     27  H3  non d ame      -8.623  12.109  63.391  0.00  0.00     0.036 H 
ATOM     28  H4  non d ame      -9.601  11.948  61.913  0.00  0.00     0.036 H 
ENDBRANCH  21  25
ENDBRANCH  16  19
ENDBRANCH  13  15
BRANCH  13  29
ATOM     29  C8  non d ame      -6.181   4.904  66.073  0.00  0.00    -0.049 C 
ATOM     30  H7  non d ame      -5.794   5.910  66.231  0.00  0.00     0.030 H 
ATOM     31  H8  non d ame      -6.265   4.392  67.031  0.00  0.00     0.030 H 
ATOM     32  H9  non d ame      -5.502   4.352  65.423  0.00  0.00     0.030 H 
ENDBRANCH  13  29
ENDBRANCH  10  13
ENDBRANCH   7   9
BRANCH   7  33
ATOM     33  C11 non d ame      -8.937   4.623  70.151  0.00  0.00    -0.033 C 
ATOM     34  H12 non d ame      -9.037   5.513  70.773  0.00  0.00     0.042 H 
BRANCH  33  35
ATOM     35  C12 non d ame      -9.653   3.451  70.891  0.00  0.00    -0.071 C 
ATOM     36  H13 non d ame     -10.712   3.683  71.001  0.00  0.00     0.028 H 
ATOM     37  H14 non d ame      -9.541   2.534  70.311  0.00  0.00     0.028 H 
ATOM     38  H15 non d ame      -9.205   3.316  71.875  0.00  0.00     0.028 H 
ENDBRANCH  33  35
BRANCH  33  39
ATOM     39  C13 non d ame      -7.413   4.331  69.967  0.00  0.00    -0.071 C 
ATOM     40  H16 non d ame      -7.216   4.067  68.928  0.00  0.00     0.028 H 
ATOM     41  H17 non d ame      -6.838   5.219  70.231  0.00  0.00     0.028 H 
ATOM     42  H18 non d ame      -7.122   3.504  70.614  0.00  0.00     0.028 H 
ENDBRANCH  33  39
ENDBRANCH   7  33
ENDBRANCH   4   7
ENDBRANCH   1   3
BRANCH   1  43
ATOM     43  C15 non d ame     -10.821   9.227  69.775  0.00  0.00     0.240 C 
ATOM     44  O5  non d ame      -9.967   9.804  70.367  0.00  0.00    -0.271 OA
ATOM     45  N6  non d ame     -11.231   9.697  68.421  0.00  0.00    -0.355 N 
ATOM     46  H46 non d ame     -11.952   9.211  67.906  0.00  0.00     0.162 HD
BRANCH  45  47
ATOM     47  C20 non d ame     -10.578  10.883  67.828  0.00  0.00     0.013 C 
ATOM     48  H30 non d ame     -10.059  11.414  68.625  0.00  0.00     0.072 H 
BRANCH  47  49
ATOM     49  C21 non d ame     -11.630  11.777  67.211  0.00  0.00    -0.038 C 
ATOM     50  H31 non d ame     -12.413  11.108  66.854  0.00  0.00     0.036 H 
ATOM     51  H32 non d ame     -11.857  12.528  67.968  0.00  0.00     0.036 H 
BRANCH  49  52
ATOM     52  C22 non d ame     -11.114  12.545  65.975  0.00  0.00     0.018 C 
ATOM     53  H33 non d ame     -10.035  12.392  65.961  0.00  0.00     0.048 H 
ATOM     54  H34 non d ame     -11.724  12.202  65.138  0.00  0.00     0.048 H 
BRANCH  52  55
ATOM     55  C23 non d ame     -11.327  14.082  66.058  0.00  0.00     0.259 C 
ATOM     56  O7  non d ame     -12.398  14.554  65.850  0.00  0.00    -0.265 OA
BRANCH  55  57
ATOM     57  O8  non d ame     -10.224  14.923  66.374  0.00  0.00    -0.317 OA
BRANCH  57  58
ATOM     58  C29 non d ame     -10.329  15.566  67.647  0.00  0.00     0.052 C 
ATOM     59  H47 non d ame     -11.321  15.317  68.023  0.00  0.00     0.082 H 
ATOM     60  H48 non d ame      -9.443  15.263  68.205  0.00  0.00     0.082 H 
BRANCH  58  61
ATOM     61  C35 non d ame     -10.262  17.099  67.416  0.00  0.00    -0.034 A 
ATOM     62  C30 non d ame     -10.483  17.622  66.145  0.00  0.00    -0.075 A 
ATOM     63  C31 non d ame     -10.423  18.999  65.937  0.00  0.00    -0.082 A 
ATOM     64  H49 non d ame     -10.704  16.953  65.314  0.00  0.00     0.084 H 
ATOM     65  C32 non d ame     -10.138  19.855  67.005  0.00  0.00    -0.083 A 
ATOM     66  H50 non d ame     -10.599  19.406  64.941  0.00  0.00     0.083 H 
ATOM     67  C33 non d ame      -9.915  19.328  68.270  0.00  0.00    -0.082 A 
ATOM     68  H51 non d ame     -10.090  20.933  66.851  0.00  0.00     0.083 H 
ATOM     69  C34 non d ame      -9.977  17.953  68.483  0.00  0.00    -0.075 A 
ATOM     70  H52 non d ame      -9.691  19.998  69.100  0.00  0.00     0.083 H 
ATOM     71  H53 non d ame      -9.801  17.547  69.480  0.00  0.00     0.084 H 
ENDBRANCH  58  61
ENDBRANCH  57  58
ENDBRANCH  55  57
ENDBRANCH  52  55
ENDBRANCH  49  52
ENDBRANCH  47  49
BRANCH  47  72
ATOM     72  C24 non d ame      -9.588  10.443  66.751  0.00  0.00    -0.039 C 
ATOM     73  H35 non d ame      -9.917   9.451  66.442  0.00  0.00     0.036 H 
ATOM     74  H36 non d ame      -9.563  11.259  66.028  0.00  0.00     0.036 H 
BRANCH  72  75
ATOM     75  C25 non d ame      -8.105  10.287  67.338  0.00  0.00    -0.001 C 
ATOM     76  C26 non d ame      -7.034  11.073  66.368  0.00  0.00    -0.035 C 
ATOM     77  C27 non d ame      -6.025  10.224  66.056  0.00  0.00     0.085 C 
ATOM     78  H38 non d ame      -7.492  11.289  65.403  0.00  0.00     0.036 H 
ATOM     79  H39 non d ame      -6.536  11.866  66.926  0.00  0.00     0.036 H 
ATOM     80  N5  non d ame      -6.474   8.839  66.453  0.00  0.00    -0.049 N 
ATOM     81  H40 non d ame      -5.931  10.270  64.970  0.00  0.00     0.075 H 
ATOM     82  H41 non d ame      -5.189  10.522  66.688  0.00  0.00     0.075 H 
ATOM     83  C28 non d ame      -7.759   9.046  67.409  0.00  0.00     0.193 C 
ATOM     84  H42 non d ame      -6.774   8.381  65.605  0.00  0.00     0.280 HD
ATOM     85  H43 non d ame      -5.725   8.442  67.003  0.00  0.00     0.280 HD
ATOM     86  H44 non d ame      -7.671   8.926  68.489  0.00  0.00     0.129 H 
ATOM     87  H37 non d ame      -8.058  10.504  68.405  0.00  0.00     0.046 H 
BRANCH  83  88
ATOM     88  O6  non d ame      -8.814   8.168  67.012  0.00  0.00    -0.369 OA
ATOM     89  H45 non d ame      -8.659   7.867  66.114  0.00  0.00     0.212 HD
ENDBRANCH  83  88
ENDBRANCH  72  75
ENDBRANCH  47  72
ENDBRANCH  45  47
ENDBRANCH   1  43
BRANCH   1  90
ATOM     90  C16 non d ame     -11.725   8.224  71.895  0.00  0.00    -0.035 C 
ATOM     91  H21 non d ame     -11.695   7.238  72.359  0.00  0.00     0.037 H 
ATOM     92  H22 non d ame     -10.994   8.982  72.179  0.00  0.00     0.037 H 
BRANCH  90  93
ATOM     93  C17 non d ame     -13.131   8.822  72.223  0.00  0.00    -0.059 C 
ATOM     94  H23 non d ame     -13.280   8.745  73.300  0.00  0.00     0.038 H 
BRANCH  93  95
ATOM     95  C18 non d ame     -13.234  10.332  71.834  0.00  0.00    -0.073 C 
ATOM     96  H24 non d ame     -12.234  10.733  71.668  0.00  0.00     0.028 H 
ATOM     97  H25 non d ame     -13.822  10.432  70.922  0.00  0.00     0.028 H 
ATOM     98  H26 non d ame     -13.717  10.882  72.641  0.00  0.00     0.028 H 
ENDBRANCH  93  95
BRANCH  93  99
ATOM     99  C19 non d ame     -14.240   8.010  71.551  0.00  0.00    -0.073 C 
ATOM    100  H27 non d ame     -14.923   7.628  72.311  0.00  0.00     0.028 H 
ATOM    101  H28 non d ame     -14.789   8.648  70.858  0.00  0.00     0.028 H 
ATOM    102  H29 non d ame     -13.801   7.175  71.005  0.00  0.00     0.028 H 
ENDBRANCH  93  99
ENDBRANCH  90  93
ENDBRANCH   1  90
TORSDOF 26
ENDMDL
MODEL 19
REMARK VINA RESULT:      -5.9      2.793      7.151
REMARK  26 active torsions:
REMARK  status: ('A' for Active; 'I' for Inactive)
REMARK    1  A    between atoms: C2_2  and  C3_3 
REMARK    2  A    between atoms: C4_6  and  C5_7 
REMARK       I    between atoms: C5_7  and  N2_9 
REMARK    3  A    between atoms: N2_9  and  C6_10 
REMARK    4  A    between atoms: C6_10  and  C7_11 
REMARK    5  A    between atoms: C6_10  and  C8_13 
REMARK       I    between atoms: C7_11  and  N3_14 
REMARK    6  A    between atoms: N3_14  and  C9_15 
REMARK    7  A    between atoms: C9_15  and  C10_16 
REMARK    8  A    between atoms: C9_15  and  C11_18 
REMARK       I    between atoms: C10_16  and  N4_21 
REMARK    9  A    between atoms: C11_18  and  C12_19 
REMARK   10  A    between atoms: C11_18  and  C13_20 
REMARK   11  A    between atoms: N4_21  and  C14_22 
REMARK   12  A    between atoms: C14_22  and  C15_23 
REMARK   13  A    between atoms: C14_22  and  C16_25 
REMARK       I    between atoms: C15_23  and  N6_40 
REMARK   14  A    between atoms: C16_25  and  C17_26 
REMARK   15  A    between atoms: C17_26  and  C18_27 
REMARK   16  A    between atoms: C17_26  and  C19_28 
REMARK   17  A    between atoms: C20_29  and  C21_30 
REMARK   18  A    between atoms: C20_29  and  C24_33 
REMARK   19  A    between atoms: C20_29  and  N6_40 
REMARK   20  A    between atoms: C21_30  and  C22_31 
REMARK   21  A    between atoms: C22_31  and  C23_32 
REMARK   22  A    between atoms: C23_32  and  O8_43 
REMARK   23  A    between atoms: C24_33  and  C25_34 
REMARK   24  A    between atoms: C28_38  and  O6_39 
REMARK   25  A    between atoms: C29_42  and  O8_43 
REMARK   26  A    between atoms: C29_42  and  C35_49 
ROOT
ATOM      1  C14 non d ame     -10.432   9.389  68.845  0.00  0.00     0.089 C 
ATOM      2  H20 non d ame     -11.281   8.718  68.982  0.00  0.00     0.087 H 
ENDROOT
BRANCH   1   3
ATOM      3  N4  non d ame      -9.515   8.750  67.913  0.00  0.00    -0.346 N 
ATOM      4  C10 non d ame      -9.494   7.249  67.773  0.00  0.00     0.241 C 
ATOM      5  O4  non d ame     -10.223   6.575  68.423  0.00  0.00    -0.271 OA
ATOM      6  H19 non d ame      -8.901   9.341  67.370  0.00  0.00     0.163 HD
BRANCH   4   7
ATOM      7  C9  non d ame      -8.542   6.606  66.799  0.00  0.00     0.092 C 
ATOM      8  H11 non d ame      -9.066   5.823  66.249  0.00  0.00     0.088 H 
BRANCH   7   9
ATOM      9  N3  non d ame      -8.099   7.601  65.818  0.00  0.00    -0.346 N 
ATOM     10  C7  non d ame      -8.184   7.310  64.408  0.00  0.00     0.240 C 
ATOM     11  O3  non d ame      -8.605   6.280  64.045  0.00  0.00    -0.271 OA
ATOM     12  H10 non d ame      -7.732   8.493  66.116  0.00  0.00     0.163 HD
BRANCH  10  13
ATOM     13  C6  non d ame      -7.707   8.372  63.369  0.00  0.00     0.086 C 
ATOM     14  H6  non d ame      -7.519   7.945  62.384  0.00  0.00     0.086 H 
BRANCH  13  15
ATOM     15  N2  non d ame      -8.754   9.366  63.197  0.00  0.00    -0.343 N 
ATOM     16  C5  non d ame      -8.995  10.350  64.255  0.00  0.00     0.273 C 
ATOM     17  O2  non d ame      -8.344  10.331  65.241  0.00  0.00    -0.266 OA
ATOM     18  H5  non d ame      -9.307   9.373  62.352  0.00  0.00     0.163 HD
BRANCH  16  19
ATOM     19  C4  non d ame     -10.097  11.407  64.086  0.00  0.00     0.154 A 
ATOM     20  C1  non d ame     -10.230  12.640  64.802  0.00  0.00    -0.017 A 
ATOM     21  C2  non d ame     -11.396  13.241  64.277  0.00  0.00     0.077 A 
ATOM     22  H1  non d ame      -9.580  13.037  65.581  0.00  0.00     0.091 H 
ATOM     23  O1  non d ame     -11.869  12.440  63.368  0.00  0.00    -0.218 OA
ATOM     24  N1  non d ame     -11.128  11.363  63.238  0.00  0.00    -0.123 NA
BRANCH  21  25
ATOM     25  C3  non d ame     -11.988  14.579  64.699  0.00  0.00    -0.029 C 
ATOM     26  H2  non d ame     -12.846  14.812  64.067  0.00  0.00     0.036 H 
ATOM     27  H3  non d ame     -12.308  14.522  65.740  0.00  0.00     0.036 H 
ATOM     28  H4  non d ame     -11.235  15.360  64.593  0.00  0.00     0.036 H 
ENDBRANCH  21  25
ENDBRANCH  16  19
ENDBRANCH  13  15
BRANCH  13  29
ATOM     29  C8  non d ame      -6.445   9.032  63.863  0.00  0.00    -0.049 C 
ATOM     30  H7  non d ame      -6.541   9.250  64.927  0.00  0.00     0.030 H 
ATOM     31  H8  non d ame      -5.599   8.363  63.704  0.00  0.00     0.030 H 
ATOM     32  H9  non d ame      -6.282   9.960  63.316  0.00  0.00     0.030 H 
ENDBRANCH  13  29
ENDBRANCH  10  13
ENDBRANCH   7   9
BRANCH   7  33
ATOM     33  C11 non d ame      -7.307   6.054  67.568  0.00  0.00    -0.033 C 
ATOM     34  H12 non d ame      -7.606   5.903  68.606  0.00  0.00     0.042 H 
BRANCH  33  35
ATOM     35  C12 non d ame      -6.857   4.670  67.004  0.00  0.00    -0.071 C 
ATOM     36  H13 non d ame      -5.907   4.783  66.481  0.00  0.00     0.028 H 
ATOM     37  H14 non d ame      -6.737   3.964  67.826  0.00  0.00     0.028 H 
ATOM     38  H15 non d ame      -7.611   4.298  66.312  0.00  0.00     0.028 H 
ENDBRANCH  33  35
BRANCH  33  39
ATOM     39  C13 non d ame      -6.131   7.083  67.550  0.00  0.00    -0.071 C 
ATOM     40  H16 non d ame      -5.777   7.248  68.567  0.00  0.00     0.028 H 
ATOM     41  H17 non d ame      -5.316   6.692  66.940  0.00  0.00     0.028 H 
ATOM     42  H18 non d ame      -6.480   8.025  67.129  0.00  0.00     0.028 H 
ENDBRANCH  33  39
ENDBRANCH   7  33
ENDBRANCH   4   7
ENDBRANCH   1   3
BRANCH   1  43
ATOM     43  C15 non d ame     -10.858  10.764  68.257  0.00  0.00     0.240 C 
ATOM     44  O5  non d ame     -11.613  10.807  67.340  0.00  0.00    -0.271 OA
ATOM     45  N6  non d ame     -10.332  12.030  68.844  0.00  0.00    -0.355 N 
ATOM     46  H46 non d ame      -9.695  12.007  69.626  0.00  0.00     0.162 HD
BRANCH  45  47
ATOM     47  C20 non d ame     -10.749  13.330  68.274  0.00  0.00     0.013 C 
ATOM     48  H30 non d ame     -10.880  13.199  67.200  0.00  0.00     0.072 H 
BRANCH  47  49
ATOM     49  C21 non d ame      -9.674  14.359  68.542  0.00  0.00    -0.038 C 
ATOM     50  H31 non d ame      -9.912  14.788  69.515  0.00  0.00     0.036 H 
ATOM     51  H32 non d ame      -8.726  13.842  68.390  0.00  0.00     0.036 H 
BRANCH  49  52
ATOM     52  C22 non d ame      -9.699  15.528  67.532  0.00  0.00     0.018 C 
ATOM     53  H33 non d ame      -8.732  15.506  67.030  0.00  0.00     0.048 H 
ATOM     54  H34 non d ame     -10.616  15.400  66.956  0.00  0.00     0.048 H 
BRANCH  52  55
ATOM     55  C23 non d ame      -9.804  16.928  68.198  0.00  0.00     0.259 C 
ATOM     56  O7  non d ame     -10.866  17.402  68.442  0.00  0.00    -0.265 OA
BRANCH  55  57
ATOM     57  O8  non d ame      -8.614  17.646  68.502  0.00  0.00    -0.317 OA
BRANCH  57  58
ATOM     58  C29 non d ame      -8.768  19.068  68.468  0.00  0.00     0.052 C 
ATOM     59  H47 non d ame      -9.765  19.247  68.068  0.00  0.00     0.082 H 
ATOM     60  H48 non d ame      -8.511  19.416  69.469  0.00  0.00     0.082 H 
BRANCH  58  61
ATOM     61  C35 non d ame      -7.727  19.638  67.469  0.00  0.00    -0.034 A 
ATOM     62  C30 non d ame      -6.859  20.650  67.868  0.00  0.00    -0.075 A 
ATOM     63  C31 non d ame      -5.924  21.163  66.970  0.00  0.00    -0.082 A 
ATOM     64  H49 non d ame      -6.912  21.041  68.884  0.00  0.00     0.084 H 
ATOM     65  C32 non d ame      -5.860  20.661  65.667  0.00  0.00    -0.083 A 
ATOM     66  H50 non d ame      -5.245  21.954  67.286  0.00  0.00     0.083 H 
ATOM     67  C33 non d ame      -6.730  19.654  65.272  0.00  0.00    -0.082 A 
ATOM     68  H51 non d ame      -5.132  21.056  64.959  0.00  0.00     0.083 H 
ATOM     69  C34 non d ame      -7.664  19.137  66.167  0.00  0.00    -0.075 A 
ATOM     70  H52 non d ame      -6.679  19.266  64.254  0.00  0.00     0.083 H 
ATOM     71  H53 non d ame      -8.343  18.345  65.850  0.00  0.00     0.084 H 
ENDBRANCH  58  61
ENDBRANCH  57  58
ENDBRANCH  55  57
ENDBRANCH  52  55
ENDBRANCH  49  52
ENDBRANCH  47  49
BRANCH  47  72
ATOM     72  C24 non d ame     -12.058  13.780  68.918  0.00  0.00    -0.039 C 
ATOM     73  H35 non d ame     -12.260  14.769  68.505  0.00  0.00     0.036 H 
ATOM     74  H36 non d ame     -12.761  12.965  68.748  0.00  0.00     0.036 H 
BRANCH  72  75
ATOM     75  C25 non d ame     -11.910  13.953  70.504  0.00  0.00    -0.001 C 
ATOM     76  C26 non d ame     -12.746  12.766  71.277  0.00  0.00    -0.035 C 
ATOM     77  C27 non d ame     -13.556  13.334  72.202  0.00  0.00     0.085 C 
ATOM     78  H38 non d ame     -13.442  12.289  70.587  0.00  0.00     0.036 H 
ATOM     79  H39 non d ame     -12.066  12.157  71.873  0.00  0.00     0.036 H 
ATOM     80  N5  non d ame     -13.592  14.814  71.908  0.00  0.00    -0.049 N 
ATOM     81  H40 non d ame     -14.545  12.912  72.022  0.00  0.00     0.075 H 
ATOM     82  H41 non d ame     -13.061  13.175  73.159  0.00  0.00     0.075 H 
ATOM     83  C28 non d ame     -12.367  15.096  70.895  0.00  0.00     0.193 C 
ATOM     84  H42 non d ame     -14.459  14.988  71.420  0.00  0.00     0.280 HD
ATOM     85  H43 non d ame     -13.401  15.285  72.781  0.00  0.00     0.280 HD
ATOM     86  H44 non d ame     -11.449  15.564  71.252  0.00  0.00     0.129 H 
ATOM     87  H37 non d ame     -10.875  14.109  70.808  0.00  0.00     0.046 H 
BRANCH  83  88
ATOM     88  O6  non d ame     -12.807  15.903  69.801  0.00  0.00    -0.369 OA
ATOM     89  H45 non d ame     -13.532  16.463  70.088  0.00  0.00     0.212 HD
ENDBRANCH  83  88
ENDBRANCH  72  75
ENDBRANCH  47  72
ENDBRANCH  45  47
ENDBRANCH   1  43
BRANCH   1  90
ATOM     90  C16 non d ame      -9.723   9.598  70.174  0.00  0.00    -0.035 C 
ATOM     91  H21 non d ame      -8.856   8.938  70.146  0.00  0.00     0.037 H 
ATOM     92  H22 non d ame      -9.584  10.676  70.260  0.00  0.00     0.037 H 
BRANCH  90  93
ATOM     93  C17 non d ame     -10.570   9.162  71.412  0.00  0.00    -0.059 C 
ATOM     94  H23 non d ame     -10.893  10.067  71.926  0.00  0.00     0.038 H 
BRANCH  93  95
ATOM     95  C18 non d ame     -11.849   8.365  71.000  0.00  0.00    -0.073 C 
ATOM     96  H24 non d ame     -12.736   8.937  71.271  0.00  0.00     0.028 H 
ATOM     97  H25 non d ame     -11.840   8.196  69.923  0.00  0.00     0.028 H 
ATOM     98  H26 non d ame     -11.861   7.406  71.518  0.00  0.00     0.028 H 
ENDBRANCH  93  95
BRANCH  93  99
ATOM     99  C19 non d ame      -9.720   8.357  72.399  0.00  0.00    -0.073 C 
ATOM    100  H27 non d ame      -9.037   7.711  71.847  0.00  0.00     0.028 H 
ATOM    101  H28 non d ame      -9.147   9.041  73.026  0.00  0.00     0.028 H 
ATOM    102  H29 non d ame     -10.371   7.748  73.026  0.00  0.00     0.028 H 
ENDBRANCH  93  99
ENDBRANCH  90  93
ENDBRANCH   1  90
TORSDOF 26
ENDMDL
MODEL 20
REMARK VINA RESULT:      -5.9      2.990      8.909
REMARK  26 active torsions:
REMARK  status: ('A' for Active; 'I' for Inactive)
REMARK    1  A    between atoms: C2_2  and  C3_3 
REMARK    2  A    between atoms: C4_6  and  C5_7 
REMARK       I    between atoms: C5_7  and  N2_9 
REMARK    3  A    between atoms: N2_9  and  C6_10 
REMARK    4  A    between atoms: C6_10  and  C7_11 
REMARK    5  A    between atoms: C6_10  and  C8_13 
REMARK       I    between atoms: C7_11  and  N3_14 
REMARK    6  A    between atoms: N3_14  and  C9_15 
REMARK    7  A    between atoms: C9_15  and  C10_16 
REMARK    8  A    between atoms: C9_15  and  C11_18 
REMARK       I    between atoms: C10_16  and  N4_21 
REMARK    9  A    between atoms: C11_18  and  C12_19 
REMARK   10  A    between atoms: C11_18  and  C13_20 
REMARK   11  A    between atoms: N4_21  and  C14_22 
REMARK   12  A    between atoms: C14_22  and  C15_23 
REMARK   13  A    between atoms: C14_22  and  C16_25 
REMARK       I    between atoms: C15_23  and  N6_40 
REMARK   14  A    between atoms: C16_25  and  C17_26 
REMARK   15  A    between atoms: C17_26  and  C18_27 
REMARK   16  A    between atoms: C17_26  and  C19_28 
REMARK   17  A    between atoms: C20_29  and  C21_30 
REMARK   18  A    between atoms: C20_29  and  C24_33 
REMARK   19  A    between atoms: C20_29  and  N6_40 
REMARK   20  A    between atoms: C21_30  and  C22_31 
REMARK   21  A    between atoms: C22_31  and  C23_32 
REMARK   22  A    between atoms: C23_32  and  O8_43 
REMARK   23  A    between atoms: C24_33  and  C25_34 
REMARK   24  A    between atoms: C28_38  and  O6_39 
REMARK   25  A    between atoms: C29_42  and  O8_43 
REMARK   26  A    between atoms: C29_42  and  C35_49 
ROOT
ATOM      1  C14 non d ame      -8.777   6.161  65.919  0.00  0.00     0.089 C 
ATOM      2  H20 non d ame      -9.867   6.206  65.919  0.00  0.00     0.087 H 
ENDROOT
BRANCH   1   3
ATOM      3  N4  non d ame      -8.283   7.495  65.611  0.00  0.00    -0.346 N 
ATOM      4  C10 non d ame      -9.159   8.702  65.836  0.00  0.00     0.241 C 
ATOM      5  O4  non d ame     -10.259   8.575  66.264  0.00  0.00    -0.271 OA
ATOM      6  H19 non d ame      -7.346   7.582  65.245  0.00  0.00     0.163 HD
BRANCH   4   7
ATOM      7  C9  non d ame      -8.630  10.076  65.518  0.00  0.00     0.092 C 
ATOM      8  H11 non d ame      -8.268  10.091  64.489  0.00  0.00     0.088 H 
BRANCH   7   9
ATOM      9  N3  non d ame      -9.719  11.053  65.609  0.00  0.00    -0.346 N 
ATOM     10  C7  non d ame     -10.229  11.676  64.412  0.00  0.00     0.240 C 
ATOM     11  O3  non d ame      -9.774  11.404  63.368  0.00  0.00    -0.271 OA
ATOM     12  H10 non d ame     -10.120  11.299  66.502  0.00  0.00     0.163 HD
BRANCH  10  13
ATOM     13  C6  non d ame     -11.387  12.718  64.516  0.00  0.00     0.086 C 
ATOM     14  H6  non d ame     -12.078  12.500  65.329  0.00  0.00     0.086 H 
BRANCH  13  15
ATOM     15  N2  non d ame     -10.819  14.027  64.791  0.00  0.00    -0.343 N 
ATOM     16  C5  non d ame     -11.178  14.723  66.028  0.00  0.00     0.273 C 
ATOM     17  O2  non d ame     -11.927  14.223  66.794  0.00  0.00    -0.266 OA
ATOM     18  H5  non d ame     -10.182  14.449  64.129  0.00  0.00     0.163 HD
BRANCH  16  19
ATOM     19  C4  non d ame     -10.585  16.107  66.333  0.00  0.00     0.154 A 
ATOM     20  C1  non d ame     -10.496  16.749  67.609  0.00  0.00    -0.017 A 
ATOM     21  C2  non d ame      -9.875  17.991  67.350  0.00  0.00     0.077 A 
ATOM     22  H1  non d ame     -10.831  16.371  68.575  0.00  0.00     0.091 H 
ATOM     23  O1  non d ame      -9.638  18.046  66.072  0.00  0.00    -0.218 OA
ATOM     24  N1  non d ame     -10.043  16.959  65.457  0.00  0.00    -0.123 NA
BRANCH  21  25
ATOM     25  C3  non d ame      -9.545  19.065  68.377  0.00  0.00    -0.029 C 
ATOM     26  H2  non d ame     -10.469  19.469  68.791  0.00  0.00     0.036 H 
ATOM     27  H3  non d ame      -8.947  18.630  69.178  0.00  0.00     0.036 H 
ATOM     28  H4  non d ame      -8.981  19.866  67.897  0.00  0.00     0.036 H 
ENDBRANCH  21  25
ENDBRANCH  16  19
ENDBRANCH  13  15
BRANCH  13  29
ATOM     29  C8  non d ame     -12.155  12.750  63.219  0.00  0.00    -0.049 C 
ATOM     30  H7  non d ame     -11.459  12.852  62.386  0.00  0.00     0.030 H 
ATOM     31  H8  non d ame     -12.720  11.824  63.108  0.00  0.00     0.030 H 
ATOM     32  H9  non d ame     -12.841  13.597  63.224  0.00  0.00     0.030 H 
ENDBRANCH  13  29
ENDBRANCH  10  13
ENDBRANCH   7   9
BRANCH   7  33
ATOM     33  C11 non d ame      -7.514  10.451  66.536  0.00  0.00    -0.033 C 
ATOM     34  H12 non d ame      -7.432   9.632  67.251  0.00  0.00     0.042 H 
BRANCH  33  35
ATOM     35  C12 non d ame      -6.129  10.600  65.833  0.00  0.00    -0.071 C 
ATOM     36  H13 non d ame      -6.159  11.447  65.147  0.00  0.00     0.028 H 
ATOM     37  H14 non d ame      -5.357  10.768  66.583  0.00  0.00     0.028 H 
ATOM     38  H15 non d ame      -5.904   9.690  65.277  0.00  0.00     0.028 H 
ENDBRANCH  33  35
BRANCH  33  39
ATOM     39  C13 non d ame      -7.890  11.745  67.327  0.00  0.00    -0.071 C 
ATOM     40  H16 non d ame      -8.876  12.088  67.015  0.00  0.00     0.028 H 
ATOM     41  H17 non d ame      -7.902  11.528  68.395  0.00  0.00     0.028 H 
ATOM     42  H18 non d ame      -7.153  12.522  67.122  0.00  0.00     0.028 H 
ENDBRANCH  33  39
ENDBRANCH   7  33
ENDBRANCH   4   7
ENDBRANCH   1   3
BRANCH   1  43
ATOM     43  C15 non d ame      -8.206   5.728  67.300  0.00  0.00     0.240 C 
ATOM     44  O5  non d ame      -7.290   4.973  67.350  0.00  0.00    -0.271 OA
ATOM     45  N6  non d ame      -8.797   6.263  68.560  0.00  0.00    -0.355 N 
ATOM     46  H46 non d ame      -9.572   6.909  68.530  0.00  0.00     0.162 HD
BRANCH  45  47
ATOM     47  C20 non d ame      -8.242   5.843  69.865  0.00  0.00     0.013 C 
ATOM     48  H30 non d ame      -7.459   5.109  69.675  0.00  0.00     0.072 H 
BRANCH  47  49
ATOM     49  C21 non d ame      -9.340   5.222  70.698  0.00  0.00    -0.038 C 
ATOM     50  H31 non d ame      -9.351   4.165  70.432  0.00  0.00     0.036 H 
ATOM     51  H32 non d ame      -9.136   5.524  71.726  0.00  0.00     0.036 H 
BRANCH  49  52
ATOM     52  C22 non d ame     -10.740   5.773  70.351  0.00  0.00     0.018 C 
ATOM     53  H33 non d ame     -10.566   6.714  69.827  0.00  0.00     0.048 H 
ATOM     54  H34 non d ame     -11.262   4.959  69.849  0.00  0.00     0.048 H 
BRANCH  52  55
ATOM     55  C23 non d ame     -11.600   6.130  71.596  0.00  0.00     0.259 C 
ATOM     56  O7  non d ame     -11.624   5.407  72.539  0.00  0.00    -0.265 OA
BRANCH  55  57
ATOM     57  O8  non d ame     -12.370   7.326  71.592  0.00  0.00    -0.317 OA
BRANCH  57  58
ATOM     58  C29 non d ame     -11.718   8.439  72.209  0.00  0.00     0.052 C 
ATOM     59  H47 non d ame     -12.361   8.735  73.038  0.00  0.00     0.082 H 
ATOM     60  H48 non d ame     -10.696   8.114  72.402  0.00  0.00     0.082 H 
BRANCH  58  61
ATOM     61  C35 non d ame     -11.678   9.601  71.181  0.00  0.00    -0.034 A 
ATOM     62  C30 non d ame     -12.421  10.756  71.404  0.00  0.00    -0.075 A 
ATOM     63  C31 non d ame     -12.385  11.799  70.480  0.00  0.00    -0.082 A 
ATOM     64  H49 non d ame     -13.031  10.843  72.303  0.00  0.00     0.084 H 
ATOM     65  C32 non d ame     -11.603  11.683  69.327  0.00  0.00    -0.083 A 
ATOM     66  H50 non d ame     -12.966  12.703  70.659  0.00  0.00     0.083 H 
ATOM     67  C33 non d ame     -10.866  10.528  69.107  0.00  0.00    -0.082 A 
ATOM     68  H51 non d ame     -11.569  12.494  68.600  0.00  0.00     0.083 H 
ATOM     69  C34 non d ame     -10.898   9.483  70.029  0.00  0.00    -0.075 A 
ATOM     70  H52 non d ame     -10.259  10.440  68.205  0.00  0.00     0.083 H 
ATOM     71  H53 non d ame     -10.315   8.579  69.849  0.00  0.00     0.084 H 
ENDBRANCH  58  61
ENDBRANCH  57  58
ENDBRANCH  55  57
ENDBRANCH  52  55
ENDBRANCH  49  52
ENDBRANCH  47  49
BRANCH  47  72
ATOM     72  C24 non d ame      -7.669   7.054  70.597  0.00  0.00    -0.039 C 
ATOM     73  H35 non d ame      -8.475   7.414  71.237  0.00  0.00     0.036 H 
ATOM     74  H36 non d ame      -6.734   6.711  71.039  0.00  0.00     0.036 H 
BRANCH  72  75
ATOM     75  C25 non d ame      -7.305   8.241  69.584  0.00  0.00    -0.001 C 
ATOM     76  C26 non d ame      -5.801   8.005  68.962  0.00  0.00    -0.035 C 
ATOM     77  C27 non d ame      -5.080   9.140  69.124  0.00  0.00     0.085 C 
ATOM     78  H38 non d ame      -5.261   7.272  69.559  0.00  0.00     0.036 H 
ATOM     79  H39 non d ame      -5.858   7.892  67.879  0.00  0.00     0.036 H 
ATOM     80  N5  non d ame      -5.843  10.015  70.089  0.00  0.00    -0.049 N 
ATOM     81  H40 non d ame      -4.145   8.827  69.590  0.00  0.00     0.075 H 
ATOM     82  H41 non d ame      -5.067   9.619  68.145  0.00  0.00     0.075 H 
ATOM     83  C28 non d ame      -7.327   9.387  70.179  0.00  0.00     0.193 C 
ATOM     84  H42 non d ame      -5.393   9.910  70.987  0.00  0.00     0.280 HD
ATOM     85  H43 non d ame      -5.906  10.927  69.660  0.00  0.00     0.280 HD
ATOM     86  H44 non d ame      -8.162   9.862  69.664  0.00  0.00     0.129 H 
ATOM     87  H37 non d ame      -8.110   8.440  68.875  0.00  0.00     0.046 H 
BRANCH  83  88
ATOM     88  O6  non d ame      -7.733   9.277  71.544  0.00  0.00    -0.369 OA
ATOM     89  H45 non d ame      -7.880  10.154  71.906  0.00  0.00     0.212 HD
ENDBRANCH  83  88
ENDBRANCH  72  75
ENDBRANCH  47  72
ENDBRANCH  45  47
ENDBRANCH   1  43
BRANCH   1  90
ATOM     90  C16 non d ame      -8.302   5.196  64.844  0.00  0.00    -0.035 C 
ATOM     91  H21 non d ame      -7.494   4.627  65.304  0.00  0.00     0.037 H 
ATOM     92  H22 non d ame      -9.201   4.685  64.498  0.00  0.00     0.037 H 
BRANCH  90  93
ATOM     93  C17 non d ame      -7.688   5.903  63.594  0.00  0.00    -0.059 C 
ATOM     94  H23 non d ame      -7.996   6.949  63.621  0.00  0.00     0.038 H 
BRANCH  93  95
ATOM     95  C18 non d ame      -6.126   5.866  63.604  0.00  0.00    -0.073 C 
ATOM     96  H24 non d ame      -5.788   4.956  64.099  0.00  0.00     0.028 H 
ATOM     97  H25 non d ame      -5.757   5.881  62.578  0.00  0.00     0.028 H 
ATOM     98  H26 non d ame      -5.746   6.735  64.140  0.00  0.00     0.028 H 
ENDBRANCH  93  95
BRANCH  93  99
ATOM     99  C19 non d ame      -8.240   5.301  62.299  0.00  0.00    -0.073 C 
ATOM    100  H27 non d ame      -9.296   5.552  62.202  0.00  0.00     0.028 H 
ATOM    101  H28 non d ame      -7.690   5.704  61.448  0.00  0.00     0.028 H 
ATOM    102  H29 non d ame      -8.125   4.217  62.325  0.00  0.00     0.028 H 
ENDBRANCH  93  99
ENDBRANCH  90  93
ENDBRANCH   1  90
TORSDOF 26
ENDMDL
