MODEL 1
REMARK VINA RESULT:      -7.0      0.000      0.000
REMARK  26 active torsions:
REMARK  status: ('A' for Active; 'I' for Inactive)
REMARK    1  A    between atoms: C2_2  and  C3_3 
REMARK    2  A    between atoms: C4_6  and  C5_7 
REMARK       I    between atoms: C5_7  and  N2_9 
REMARK    3  A    between atoms: N2_9  and  C6_10 
REMARK    4  A    between atoms: C6_10  and  C7_11 
REMARK    5  A    between atoms: C6_10  and  C8_13 
REMARK       I    between atoms: C7_11  and  N3_14 
REMARK    6  A    between atoms: N3_14  and  C9_15 
REMARK    7  A    between atoms: C9_15  and  C10_16 
REMARK    8  A    between atoms: C9_15  and  C11_18 
REMARK       I    between atoms: C10_16  and  N4_21 
REMARK    9  A    between atoms: C11_18  and  C12_19 
REMARK   10  A    between atoms: C11_18  and  C13_20 
REMARK   11  A    between atoms: N4_21  and  C14_22 
REMARK   12  A    between atoms: C14_22  and  C15_23 
REMARK   13  A    between atoms: C14_22  and  C16_25 
REMARK       I    between atoms: C15_23  and  N6_40 
REMARK   14  A    between atoms: C16_25  and  C17_26 
REMARK   15  A    between atoms: C17_26  and  C18_27 
REMARK   16  A    between atoms: C17_26  and  C19_28 
REMARK   17  A    between atoms: C20_29  and  C21_30 
REMARK   18  A    between atoms: C20_29  and  C24_33 
REMARK   19  A    between atoms: C20_29  and  N6_40 
REMARK   20  A    between atoms: C21_30  and  C22_31 
REMARK   21  A    between atoms: C22_31  and  C23_32 
REMARK   22  A    between atoms: C23_32  and  O8_43 
REMARK   23  A    between atoms: C24_33  and  C25_34 
REMARK   24  A    between atoms: C28_38  and  O6_39 
REMARK   25  A    between atoms: C29_42  and  O8_43 
REMARK   26  A    between atoms: C29_42  and  C35_49 
ROOT
ATOM      1  C14 non d ame      -6.637  15.809  67.662  0.00  0.00     0.089 C 
ATOM      2  H20 non d ame      -6.035  16.306  66.900  0.00  0.00     0.087 H 
ENDROOT
BRANCH   1   3
ATOM      3  N4  non d ame      -8.036  16.008  67.314  0.00  0.00    -0.346 N 
ATOM      4  C10 non d ame      -8.445  17.163  66.435  0.00  0.00     0.241 C 
ATOM      5  O4  non d ame      -7.631  17.920  66.021  0.00  0.00    -0.271 OA
ATOM      6  H19 non d ame      -8.714  15.353  67.678  0.00  0.00     0.163 HD
BRANCH   4   7
ATOM      7  C9  non d ame      -9.897  17.350  66.080  0.00  0.00     0.092 C 
ATOM      8  H11 non d ame      -9.968  17.892  65.137  0.00  0.00     0.088 H 
BRANCH   7   9
ATOM      9  N3  non d ame     -10.524  16.041  65.877  0.00  0.00    -0.346 N 
ATOM     10  C7  non d ame     -11.324  15.800  64.701  0.00  0.00     0.240 C 
ATOM     11  O3  non d ame     -11.474  16.648  63.909  0.00  0.00    -0.271 OA
ATOM     12  H10 non d ame     -10.405  15.299  66.552  0.00  0.00     0.163 HD
BRANCH  10  13
ATOM     13  C6  non d ame     -11.991  14.405  64.491  0.00  0.00     0.086 C 
ATOM     14  H6  non d ame     -12.631  14.372  63.610  0.00  0.00     0.086 H 
BRANCH  13  15
ATOM     15  N2  non d ame     -10.951  13.411  64.287  0.00  0.00    -0.343 N 
ATOM     16  C5  non d ame     -11.277  12.154  63.609  0.00  0.00     0.273 C 
ATOM     17  O2  non d ame     -12.380  11.952  63.235  0.00  0.00    -0.266 OA
ATOM     18  H5  non d ame     -10.012  13.591  64.613  0.00  0.00     0.163 HD
BRANCH  16  19
ATOM     19  C4  non d ame     -10.187  11.094  63.385  0.00  0.00     0.154 A 
ATOM     20  C1  non d ame      -9.796  10.053  64.285  0.00  0.00    -0.017 A 
ATOM     21  C2  non d ame      -8.765   9.360  63.613  0.00  0.00     0.077 A 
ATOM     22  H1  non d ame     -10.199   9.833  65.274  0.00  0.00     0.091 H 
ATOM     23  O1  non d ame      -8.592   9.943  62.463  0.00  0.00    -0.218 OA
ATOM     24  N1  non d ame      -9.411  10.958  62.307  0.00  0.00    -0.123 NA
BRANCH  21  25
ATOM     25  C3  non d ame      -7.998   8.153  64.138  0.00  0.00    -0.029 C 
ATOM     26  H2  non d ame      -8.649   7.560  64.780  0.00  0.00     0.036 H 
ATOM     27  H3  non d ame      -7.661   7.544  63.300  0.00  0.00     0.036 H 
ATOM     28  H4  non d ame      -7.134   8.493  64.711  0.00  0.00     0.036 H 
ENDBRANCH  21  25
ENDBRANCH  16  19
ENDBRANCH  13  15
BRANCH  13  29
ATOM     29  C8  non d ame     -12.813  14.051  65.704  0.00  0.00    -0.049 C 
ATOM     30  H7  non d ame     -13.340  13.114  65.526  0.00  0.00     0.030 H 
ATOM     31  H8  non d ame     -12.158  13.941  66.568  0.00  0.00     0.030 H 
ATOM     32  H9  non d ame     -13.537  14.843  65.896  0.00  0.00     0.030 H 
ENDBRANCH  13  29
ENDBRANCH  10  13
ENDBRANCH   7   9
BRANCH   7  33
ATOM     33  C11 non d ame     -10.622  18.095  67.239  0.00  0.00    -0.033 C 
ATOM     34  H12 non d ame     -11.691  17.915  67.128  0.00  0.00     0.042 H 
BRANCH  33  35
ATOM     35  C12 non d ame     -10.194  17.534  68.631  0.00  0.00    -0.071 C 
ATOM     36  H13 non d ame      -9.224  17.948  68.907  0.00  0.00     0.028 H 
ATOM     37  H14 non d ame     -10.934  17.815  69.379  0.00  0.00     0.028 H 
ATOM     38  H15 non d ame     -10.124  16.448  68.578  0.00  0.00     0.028 H 
ENDBRANCH  33  35
BRANCH  33  39
ATOM     39  C13 non d ame     -10.380  19.636  67.151  0.00  0.00    -0.071 C 
ATOM     40  H16 non d ame      -9.830  19.866  66.240  0.00  0.00     0.028 H 
ATOM     41  H17 non d ame     -11.340  20.154  67.137  0.00  0.00     0.028 H 
ATOM     42  H18 non d ame      -9.804  19.963  68.017  0.00  0.00     0.028 H 
ENDBRANCH  33  39
ENDBRANCH   7  33
ENDBRANCH   4   7
ENDBRANCH   1   3
BRANCH   1  43
ATOM     43  C15 non d ame      -6.356  14.280  67.727  0.00  0.00     0.240 C 
ATOM     44  O5  non d ame      -5.287  13.862  67.418  0.00  0.00    -0.271 OA
ATOM     45  N6  non d ame      -7.416  13.338  68.184  0.00  0.00    -0.355 N 
ATOM     46  H46 non d ame      -8.327  13.681  68.453  0.00  0.00     0.162 HD
BRANCH  45  47
ATOM     47  C20 non d ame      -7.133  11.887  68.241  0.00  0.00     0.013 C 
ATOM     48  H30 non d ame      -6.261  11.691  67.617  0.00  0.00     0.072 H 
BRANCH  47  49
ATOM     49  C21 non d ame      -8.327  11.123  67.717  0.00  0.00    -0.038 C 
ATOM     50  H31 non d ame      -8.721  11.720  66.894  0.00  0.00     0.036 H 
ATOM     51  H32 non d ame      -7.971  10.109  67.534  0.00  0.00     0.036 H 
BRANCH  49  52
ATOM     52  C22 non d ame      -9.466  11.005  68.754  0.00  0.00     0.018 C 
ATOM     53  H33 non d ame      -9.327  10.037  69.236  0.00  0.00     0.048 H 
ATOM     54  H34 non d ame      -9.422  11.920  69.345  0.00  0.00     0.048 H 
BRANCH  52  55
ATOM     55  C23 non d ame     -10.886  10.971  68.123  0.00  0.00     0.259 C 
ATOM     56  O7  non d ame     -11.228  10.048  67.457  0.00  0.00    -0.265 OA
BRANCH  55  57
ATOM     57  O8  non d ame     -11.771  12.062  68.341  0.00  0.00    -0.317 OA
BRANCH  57  58
ATOM     58  C29 non d ame     -11.167  13.181  68.996  0.00  0.00     0.052 C 
ATOM     59  H47 non d ame     -10.246  12.801  69.438  0.00  0.00     0.082 H 
ATOM     60  H48 non d ame     -11.126  13.974  68.249  0.00  0.00     0.082 H 
BRANCH  58  61
ATOM     61  C35 non d ame     -12.111  13.634  70.141  0.00  0.00    -0.034 A 
ATOM     62  C30 non d ame     -12.485  14.970  70.248  0.00  0.00    -0.075 A 
ATOM     63  C31 non d ame     -13.334  15.377  71.277  0.00  0.00    -0.082 A 
ATOM     64  H49 non d ame     -12.114  15.697  69.527  0.00  0.00     0.084 H 
ATOM     65  C32 non d ame     -13.807  14.442  72.202  0.00  0.00    -0.083 A 
ATOM     66  H50 non d ame     -13.627  16.424  71.357  0.00  0.00     0.083 H 
ATOM     67  C33 non d ame     -13.429  13.111  72.092  0.00  0.00    -0.082 A 
ATOM     68  H51 non d ame     -14.471  14.752  73.009  0.00  0.00     0.083 H 
ATOM     69  C34 non d ame     -12.583  12.699  71.065  0.00  0.00    -0.075 A 
ATOM     70  H52 non d ame     -13.798  12.385  72.817  0.00  0.00     0.083 H 
ATOM     71  H53 non d ame     -12.291  11.652  70.985  0.00  0.00     0.084 H 
ENDBRANCH  58  61
ENDBRANCH  57  58
ENDBRANCH  55  57
ENDBRANCH  52  55
ENDBRANCH  49  52
ENDBRANCH  47  49
BRANCH  47  72
ATOM     72  C24 non d ame      -6.855  11.472  69.685  0.00  0.00    -0.039 C 
ATOM     73  H35 non d ame      -7.378  12.204  70.302  0.00  0.00     0.036 H 
ATOM     74  H36 non d ame      -7.128  10.418  69.741  0.00  0.00     0.036 H 
BRANCH  72  75
ATOM     75  C25 non d ame      -5.298  11.578  70.043  0.00  0.00    -0.001 C 
ATOM     76  C26 non d ame      -4.789  10.181  70.746  0.00  0.00    -0.035 C 
ATOM     77  C27 non d ame      -4.147  10.483  71.900  0.00  0.00     0.085 C 
ATOM     78  H38 non d ame      -5.646   9.596  71.077  0.00  0.00     0.036 H 
ATOM     79  H39 non d ame      -4.013   9.717  70.137  0.00  0.00     0.036 H 
ATOM     80  N5  non d ame      -4.455  11.927  72.213  0.00  0.00    -0.049 N 
ATOM     81  H40 non d ame      -4.603   9.849  72.662  0.00  0.00     0.075 H 
ATOM     82  H41 non d ame      -3.085  10.387  71.676  0.00  0.00     0.075 H 
ATOM     83  C28 non d ame      -5.070  12.553  70.858  0.00  0.00     0.193 C 
ATOM     84  H42 non d ame      -5.177  11.919  72.920  0.00  0.00     0.280 HD
ATOM     85  H43 non d ame      -3.570  12.375  72.401  0.00  0.00     0.280 HD
ATOM     86  H44 non d ame      -4.467  13.204  70.225  0.00  0.00     0.129 H 
ATOM     87  H37 non d ame      -4.707  11.957  69.209  0.00  0.00     0.046 H 
BRANCH  83  88
ATOM     88  O6  non d ame      -6.254  13.297  71.152  0.00  0.00    -0.369 OA
ATOM     89  H45 non d ame      -6.053  14.235  71.139  0.00  0.00     0.212 HD
ENDBRANCH  83  88
ENDBRANCH  72  75
ENDBRANCH  47  72
ENDBRANCH  45  47
ENDBRANCH   1  43
BRANCH   1  90
ATOM     90  C16 non d ame      -6.369  16.436  69.020  0.00  0.00    -0.035 C 
ATOM     91  H21 non d ame      -7.353  16.601  69.461  0.00  0.00     0.037 H 
ATOM     92  H22 non d ame      -5.657  15.771  69.510  0.00  0.00     0.037 H 
BRANCH  90  93
ATOM     93  C17 non d ame      -5.682  17.836  68.940  0.00  0.00    -0.059 C 
ATOM     94  H23 non d ame      -5.312  17.965  67.923  0.00  0.00     0.038 H 
BRANCH  93  95
ATOM     95  C18 non d ame      -6.682  19.001  69.234  0.00  0.00    -0.073 C 
ATOM     96  H24 non d ame      -6.152  19.818  69.723  0.00  0.00     0.028 H 
ATOM     97  H25 non d ame      -7.112  19.355  68.297  0.00  0.00     0.028 H 
ATOM     98  H26 non d ame      -7.477  18.640  69.886  0.00  0.00     0.028 H 
ENDBRANCH  93  95
BRANCH  93  99
ATOM     99  C19 non d ame      -4.473  17.907  69.876  0.00  0.00    -0.073 C 
ATOM    100  H27 non d ame      -4.722  18.514  70.746  0.00  0.00     0.028 H 
ATOM    101  H28 non d ame      -4.205  16.900  70.199  0.00  0.00     0.028 H 
ATOM    102  H29 non d ame      -3.631  18.355  69.348  0.00  0.00     0.028 H 
ENDBRANCH  93  99
ENDBRANCH  90  93
ENDBRANCH   1  90
TORSDOF 26
ENDMDL
MODEL 2
REMARK VINA RESULT:      -6.7      2.901      7.961
REMARK  26 active torsions:
REMARK  status: ('A' for Active; 'I' for Inactive)
REMARK    1  A    between atoms: C2_2  and  C3_3 
REMARK    2  A    between atoms: C4_6  and  C5_7 
REMARK       I    between atoms: C5_7  and  N2_9 
REMARK    3  A    between atoms: N2_9  and  C6_10 
REMARK    4  A    between atoms: C6_10  and  C7_11 
REMARK    5  A    between atoms: C6_10  and  C8_13 
REMARK       I    between atoms: C7_11  and  N3_14 
REMARK    6  A    between atoms: N3_14  and  C9_15 
REMARK    7  A    between atoms: C9_15  and  C10_16 
REMARK    8  A    between atoms: C9_15  and  C11_18 
REMARK       I    between atoms: C10_16  and  N4_21 
REMARK    9  A    between atoms: C11_18  and  C12_19 
REMARK   10  A    between atoms: C11_18  and  C13_20 
REMARK   11  A    between atoms: N4_21  and  C14_22 
REMARK   12  A    between atoms: C14_22  and  C15_23 
REMARK   13  A    between atoms: C14_22  and  C16_25 
REMARK       I    between atoms: C15_23  and  N6_40 
REMARK   14  A    between atoms: C16_25  and  C17_26 
REMARK   15  A    between atoms: C17_26  and  C18_27 
REMARK   16  A    between atoms: C17_26  and  C19_28 
REMARK   17  A    between atoms: C20_29  and  C21_30 
REMARK   18  A    between atoms: C20_29  and  C24_33 
REMARK   19  A    between atoms: C20_29  and  N6_40 
REMARK   20  A    between atoms: C21_30  and  C22_31 
REMARK   21  A    between atoms: C22_31  and  C23_32 
REMARK   22  A    between atoms: C23_32  and  O8_43 
REMARK   23  A    between atoms: C24_33  and  C25_34 
REMARK   24  A    between atoms: C28_38  and  O6_39 
REMARK   25  A    between atoms: C29_42  and  O8_43 
REMARK   26  A    between atoms: C29_42  and  C35_49 
ROOT
ATOM      1  C14 non d ame     -10.803   9.548  69.435  0.00  0.00     0.089 C 
ATOM      2  H20 non d ame     -11.352   8.729  68.970  0.00  0.00     0.087 H 
ENDROOT
BRANCH   1   3
ATOM      3  N4  non d ame      -9.446   9.519  68.911  0.00  0.00    -0.346 N 
ATOM      4  C10 non d ame      -8.786   8.205  68.577  0.00  0.00     0.241 C 
ATOM      5  O4  non d ame      -9.366   7.183  68.743  0.00  0.00    -0.271 OA
ATOM      6  H19 non d ame      -8.969  10.400  68.779  0.00  0.00     0.163 HD
BRANCH   4   7
ATOM      7  C9  non d ame      -7.383   8.195  68.030  0.00  0.00     0.092 C 
ATOM      8  H11 non d ame      -7.168   7.210  67.613  0.00  0.00     0.088 H 
BRANCH   7   9
ATOM      9  N3  non d ame      -7.278   9.161  66.933  0.00  0.00    -0.346 N 
ATOM     10  C7  non d ame      -7.097   8.698  65.579  0.00  0.00     0.240 C 
ATOM     11  O3  non d ame      -7.031   7.551  65.355  0.00  0.00    -0.271 OA
ATOM     12  H10 non d ame      -7.332  10.154  67.111  0.00  0.00     0.163 HD
BRANCH  10  13
ATOM     13  C6  non d ame      -6.983   9.732  64.416  0.00  0.00     0.086 C 
ATOM     14  H6  non d ame      -7.079   9.272  63.432  0.00  0.00     0.086 H 
BRANCH  13  15
ATOM     15  N2  non d ame      -8.067  10.693  64.533  0.00  0.00    -0.343 N 
ATOM     16  C5  non d ame      -9.247  10.558  63.676  0.00  0.00     0.273 C 
ATOM     17  O2  non d ame      -9.314   9.673  62.895  0.00  0.00    -0.266 OA
ATOM     18  H5  non d ame      -8.000  11.448  65.201  0.00  0.00     0.163 HD
BRANCH  16  19
ATOM     19  C4  non d ame     -10.401  11.566  63.790  0.00  0.00     0.154 A 
ATOM     20  C1  non d ame     -10.356  12.869  64.380  0.00  0.00    -0.017 A 
ATOM     21  C2  non d ame     -11.663  13.382  64.230  0.00  0.00     0.077 A 
ATOM     22  H1  non d ame      -9.504  13.366  64.846  0.00  0.00     0.091 H 
ATOM     23  O1  non d ame     -12.369  12.473  63.623  0.00  0.00    -0.218 OA
ATOM     24  N1  non d ame     -11.654  11.404  63.356  0.00  0.00    -0.123 NA
BRANCH  21  25
ATOM     25  C3  non d ame     -12.155  14.747  64.693  0.00  0.00    -0.029 C 
ATOM     26  H2  non d ame     -11.594  15.056  65.575  0.00  0.00     0.036 H 
ATOM     27  H3  non d ame     -12.008  15.476  63.895  0.00  0.00     0.036 H 
ATOM     28  H4  non d ame     -13.216  14.688  64.938  0.00  0.00     0.036 H 
ENDBRANCH  21  25
ENDBRANCH  16  19
ENDBRANCH  13  15
BRANCH  13  29
ATOM     29  C8  non d ame      -5.654  10.439  64.496  0.00  0.00    -0.049 C 
ATOM     30  H7  non d ame      -5.014  10.102  63.681  0.00  0.00     0.030 H 
ATOM     31  H8  non d ame      -5.810  11.515  64.416  0.00  0.00     0.030 H 
ATOM     32  H9  non d ame      -5.178  10.210  65.449  0.00  0.00     0.030 H 
ENDBRANCH  13  29
ENDBRANCH  10  13
ENDBRANCH   7   9
BRANCH   7  33
ATOM     33  C11 non d ame      -6.383   8.584  69.158  0.00  0.00    -0.033 C 
ATOM     34  H12 non d ame      -6.901   8.471  70.110  0.00  0.00     0.042 H 
BRANCH  33  35
ATOM     35  C12 non d ame      -5.148   7.630  69.178  0.00  0.00    -0.071 C 
ATOM     36  H13 non d ame      -4.957   7.305  70.201  0.00  0.00     0.028 H 
ATOM     37  H14 non d ame      -5.352   6.760  68.554  0.00  0.00     0.028 H 
ATOM     38  H15 non d ame      -4.276   8.156  68.794  0.00  0.00     0.028 H 
ENDBRANCH  33  35
BRANCH  33  39
ATOM     39  C13 non d ame      -5.942  10.077  69.023  0.00  0.00    -0.071 C 
ATOM     40  H16 non d ame      -5.006  10.230  69.559  0.00  0.00     0.028 H 
ATOM     41  H17 non d ame      -5.800  10.321  67.969  0.00  0.00     0.028 H 
ATOM     42  H18 non d ame      -6.712  10.723  69.444  0.00  0.00     0.028 H 
ENDBRANCH  33  39
ENDBRANCH   7  33
ENDBRANCH   4   7
ENDBRANCH   1   3
BRANCH   1  43
ATOM     43  C15 non d ame     -11.430  10.934  69.111  0.00  0.00     0.240 C 
ATOM     44  O5  non d ame     -11.937  11.121  68.053  0.00  0.00    -0.271 OA
ATOM     45  N6  non d ame     -11.406  12.027  70.125  0.00  0.00    -0.355 N 
ATOM     46  H46 non d ame     -10.983  11.879  71.030  0.00  0.00     0.162 HD
BRANCH  45  47
ATOM     47  C20 non d ame     -12.008  13.339  69.802  0.00  0.00     0.013 C 
ATOM     48  H30 non d ame     -12.528  13.244  68.849  0.00  0.00     0.072 H 
BRANCH  47  49
ATOM     49  C21 non d ame     -10.915  14.377  69.694  0.00  0.00    -0.038 C 
ATOM     50  H31 non d ame     -11.308  15.271  70.179  0.00  0.00     0.036 H 
ATOM     51  H32 non d ame     -10.015  13.898  70.080  0.00  0.00     0.036 H 
BRANCH  49  52
ATOM     52  C22 non d ame     -10.606  14.773  68.233  0.00  0.00     0.018 C 
ATOM     53  H33 non d ame      -9.540  14.591  68.097  0.00  0.00     0.048 H 
ATOM     54  H34 non d ame     -11.333  14.236  67.622  0.00  0.00     0.048 H 
BRANCH  52  55
ATOM     55  C23 non d ame     -10.825  16.281  67.933  0.00  0.00     0.259 C 
ATOM     56  O7  non d ame     -11.590  16.920  68.581  0.00  0.00    -0.265 OA
BRANCH  55  57
ATOM     57  O8  non d ame     -10.110  16.890  66.865  0.00  0.00    -0.317 OA
BRANCH  57  58
ATOM     58  C29 non d ame     -10.292  18.306  66.775  0.00  0.00     0.052 C 
ATOM     59  H47 non d ame     -10.470  18.514  65.720  0.00  0.00     0.082 H 
ATOM     60  H48 non d ame     -11.053  18.554  67.515  0.00  0.00     0.082 H 
BRANCH  58  61
ATOM     61  C35 non d ame      -8.962  18.988  67.192  0.00  0.00    -0.034 A 
ATOM     62  C30 non d ame      -8.204  19.673  66.248  0.00  0.00    -0.075 A 
ATOM     63  C31 non d ame      -7.009  20.285  66.623  0.00  0.00    -0.082 A 
ATOM     64  H49 non d ame      -8.547  19.731  65.215  0.00  0.00     0.084 H 
ATOM     65  C32 non d ame      -6.571  20.208  67.948  0.00  0.00    -0.083 A 
ATOM     66  H50 non d ame      -6.418  20.823  65.881  0.00  0.00     0.083 H 
ATOM     67  C33 non d ame      -7.329  19.520  68.886  0.00  0.00    -0.082 A 
ATOM     68  H51 non d ame      -5.638  20.684  68.249  0.00  0.00     0.083 H 
ATOM     69  C34 non d ame      -8.525  18.909  68.516  0.00  0.00    -0.075 A 
ATOM     70  H52 non d ame      -6.983  19.460  69.918  0.00  0.00     0.083 H 
ATOM     71  H53 non d ame      -9.115  18.371  69.259  0.00  0.00     0.084 H 
ENDBRANCH  58  61
ENDBRANCH  57  58
ENDBRANCH  55  57
ENDBRANCH  52  55
ENDBRANCH  49  52
ENDBRANCH  47  49
BRANCH  47  72
ATOM     72  C24 non d ame     -12.987  13.743  70.903  0.00  0.00    -0.039 C 
ATOM     73  H35 non d ame     -13.927  13.954  70.391  0.00  0.00     0.036 H 
ATOM     74  H36 non d ame     -12.937  12.944  71.643  0.00  0.00     0.036 H 
BRANCH  72  75
ATOM     75  C25 non d ame     -12.533  15.094  71.633  0.00  0.00    -0.001 C 
ATOM     76  C26 non d ame     -11.893  14.746  73.107  0.00  0.00    -0.035 C 
ATOM     77  C27 non d ame     -12.502  15.515  74.041  0.00  0.00     0.085 C 
ATOM     78  H38 non d ame     -12.159  13.731  73.400  0.00  0.00     0.036 H 
ATOM     79  H39 non d ame     -10.853  15.070  73.149  0.00  0.00     0.036 H 
ATOM     80  N5  non d ame     -13.723  16.118  73.388  0.00  0.00    -0.049 N 
ATOM     81  H40 non d ame     -12.821  14.826  74.823  0.00  0.00     0.075 H 
ATOM     82  H41 non d ame     -11.793  16.310  74.271  0.00  0.00     0.075 H 
ATOM     83  C28 non d ame     -13.533  15.894  71.801  0.00  0.00     0.193 C 
ATOM     84  H42 non d ame     -14.513  15.570  73.698  0.00  0.00     0.280 HD
ATOM     85  H43 non d ame     -13.689  17.109  73.579  0.00  0.00     0.280 HD
ATOM     86  H44 non d ame     -13.235  16.721  71.156  0.00  0.00     0.129 H 
ATOM     87  H37 non d ame     -11.949  15.741  70.979  0.00  0.00     0.046 H 
BRANCH  83  88
ATOM     88  O6  non d ame     -14.737  15.379  71.229  0.00  0.00    -0.369 OA
ATOM     89  H45 non d ame     -14.614  14.454  71.004  0.00  0.00     0.212 HD
ENDBRANCH  83  88
ENDBRANCH  72  75
ENDBRANCH  47  72
ENDBRANCH  45  47
ENDBRANCH   1  43
BRANCH   1  90
ATOM     90  C16 non d ame     -10.757   9.347  70.942  0.00  0.00    -0.035 C 
ATOM     91  H21 non d ame      -9.815   8.833  71.136  0.00  0.00     0.037 H 
ATOM     92  H22 non d ame     -10.936  10.334  71.370  0.00  0.00     0.037 H 
BRANCH  90  93
ATOM     93  C17 non d ame     -11.888   8.417  71.485  0.00  0.00    -0.059 C 
ATOM     94  H23 non d ame     -12.277   7.844  70.644  0.00  0.00     0.038 H 
BRANCH  93  95
ATOM     95  C18 non d ame     -11.357   7.404  72.549  0.00  0.00    -0.073 C 
ATOM     96  H24 non d ame     -12.011   6.533  72.578  0.00  0.00     0.028 H 
ATOM     97  H25 non d ame     -10.348   7.091  72.281  0.00  0.00     0.028 H 
ATOM     98  H26 non d ame     -11.342   7.881  73.529  0.00  0.00     0.028 H 
ENDBRANCH  93  95
BRANCH  93  99
ATOM     99  C19 non d ame     -13.049   9.241  72.049  0.00  0.00    -0.073 C 
ATOM    100  H27 non d ame     -13.872   8.576  72.311  0.00  0.00     0.028 H 
ATOM    101  H28 non d ame     -12.716   9.776  72.939  0.00  0.00     0.028 H 
ATOM    102  H29 non d ame     -13.384   9.958  71.299  0.00  0.00     0.028 H 
ENDBRANCH  93  99
ENDBRANCH  90  93
ENDBRANCH   1  90
TORSDOF 26
ENDMDL
MODEL 3
REMARK VINA RESULT:      -6.7      2.679      8.575
REMARK  26 active torsions:
REMARK  status: ('A' for Active; 'I' for Inactive)
REMARK    1  A    between atoms: C2_2  and  C3_3 
REMARK    2  A    between atoms: C4_6  and  C5_7 
REMARK       I    between atoms: C5_7  and  N2_9 
REMARK    3  A    between atoms: N2_9  and  C6_10 
REMARK    4  A    between atoms: C6_10  and  C7_11 
REMARK    5  A    between atoms: C6_10  and  C8_13 
REMARK       I    between atoms: C7_11  and  N3_14 
REMARK    6  A    between atoms: N3_14  and  C9_15 
REMARK    7  A    between atoms: C9_15  and  C10_16 
REMARK    8  A    between atoms: C9_15  and  C11_18 
REMARK       I    between atoms: C10_16  and  N4_21 
REMARK    9  A    between atoms: C11_18  and  C12_19 
REMARK   10  A    between atoms: C11_18  and  C13_20 
REMARK   11  A    between atoms: N4_21  and  C14_22 
REMARK   12  A    between atoms: C14_22  and  C15_23 
REMARK   13  A    between atoms: C14_22  and  C16_25 
REMARK       I    between atoms: C15_23  and  N6_40 
REMARK   14  A    between atoms: C16_25  and  C17_26 
REMARK   15  A    between atoms: C17_26  and  C18_27 
REMARK   16  A    between atoms: C17_26  and  C19_28 
REMARK   17  A    between atoms: C20_29  and  C21_30 
REMARK   18  A    between atoms: C20_29  and  C24_33 
REMARK   19  A    between atoms: C20_29  and  N6_40 
REMARK   20  A    between atoms: C21_30  and  C22_31 
REMARK   21  A    between atoms: C22_31  and  C23_32 
REMARK   22  A    between atoms: C23_32  and  O8_43 
REMARK   23  A    between atoms: C24_33  and  C25_34 
REMARK   24  A    between atoms: C28_38  and  O6_39 
REMARK   25  A    between atoms: C29_42  and  O8_43 
REMARK   26  A    between atoms: C29_42  and  C35_49 
ROOT
ATOM      1  C14 non d ame     -10.513   9.247  70.146  0.00  0.00     0.089 C 
ATOM      2  H20 non d ame     -10.877   8.353  69.639  0.00  0.00     0.087 H 
ENDROOT
BRANCH   1   3
ATOM      3  N4  non d ame      -9.182   9.532  69.630  0.00  0.00    -0.346 N 
ATOM      4  C10 non d ame      -8.711   8.896  68.346  0.00  0.00     0.241 C 
ATOM      5  O4  non d ame      -9.420   8.157  67.747  0.00  0.00    -0.271 OA
ATOM      6  H19 non d ame      -8.593  10.162  70.156  0.00  0.00     0.163 HD
BRANCH   4   7
ATOM      7  C9  non d ame      -7.333   9.207  67.824  0.00  0.00     0.092 C 
ATOM      8  H11 non d ame      -7.344   9.164  66.735  0.00  0.00     0.088 H 
BRANCH   7   9
ATOM      9  N3  non d ame      -6.964  10.575  68.200  0.00  0.00    -0.346 N 
ATOM     10  C7  non d ame      -6.750  11.570  67.178  0.00  0.00     0.240 C 
ATOM     11  O3  non d ame      -6.869  11.287  66.049  0.00  0.00    -0.271 OA
ATOM     12  H10 non d ame      -6.856  10.834  69.170  0.00  0.00     0.163 HD
BRANCH  10  13
ATOM     13  C6  non d ame      -6.354  13.024  67.584  0.00  0.00     0.086 C 
ATOM     14  H6  non d ame      -5.493  13.397  67.030  0.00  0.00     0.086 H 
BRANCH  13  15
ATOM     15  N2  non d ame      -7.461  13.915  67.283  0.00  0.00    -0.343 N 
ATOM     16  C5  non d ame      -7.199  15.337  67.048  0.00  0.00     0.273 C 
ATOM     17  O2  non d ame      -6.095  15.754  67.108  0.00  0.00    -0.266 OA
ATOM     18  H5  non d ame      -8.403  13.551  67.236  0.00  0.00     0.163 HD
BRANCH  16  19
ATOM     19  C4  non d ame      -8.360  16.291  66.727  0.00  0.00     0.154 A 
ATOM     20  C1  non d ame      -8.800  17.410  67.502  0.00  0.00    -0.017 A 
ATOM     21  C2  non d ame      -9.888  17.949  66.779  0.00  0.00     0.077 A 
ATOM     22  H1  non d ame      -8.393  17.775  68.445  0.00  0.00     0.091 H 
ATOM     23  O1  non d ame     -10.045  17.218  65.714  0.00  0.00    -0.218 OA
ATOM     24  N1  non d ame      -9.165  16.245  65.661  0.00  0.00    -0.123 NA
BRANCH  21  25
ATOM     25  C3  non d ame     -10.721  19.161  67.174  0.00  0.00    -0.029 C 
ATOM     26  H2  non d ame     -11.575  18.837  67.768  0.00  0.00     0.036 H 
ATOM     27  H3  non d ame     -10.109  19.847  67.760  0.00  0.00     0.036 H 
ATOM     28  H4  non d ame     -11.074  19.668  66.275  0.00  0.00     0.036 H 
ENDBRANCH  21  25
ENDBRANCH  16  19
ENDBRANCH  13  15
BRANCH  13  29
ATOM     29  C8  non d ame      -6.042  13.069  69.059  0.00  0.00    -0.049 C 
ATOM     30  H7  non d ame      -6.474  12.196  69.549  0.00  0.00     0.030 H 
ATOM     31  H8  non d ame      -4.961  13.068  69.201  0.00  0.00     0.030 H 
ATOM     32  H9  non d ame      -6.465  13.975  69.492  0.00  0.00     0.030 H 
ENDBRANCH  13  29
ENDBRANCH  10  13
ENDBRANCH   7   9
BRANCH   7  33
ATOM     33  C11 non d ame      -6.308   8.209  68.438  0.00  0.00    -0.033 C 
ATOM     34  H12 non d ame      -6.866   7.343  68.795  0.00  0.00     0.042 H 
BRANCH  33  35
ATOM     35  C12 non d ame      -5.293   7.703  67.366  0.00  0.00    -0.071 C 
ATOM     36  H13 non d ame      -4.463   8.406  67.292  0.00  0.00     0.028 H 
ATOM     37  H14 non d ame      -4.914   6.724  67.658  0.00  0.00     0.028 H 
ATOM     38  H15 non d ame      -5.793   7.628  66.401  0.00  0.00     0.028 H 
ENDBRANCH  33  35
BRANCH  33  39
ATOM     39  C13 non d ame      -5.571   8.845  69.660  0.00  0.00    -0.071 C 
ATOM     40  H16 non d ame      -5.451   8.096  70.443  0.00  0.00     0.028 H 
ATOM     41  H17 non d ame      -4.590   9.203  69.347  0.00  0.00     0.028 H 
ATOM     42  H18 non d ame      -6.158   9.680  70.043  0.00  0.00     0.028 H 
ENDBRANCH  33  39
ENDBRANCH   7  33
ENDBRANCH   4   7
ENDBRANCH   1   3
BRANCH   1  43
ATOM     43  C15 non d ame     -11.420  10.483  69.884  0.00  0.00     0.240 C 
ATOM     44  O5  non d ame     -12.569  10.447  70.187  0.00  0.00    -0.271 OA
ATOM     45  N6  non d ame     -10.855  11.714  69.262  0.00  0.00    -0.355 N 
ATOM     46  H46 non d ame      -9.880  11.758  69.005  0.00  0.00     0.162 HD
BRANCH  45  47
ATOM     47  C20 non d ame     -11.731  12.881  69.020  0.00  0.00     0.013 C 
ATOM     48  H30 non d ame     -12.651  12.733  69.587  0.00  0.00     0.072 H 
BRANCH  47  49
ATOM     49  C21 non d ame     -12.043  12.974  67.544  0.00  0.00    -0.038 C 
ATOM     50  H31 non d ame     -12.742  12.163  67.338  0.00  0.00     0.036 H 
ATOM     51  H32 non d ame     -12.342  14.008  67.371  0.00  0.00     0.036 H 
BRANCH  49  52
ATOM     52  C22 non d ame     -10.808  12.722  66.653  0.00  0.00     0.018 C 
ATOM     53  H33 non d ame     -10.031  13.390  67.029  0.00  0.00     0.048 H 
ATOM     54  H34 non d ame     -10.651  11.643  66.664  0.00  0.00     0.048 H 
BRANCH  52  55
ATOM     55  C23 non d ame     -11.020  13.109  65.163  0.00  0.00     0.259 C 
ATOM     56  O7  non d ame     -11.725  14.021  64.871  0.00  0.00    -0.265 OA
BRANCH  55  57
ATOM     57  O8  non d ame     -10.373  12.352  64.148  0.00  0.00    -0.317 OA
BRANCH  57  58
ATOM     58  C29 non d ame     -10.066  11.008  64.529  0.00  0.00     0.052 C 
ATOM     59  H47 non d ame      -9.499  11.087  65.457  0.00  0.00     0.082 H 
ATOM     60  H48 non d ame     -11.015  10.473  64.515  0.00  0.00     0.082 H 
BRANCH  58  61
ATOM     61  C35 non d ame      -9.143  10.400  63.440  0.00  0.00    -0.034 A 
ATOM     62  C30 non d ame      -8.754   9.067  63.521  0.00  0.00    -0.075 A 
ATOM     63  C31 non d ame      -7.925   8.520  62.543  0.00  0.00    -0.082 A 
ATOM     64  H49 non d ame      -9.100   8.450  64.351  0.00  0.00     0.084 H 
ATOM     65  C32 non d ame      -7.481   9.313  61.481  0.00  0.00    -0.083 A 
ATOM     66  H50 non d ame      -7.624   7.474  62.608  0.00  0.00     0.083 H 
ATOM     67  C33 non d ame      -7.869  10.644  61.406  0.00  0.00    -0.082 A 
ATOM     68  H51 non d ame      -6.833   8.894  60.712  0.00  0.00     0.083 H 
ATOM     69  C34 non d ame      -8.700  11.194  62.380  0.00  0.00    -0.075 A 
ATOM     70  H52 non d ame      -7.520  11.261  60.578  0.00  0.00     0.083 H 
ATOM     71  H53 non d ame      -9.001  12.240  62.314  0.00  0.00     0.084 H 
ENDBRANCH  58  61
ENDBRANCH  57  58
ENDBRANCH  55  57
ENDBRANCH  52  55
ENDBRANCH  49  52
ENDBRANCH  47  49
BRANCH  47  72
ATOM     72  C24 non d ame     -11.028  14.158  69.475  0.00  0.00    -0.039 C 
ATOM     73  H35 non d ame     -10.014  13.853  69.735  0.00  0.00     0.036 H 
ATOM     74  H36 non d ame     -11.191  14.880  68.674  0.00  0.00     0.036 H 
BRANCH  72  75
ATOM     75  C25 non d ame     -11.694  14.763  70.800  0.00  0.00    -0.001 C 
ATOM     76  C26 non d ame     -12.680  13.643  71.492  0.00  0.00    -0.035 C 
ATOM     77  C27 non d ame     -13.891  14.207  71.716  0.00  0.00     0.085 C 
ATOM     78  H38 non d ame     -12.897  12.846  70.781  0.00  0.00     0.036 H 
ATOM     79  H39 non d ame     -12.323  13.399  72.493  0.00  0.00     0.036 H 
ATOM     80  N5  non d ame     -13.924  15.503  70.944  0.00  0.00    -0.049 N 
ATOM     81  H40 non d ame     -14.618  13.517  71.284  0.00  0.00     0.075 H 
ATOM     82  H41 non d ame     -13.916  14.428  72.782  0.00  0.00     0.075 H 
ATOM     83  C28 non d ame     -12.394  15.815  70.533  0.00  0.00     0.193 C 
ATOM     84  H42 non d ame     -14.453  15.322  70.103  0.00  0.00     0.280 HD
ATOM     85  H43 non d ame     -14.234  16.214  71.591  0.00  0.00     0.280 HD
ATOM     86  H44 non d ame     -11.822  16.574  71.065  0.00  0.00     0.129 H 
ATOM     87  H37 non d ame     -10.962  15.247  71.446  0.00  0.00     0.046 H 
BRANCH  83  88
ATOM     88  O6  non d ame     -12.319  16.176  69.152  0.00  0.00    -0.369 OA
ATOM     89  H45 non d ame     -11.449  16.535  68.963  0.00  0.00     0.212 HD
ENDBRANCH  83  88
ENDBRANCH  72  75
ENDBRANCH  47  72
ENDBRANCH  45  47
ENDBRANCH   1  43
BRANCH   1  90
ATOM     90  C16 non d ame     -10.420   8.989  71.641  0.00  0.00    -0.035 C 
ATOM     91  H21 non d ame      -9.393   8.667  71.816  0.00  0.00     0.037 H 
ATOM     92  H22 non d ame     -10.795   9.897  72.115  0.00  0.00     0.037 H 
BRANCH  90  93
ATOM     93  C17 non d ame     -11.337   7.824  72.134  0.00  0.00    -0.059 C 
ATOM     94  H23 non d ame     -12.279   8.261  72.464  0.00  0.00     0.038 H 
BRANCH  93  95
ATOM     95  C18 non d ame     -11.657   6.804  70.995  0.00  0.00    -0.073 C 
ATOM     96  H24 non d ame     -11.488   7.276  70.027  0.00  0.00     0.028 H 
ATOM     97  H25 non d ame     -11.009   5.934  71.093  0.00  0.00     0.028 H 
ATOM     98  H26 non d ame     -12.699   6.492  71.070  0.00  0.00     0.028 H 
ENDBRANCH  93  95
BRANCH  93  99
ATOM     99  C19 non d ame     -10.718   7.115  73.341  0.00  0.00    -0.073 C 
ATOM    100  H27 non d ame     -10.438   7.853  74.093  0.00  0.00     0.028 H 
ATOM    101  H28 non d ame     -11.443   6.420  73.766  0.00  0.00     0.028 H 
ATOM    102  H29 non d ame      -9.832   6.565  73.025  0.00  0.00     0.028 H 
ENDBRANCH  93  99
ENDBRANCH  90  93
ENDBRANCH   1  90
TORSDOF 26
ENDMDL
MODEL 4
REMARK VINA RESULT:      -6.7      2.967      7.379
REMARK  26 active torsions:
REMARK  status: ('A' for Active; 'I' for Inactive)
REMARK    1  A    between atoms: C2_2  and  C3_3 
REMARK    2  A    between atoms: C4_6  and  C5_7 
REMARK       I    between atoms: C5_7  and  N2_9 
REMARK    3  A    between atoms: N2_9  and  C6_10 
REMARK    4  A    between atoms: C6_10  and  C7_11 
REMARK    5  A    between atoms: C6_10  and  C8_13 
REMARK       I    between atoms: C7_11  and  N3_14 
REMARK    6  A    between atoms: N3_14  and  C9_15 
REMARK    7  A    between atoms: C9_15  and  C10_16 
REMARK    8  A    between atoms: C9_15  and  C11_18 
REMARK       I    between atoms: C10_16  and  N4_21 
REMARK    9  A    between atoms: C11_18  and  C12_19 
REMARK   10  A    between atoms: C11_18  and  C13_20 
REMARK   11  A    between atoms: N4_21  and  C14_22 
REMARK   12  A    between atoms: C14_22  and  C15_23 
REMARK   13  A    between atoms: C14_22  and  C16_25 
REMARK       I    between atoms: C15_23  and  N6_40 
REMARK   14  A    between atoms: C16_25  and  C17_26 
REMARK   15  A    between atoms: C17_26  and  C18_27 
REMARK   16  A    between atoms: C17_26  and  C19_28 
REMARK   17  A    between atoms: C20_29  and  C21_30 
REMARK   18  A    between atoms: C20_29  and  C24_33 
REMARK   19  A    between atoms: C20_29  and  N6_40 
REMARK   20  A    between atoms: C21_30  and  C22_31 
REMARK   21  A    between atoms: C22_31  and  C23_32 
REMARK   22  A    between atoms: C23_32  and  O8_43 
REMARK   23  A    between atoms: C24_33  and  C25_34 
REMARK   24  A    between atoms: C28_38  and  O6_39 
REMARK   25  A    between atoms: C29_42  and  O8_43 
REMARK   26  A    between atoms: C29_42  and  C35_49 
ROOT
ATOM      1  C14 non d ame      -9.521  11.677  65.594  0.00  0.00     0.089 C 
ATOM      2  H20 non d ame      -9.105  12.071  64.666  0.00  0.00     0.087 H 
ENDROOT
BRANCH   1   3
ATOM      3  N4  non d ame      -8.941  10.360  65.809  0.00  0.00    -0.346 N 
ATOM      4  C10 non d ame      -8.694   9.436  64.642  0.00  0.00     0.241 C 
ATOM      5  O4  non d ame      -8.973   9.775  63.539  0.00  0.00    -0.271 OA
ATOM      6  H19 non d ame      -8.714  10.089  66.755  0.00  0.00     0.163 HD
BRANCH   4   7
ATOM      7  C9  non d ame      -8.089   8.079  64.882  0.00  0.00     0.092 C 
ATOM      8  H11 non d ame      -7.186   8.190  65.483  0.00  0.00     0.088 H 
BRANCH   7   9
ATOM      9  N3  non d ame      -9.024   7.255  65.654  0.00  0.00    -0.346 N 
ATOM     10  C7  non d ame      -8.953   7.243  67.095  0.00  0.00     0.240 C 
ATOM     11  O3  non d ame      -8.148   7.888  67.649  0.00  0.00    -0.271 OA
ATOM     12  H10 non d ame      -9.722   6.692  65.191  0.00  0.00     0.163 HD
BRANCH  10  13
ATOM     13  C6  non d ame      -9.949   6.362  67.911  0.00  0.00     0.086 C 
ATOM     14  H6  non d ame      -9.454   5.761  68.673  0.00  0.00     0.086 H 
BRANCH  13  15
ATOM     15  N2  non d ame     -10.883   7.230  68.609  0.00  0.00    -0.343 N 
ATOM     16  C5  non d ame     -10.647   7.561  70.016  0.00  0.00     0.273 C 
ATOM     17  O2  non d ame      -9.704   7.122  70.578  0.00  0.00    -0.266 OA
ATOM     18  H5  non d ame     -11.688   7.599  68.122  0.00  0.00     0.163 HD
BRANCH  16  19
ATOM     19  C4  non d ame     -11.625   8.479  70.766  0.00  0.00     0.154 A 
ATOM     20  C1  non d ame     -11.672   9.909  70.726  0.00  0.00    -0.017 A 
ATOM     21  C2  non d ame     -12.741  10.261  71.580  0.00  0.00     0.077 A 
ATOM     22  H1  non d ame     -11.029  10.587  70.165  0.00  0.00     0.091 H 
ATOM     23  O1  non d ame     -13.243   9.156  72.049  0.00  0.00    -0.218 OA
ATOM     24  N1  non d ame     -12.608   8.103  71.588  0.00  0.00    -0.123 NA
BRANCH  21  25
ATOM     25  C3  non d ame     -13.217  11.674  71.893  0.00  0.00    -0.029 C 
ATOM     26  H2  non d ame     -13.926  11.996  71.131  0.00  0.00     0.036 H 
ATOM     27  H3  non d ame     -13.702  11.685  72.869  0.00  0.00     0.036 H 
ATOM     28  H4  non d ame     -12.363  12.351  71.904  0.00  0.00     0.036 H 
ENDBRANCH  21  25
ENDBRANCH  16  19
ENDBRANCH  13  15
BRANCH  13  29
ATOM     29  C8  non d ame     -10.697   5.445  66.976  0.00  0.00    -0.049 C 
ATOM     30  H7  non d ame     -10.307   4.432  67.072  0.00  0.00     0.030 H 
ATOM     31  H8  non d ame     -11.757   5.453  67.230  0.00  0.00     0.030 H 
ATOM     32  H9  non d ame     -10.565   5.788  65.950  0.00  0.00     0.030 H 
ENDBRANCH  13  29
ENDBRANCH  10  13
ENDBRANCH   7   9
BRANCH   7  33
ATOM     33  C11 non d ame      -7.801   7.390  63.516  0.00  0.00    -0.033 C 
ATOM     34  H12 non d ame      -8.448   7.854  62.771  0.00  0.00     0.042 H 
BRANCH  33  35
ATOM     35  C12 non d ame      -6.325   7.617  63.064  0.00  0.00    -0.071 C 
ATOM     36  H13 non d ame      -6.232   7.393  62.001  0.00  0.00     0.028 H 
ATOM     37  H14 non d ame      -6.048   8.656  63.240  0.00  0.00     0.028 H 
ATOM     38  H15 non d ame      -5.666   6.963  63.633  0.00  0.00     0.028 H 
ENDBRANCH  33  35
BRANCH  33  39
ATOM     39  C13 non d ame      -8.148   5.867  63.574  0.00  0.00    -0.071 C 
ATOM     40  H16 non d ame      -7.250   5.299  63.817  0.00  0.00     0.028 H 
ATOM     41  H17 non d ame      -8.905   5.695  64.339  0.00  0.00     0.028 H 
ATOM     42  H18 non d ame      -8.530   5.545  62.605  0.00  0.00     0.028 H 
ENDBRANCH  33  39
ENDBRANCH   7  33
ENDBRANCH   4   7
ENDBRANCH   1   3
BRANCH   1  43
ATOM     43  C15 non d ame      -9.179  12.574  66.818  0.00  0.00     0.240 C 
ATOM     44  O5  non d ame      -9.515  12.240  67.908  0.00  0.00    -0.271 OA
ATOM     45  N6  non d ame      -8.426  13.847  66.632  0.00  0.00    -0.355 N 
ATOM     46  H46 non d ame      -8.131  14.139  65.712  0.00  0.00     0.162 HD
BRANCH  45  47
ATOM     47  C20 non d ame      -8.108  14.688  67.806  0.00  0.00     0.013 C 
ATOM     48  H30 non d ame      -8.804  14.428  68.603  0.00  0.00     0.072 H 
BRANCH  47  49
ATOM     49  C21 non d ame      -8.268  16.145  67.435  0.00  0.00    -0.038 C 
ATOM     50  H31 non d ame      -8.127  16.702  68.361  0.00  0.00     0.036 H 
ATOM     51  H32 non d ame      -7.596  16.309  66.592  0.00  0.00     0.036 H 
BRANCH  49  52
ATOM     52  C22 non d ame      -9.688  16.483  66.934  0.00  0.00     0.018 C 
ATOM     53  H33 non d ame      -9.550  17.115  66.056  0.00  0.00     0.048 H 
ATOM     54  H34 non d ame     -10.204  15.527  66.841  0.00  0.00     0.048 H 
BRANCH  52  55
ATOM     55  C23 non d ame     -10.523  17.324  67.939  0.00  0.00     0.259 C 
ATOM     56  O7  non d ame     -10.924  18.402  67.638  0.00  0.00    -0.265 OA
BRANCH  55  57
ATOM     57  O8  non d ame     -10.795  16.796  69.232  0.00  0.00    -0.317 OA
BRANCH  57  58
ATOM     58  C29 non d ame     -11.780  15.760  69.243  0.00  0.00     0.052 C 
ATOM     59  H47 non d ame     -12.553  16.080  68.544  0.00  0.00     0.082 H 
ATOM     60  H48 non d ame     -11.236  14.833  69.065  0.00  0.00     0.082 H 
BRANCH  58  61
ATOM     61  C35 non d ame     -12.398  15.700  70.665  0.00  0.00    -0.034 A 
ATOM     62  C30 non d ame     -13.700  15.244  70.841  0.00  0.00    -0.075 A 
ATOM     63  C31 non d ame     -14.255  15.191  72.119  0.00  0.00    -0.082 A 
ATOM     64  H49 non d ame     -14.286  14.927  69.978  0.00  0.00     0.084 H 
ATOM     65  C32 non d ame     -13.503  15.599  73.224  0.00  0.00    -0.083 A 
ATOM     66  H50 non d ame     -15.275  14.830  72.253  0.00  0.00     0.083 H 
ATOM     67  C33 non d ame     -12.205  16.057  73.043  0.00  0.00    -0.082 A 
ATOM     68  H51 non d ame     -13.929  15.560  74.226  0.00  0.00     0.083 H 
ATOM     69  C34 non d ame     -11.646  16.110  71.768  0.00  0.00    -0.075 A 
ATOM     70  H52 non d ame     -11.622  16.377  73.907  0.00  0.00     0.083 H 
ATOM     71  H53 non d ame     -10.625  16.470  71.634  0.00  0.00     0.084 H 
ENDBRANCH  58  61
ENDBRANCH  57  58
ENDBRANCH  55  57
ENDBRANCH  52  55
ENDBRANCH  49  52
ENDBRANCH  47  49
BRANCH  47  72
ATOM     72  C24 non d ame      -6.670  14.430  68.252  0.00  0.00    -0.039 C 
ATOM     73  H35 non d ame      -6.629  13.369  68.501  0.00  0.00     0.036 H 
ATOM     74  H36 non d ame      -6.043  14.826  67.453  0.00  0.00     0.036 H 
BRANCH  72  75
ATOM     75  C25 non d ame      -6.308  15.242  69.584  0.00  0.00    -0.001 C 
ATOM     76  C26 non d ame      -4.937  16.120  69.350  0.00  0.00    -0.035 C 
ATOM     77  C27 non d ame      -4.073  15.858  70.360  0.00  0.00     0.085 C 
ATOM     78  H38 non d ame      -4.411  15.762  68.465  0.00  0.00     0.036 H 
ATOM     79  H39 non d ame      -5.149  17.183  69.466  0.00  0.00     0.036 H 
ATOM     80  N5  non d ame      -4.595  14.639  71.082  0.00  0.00    -0.049 N 
ATOM     81  H40 non d ame      -3.128  15.607  69.877  0.00  0.00     0.075 H 
ATOM     82  H41 non d ame      -4.134  16.718  71.026  0.00  0.00     0.075 H 
ATOM     83  C28 non d ame      -6.117  14.444  70.581  0.00  0.00     0.193 C 
ATOM     84  H42 non d ame      -4.046  13.856  70.756  0.00  0.00     0.280 HD
ATOM     85  H43 non d ame      -4.607  14.872  72.065  0.00  0.00     0.280 HD
ATOM     86  H44 non d ame      -6.952  14.726  71.223  0.00  0.00     0.129 H 
ATOM     87  H37 non d ame      -7.170  15.769  69.994  0.00  0.00     0.046 H 
BRANCH  83  88
ATOM     88  O6  non d ame      -6.349  13.079  70.231  0.00  0.00    -0.369 OA
ATOM     89  H45 non d ame      -6.284  12.531  71.016  0.00  0.00     0.212 HD
ENDBRANCH  83  88
ENDBRANCH  72  75
ENDBRANCH  47  72
ENDBRANCH  45  47
ENDBRANCH   1  43
BRANCH   1  90
ATOM     90  C16 non d ame     -11.030  11.540  65.465  0.00  0.00    -0.035 C 
ATOM     91  H21 non d ame     -11.192  10.583  64.969  0.00  0.00     0.037 H 
ATOM     92  H22 non d ame     -11.421  11.707  66.469  0.00  0.00     0.037 H 
BRANCH  90  93
ATOM     93  C17 non d ame     -11.681  12.626  64.551  0.00  0.00    -0.059 C 
ATOM     94  H23 non d ame     -10.876  13.207  64.101  0.00  0.00     0.038 H 
BRANCH  93  95
ATOM     95  C18 non d ame     -12.518  11.996  63.392  0.00  0.00    -0.073 C 
ATOM     96  H24 non d ame     -13.293  12.696  63.081  0.00  0.00     0.028 H 
ATOM     97  H25 non d ame     -11.864  11.778  62.547  0.00  0.00     0.028 H 
ATOM     98  H26 non d ame     -12.981  11.072  63.739  0.00  0.00     0.028 H 
ENDBRANCH  93  95
BRANCH  93  99
ATOM     99  C19 non d ame     -12.535  13.594  65.374  0.00  0.00    -0.073 C 
ATOM    100  H27 non d ame     -13.581  13.294  65.319  0.00  0.00     0.028 H 
ATOM    101  H28 non d ame     -12.205  13.575  66.414  0.00  0.00     0.028 H 
ATOM    102  H29 non d ame     -12.425  14.603  64.978  0.00  0.00     0.028 H 
ENDBRANCH  93  99
ENDBRANCH  90  93
ENDBRANCH   1  90
TORSDOF 26
ENDMDL
MODEL 5
REMARK VINA RESULT:      -6.2      2.487      6.975
REMARK  26 active torsions:
REMARK  status: ('A' for Active; 'I' for Inactive)
REMARK    1  A    between atoms: C2_2  and  C3_3 
REMARK    2  A    between atoms: C4_6  and  C5_7 
REMARK       I    between atoms: C5_7  and  N2_9 
REMARK    3  A    between atoms: N2_9  and  C6_10 
REMARK    4  A    between atoms: C6_10  and  C7_11 
REMARK    5  A    between atoms: C6_10  and  C8_13 
REMARK       I    between atoms: C7_11  and  N3_14 
REMARK    6  A    between atoms: N3_14  and  C9_15 
REMARK    7  A    between atoms: C9_15  and  C10_16 
REMARK    8  A    between atoms: C9_15  and  C11_18 
REMARK       I    between atoms: C10_16  and  N4_21 
REMARK    9  A    between atoms: C11_18  and  C12_19 
REMARK   10  A    between atoms: C11_18  and  C13_20 
REMARK   11  A    between atoms: N4_21  and  C14_22 
REMARK   12  A    between atoms: C14_22  and  C15_23 
REMARK   13  A    between atoms: C14_22  and  C16_25 
REMARK       I    between atoms: C15_23  and  N6_40 
REMARK   14  A    between atoms: C16_25  and  C17_26 
REMARK   15  A    between atoms: C17_26  and  C18_27 
REMARK   16  A    between atoms: C17_26  and  C19_28 
REMARK   17  A    between atoms: C20_29  and  C21_30 
REMARK   18  A    between atoms: C20_29  and  C24_33 
REMARK   19  A    between atoms: C20_29  and  N6_40 
REMARK   20  A    between atoms: C21_30  and  C22_31 
REMARK   21  A    between atoms: C22_31  and  C23_32 
REMARK   22  A    between atoms: C23_32  and  O8_43 
REMARK   23  A    between atoms: C24_33  and  C25_34 
REMARK   24  A    between atoms: C28_38  and  O6_39 
REMARK   25  A    between atoms: C29_42  and  O8_43 
REMARK   26  A    between atoms: C29_42  and  C35_49 
ROOT
ATOM      1  C14 non d ame      -5.838  15.953  67.540  0.00  0.00     0.089 C 
ATOM      2  H20 non d ame      -5.411  16.150  66.557  0.00  0.00     0.087 H 
ENDROOT
BRANCH   1   3
ATOM      3  N4  non d ame      -7.236  16.357  67.500  0.00  0.00    -0.346 N 
ATOM      4  C10 non d ame      -7.745  17.227  66.379  0.00  0.00     0.241 C 
ATOM      5  O4  non d ame      -7.010  17.592  65.521  0.00  0.00    -0.271 OA
ATOM      6  H19 non d ame      -7.844  16.038  68.241  0.00  0.00     0.163 HD
BRANCH   4   7
ATOM      7  C9  non d ame      -9.196  17.631  66.350  0.00  0.00     0.092 C 
ATOM      8  H11 non d ame      -9.517  17.739  65.314  0.00  0.00     0.088 H 
BRANCH   7   9
ATOM      9  N3  non d ame     -10.011  16.570  66.949  0.00  0.00    -0.346 N 
ATOM     10  C7  non d ame     -10.686  15.616  66.103  0.00  0.00     0.240 C 
ATOM     11  O3  non d ame     -10.585  15.688  64.939  0.00  0.00    -0.271 OA
ATOM     12  H10 non d ame     -10.109  16.496  67.951  0.00  0.00     0.163 HD
BRANCH  10  13
ATOM     13  C6  non d ame     -11.555  14.491  66.746  0.00  0.00     0.086 C 
ATOM     14  H6  non d ame     -10.974  13.605  67.003  0.00  0.00     0.086 H 
BRANCH  13  15
ATOM     15  N2  non d ame     -12.126  14.987  67.987  0.00  0.00    -0.343 N 
ATOM     16  C5  non d ame     -11.788  14.330  69.251  0.00  0.00     0.273 C 
ATOM     17  O2  non d ame     -11.057  13.401  69.259  0.00  0.00    -0.266 OA
ATOM     18  H5  non d ame     -12.752  15.780  67.970  0.00  0.00     0.163 HD
BRANCH  16  19
ATOM     19  C4  non d ame     -12.384  14.845  70.570  0.00  0.00     0.154 A 
ATOM     20  C1  non d ame     -11.705  15.010  71.819  0.00  0.00    -0.017 A 
ATOM     21  C2  non d ame     -12.688  15.508  72.704  0.00  0.00     0.077 A 
ATOM     22  H1  non d ame     -10.660  14.800  72.049  0.00  0.00     0.091 H 
ATOM     23  O1  non d ame     -13.796  15.614  72.031  0.00  0.00    -0.218 OA
ATOM     24  N1  non d ame     -13.644  15.233  70.784  0.00  0.00    -0.123 NA
BRANCH  21  25
ATOM     25  C3  non d ame     -12.486  15.856  74.173  0.00  0.00    -0.029 C 
ATOM     26  H2  non d ame     -12.746  16.902  74.338  0.00  0.00     0.036 H 
ATOM     27  H3  non d ame     -13.124  15.222  74.788  0.00  0.00     0.036 H 
ATOM     28  H4  non d ame     -11.442  15.694  74.445  0.00  0.00     0.036 H 
ENDBRANCH  21  25
ENDBRANCH  16  19
ENDBRANCH  13  15
BRANCH  13  29
ATOM     29  C8  non d ame     -12.654  14.094  65.793  0.00  0.00    -0.049 C 
ATOM     30  H7  non d ame     -13.612  14.123  66.312  0.00  0.00     0.030 H 
ATOM     31  H8  non d ame     -12.674  14.788  64.953  0.00  0.00     0.030 H 
ATOM     32  H9  non d ame     -12.470  13.084  65.428  0.00  0.00     0.030 H 
ENDBRANCH  13  29
ENDBRANCH  10  13
ENDBRANCH   7   9
BRANCH   7  33
ATOM     33  C11 non d ame      -9.384  18.946  67.161  0.00  0.00    -0.033 C 
ATOM     34  H12 non d ame      -8.423  19.460  67.182  0.00  0.00     0.042 H 
BRANCH  33  35
ATOM     35  C12 non d ame     -10.411  19.898  66.471  0.00  0.00    -0.071 C 
ATOM     36  H13 non d ame     -10.845  19.397  65.605  0.00  0.00     0.028 H 
ATOM     37  H14 non d ame     -11.201  20.153  67.176  0.00  0.00     0.028 H 
ATOM     38  H15 non d ame      -9.903  20.807  66.149  0.00  0.00     0.028 H 
ENDBRANCH  33  35
BRANCH  33  39
ATOM     39  C13 non d ame      -9.800  18.639  68.636  0.00  0.00    -0.071 C 
ATOM     40  H16 non d ame      -9.521  19.478  69.274  0.00  0.00     0.028 H 
ATOM     41  H17 non d ame     -10.878  18.488  68.685  0.00  0.00     0.028 H 
ATOM     42  H18 non d ame      -9.290  17.738  68.976  0.00  0.00     0.028 H 
ENDBRANCH  33  39
ENDBRANCH   7  33
ENDBRANCH   4   7
ENDBRANCH   1   3
BRANCH   1  43
ATOM     43  C15 non d ame      -5.769  14.446  67.919  0.00  0.00     0.240 C 
ATOM     44  O5  non d ame      -4.931  14.063  68.669  0.00  0.00    -0.271 OA
ATOM     45  N6  non d ame      -6.755  13.481  67.353  0.00  0.00    -0.355 N 
ATOM     46  H46 non d ame      -7.474  13.795  66.719  0.00  0.00     0.162 HD
BRANCH  45  47
ATOM     47  C20 non d ame      -6.676  12.051  67.724  0.00  0.00     0.013 C 
ATOM     48  H30 non d ame      -5.787  11.912  68.338  0.00  0.00     0.072 H 
BRANCH  47  49
ATOM     49  C21 non d ame      -6.574  11.214  66.469  0.00  0.00    -0.038 C 
ATOM     50  H31 non d ame      -7.404  10.510  66.516  0.00  0.00     0.036 H 
ATOM     51  H32 non d ame      -6.508  11.926  65.645  0.00  0.00     0.036 H 
BRANCH  49  52
ATOM     52  C22 non d ame      -5.284  10.367  66.418  0.00  0.00     0.018 C 
ATOM     53  H33 non d ame      -4.587  10.847  67.106  0.00  0.00     0.048 H 
ATOM     54  H34 non d ame      -5.599   9.338  66.591  0.00  0.00     0.048 H 
BRANCH  52  55
ATOM     55  C23 non d ame      -4.586  10.372  65.029  0.00  0.00     0.259 C 
ATOM     56  O7  non d ame      -4.496  11.378  64.403  0.00  0.00    -0.265 OA
BRANCH  55  57
ATOM     57  O8  non d ame      -4.065   9.156  64.507  0.00  0.00    -0.317 OA
BRANCH  57  58
ATOM     58  C29 non d ame      -4.369   8.938  63.126  0.00  0.00     0.052 C 
ATOM     59  H47 non d ame      -4.651   9.912  62.729  0.00  0.00     0.082 H 
ATOM     60  H48 non d ame      -3.509   8.410  62.715  0.00  0.00     0.082 H 
BRANCH  58  61
ATOM     61  C35 non d ame      -5.603   7.999  63.050  0.00  0.00    -0.034 A 
ATOM     62  C30 non d ame      -5.455   6.635  63.277  0.00  0.00    -0.075 A 
ATOM     63  C31 non d ame      -6.564   5.792  63.209  0.00  0.00    -0.082 A 
ATOM     64  H49 non d ame      -4.472   6.226  63.510  0.00  0.00     0.084 H 
ATOM     65  C32 non d ame      -7.823   6.318  62.909  0.00  0.00    -0.083 A 
ATOM     66  H50 non d ame      -6.446   4.724  63.390  0.00  0.00     0.083 H 
ATOM     67  C33 non d ame      -7.965   7.680  62.680  0.00  0.00    -0.082 A 
ATOM     68  H51 non d ame      -8.695   5.667  62.854  0.00  0.00     0.083 H 
ATOM     69  C34 non d ame      -6.860   8.527  62.749  0.00  0.00    -0.075 A 
ATOM     70  H52 non d ame      -8.948   8.087  62.443  0.00  0.00     0.083 H 
ATOM     71  H53 non d ame      -6.979   9.595  62.569  0.00  0.00     0.084 H 
ENDBRANCH  58  61
ENDBRANCH  57  58
ENDBRANCH  55  57
ENDBRANCH  52  55
ENDBRANCH  49  52
ENDBRANCH  47  49
BRANCH  47  72
ATOM     72  C24 non d ame      -7.927  11.651  68.503  0.00  0.00    -0.039 C 
ATOM     73  H35 non d ame      -7.562  11.201  69.427  0.00  0.00     0.036 H 
ATOM     74  H36 non d ame      -8.545  12.548  68.541  0.00  0.00     0.036 H 
BRANCH  72  75
ATOM     75  C25 non d ame      -8.771  10.528  67.733  0.00  0.00    -0.001 C 
ATOM     76  C26 non d ame      -9.877  11.238  66.744  0.00  0.00    -0.035 C 
ATOM     77  C27 non d ame     -11.094  10.697  66.990  0.00  0.00     0.085 C 
ATOM     78  H38 non d ame     -10.004  12.285  67.017  0.00  0.00     0.036 H 
ATOM     79  H39 non d ame      -9.681  10.965  65.707  0.00  0.00     0.036 H 
ATOM     80  N5  non d ame     -10.978   9.919  68.279  0.00  0.00    -0.049 N 
ATOM     81  H40 non d ame     -11.764  11.543  67.145  0.00  0.00     0.075 H 
ATOM     82  H41 non d ame     -11.274  10.002  66.171  0.00  0.00     0.075 H 
ATOM     83  C28 non d ame      -9.397   9.762  68.563  0.00  0.00     0.193 C 
ATOM     84  H42 non d ame     -11.379  10.500  69.001  0.00  0.00     0.280 HD
ATOM     85  H43 non d ame     -11.364   9.003  68.096  0.00  0.00     0.280 HD
ATOM     86  H44 non d ame      -8.892   8.813  68.376  0.00  0.00     0.129 H 
ATOM     87  H37 non d ame      -8.133   9.761  67.293  0.00  0.00     0.046 H 
BRANCH  83  88
ATOM     88  O6  non d ame      -9.105  10.088  69.923  0.00  0.00    -0.369 OA
ATOM     89  H45 non d ame      -9.901  10.409  70.352  0.00  0.00     0.212 HD
ENDBRANCH  83  88
ENDBRANCH  72  75
ENDBRANCH  47  72
ENDBRANCH  45  47
ENDBRANCH   1  43
BRANCH   1  90
ATOM     90  C16 non d ame      -5.114  16.778  68.592  0.00  0.00    -0.035 C 
ATOM     91  H21 non d ame      -5.552  16.480  69.545  0.00  0.00     0.037 H 
ATOM     92  H22 non d ame      -4.052  16.614  68.406  0.00  0.00     0.037 H 
BRANCH  90  93
ATOM     93  C17 non d ame      -5.354  18.315  68.457  0.00  0.00    -0.059 C 
ATOM     94  H23 non d ame      -6.061  18.470  67.642  0.00  0.00     0.038 H 
BRANCH  93  95
ATOM     95  C18 non d ame      -5.977  18.930  69.751  0.00  0.00    -0.073 C 
ATOM     96  H24 non d ame      -5.393  19.798  70.058  0.00  0.00     0.028 H 
ATOM     97  H25 non d ame      -7.004  19.236  69.550  0.00  0.00     0.028 H 
ATOM     98  H26 non d ame      -5.969  18.185  70.547  0.00  0.00     0.028 H 
ENDBRANCH  93  95
BRANCH  93  99
ATOM     99  C19 non d ame      -4.059  19.040  68.079  0.00  0.00    -0.073 C 
ATOM    100  H27 non d ame      -4.138  19.417  67.059  0.00  0.00     0.028 H 
ATOM    101  H28 non d ame      -3.896  19.873  68.763  0.00  0.00     0.028 H 
ATOM    102  H29 non d ame      -3.221  18.346  68.147  0.00  0.00     0.028 H 
ENDBRANCH  93  99
ENDBRANCH  90  93
ENDBRANCH   1  90
TORSDOF 26
ENDMDL
MODEL 6
REMARK VINA RESULT:      -6.2      4.064      8.187
REMARK  26 active torsions:
REMARK  status: ('A' for Active; 'I' for Inactive)
REMARK    1  A    between atoms: C2_2  and  C3_3 
REMARK    2  A    between atoms: C4_6  and  C5_7 
REMARK       I    between atoms: C5_7  and  N2_9 
REMARK    3  A    between atoms: N2_9  and  C6_10 
REMARK    4  A    between atoms: C6_10  and  C7_11 
REMARK    5  A    between atoms: C6_10  and  C8_13 
REMARK       I    between atoms: C7_11  and  N3_14 
REMARK    6  A    between atoms: N3_14  and  C9_15 
REMARK    7  A    between atoms: C9_15  and  C10_16 
REMARK    8  A    between atoms: C9_15  and  C11_18 
REMARK       I    between atoms: C10_16  and  N4_21 
REMARK    9  A    between atoms: C11_18  and  C12_19 
REMARK   10  A    between atoms: C11_18  and  C13_20 
REMARK   11  A    between atoms: N4_21  and  C14_22 
REMARK   12  A    between atoms: C14_22  and  C15_23 
REMARK   13  A    between atoms: C14_22  and  C16_25 
REMARK       I    between atoms: C15_23  and  N6_40 
REMARK   14  A    between atoms: C16_25  and  C17_26 
REMARK   15  A    between atoms: C17_26  and  C18_27 
REMARK   16  A    between atoms: C17_26  and  C19_28 
REMARK   17  A    between atoms: C20_29  and  C21_30 
REMARK   18  A    between atoms: C20_29  and  C24_33 
REMARK   19  A    between atoms: C20_29  and  N6_40 
REMARK   20  A    between atoms: C21_30  and  C22_31 
REMARK   21  A    between atoms: C22_31  and  C23_32 
REMARK   22  A    between atoms: C23_32  and  O8_43 
REMARK   23  A    between atoms: C24_33  and  C25_34 
REMARK   24  A    between atoms: C28_38  and  O6_39 
REMARK   25  A    between atoms: C29_42  and  O8_43 
REMARK   26  A    between atoms: C29_42  and  C35_49 
ROOT
ATOM      1  C14 non d ame     -10.042   7.392  71.190  0.00  0.00     0.089 C 
ATOM      2  H20 non d ame     -11.113   7.188  71.161  0.00  0.00     0.087 H 
ENDROOT
BRANCH   1   3
ATOM      3  N4  non d ame      -9.376   6.342  70.433  0.00  0.00    -0.346 N 
ATOM      4  C10 non d ame     -10.065   5.696  69.257  0.00  0.00     0.241 C 
ATOM      5  O4  non d ame     -11.157   6.036  68.941  0.00  0.00    -0.271 OA
ATOM      6  H19 non d ame      -8.448   6.066  70.719  0.00  0.00     0.163 HD
BRANCH   4   7
ATOM      7  C9  non d ame      -9.359   4.616  68.481  0.00  0.00     0.092 C 
ATOM      8  H11 non d ame     -10.096   4.018  67.946  0.00  0.00     0.088 H 
BRANCH   7   9
ATOM      9  N3  non d ame      -8.484   5.227  67.476  0.00  0.00    -0.346 N 
ATOM     10  C7  non d ame      -8.785   5.079  66.073  0.00  0.00     0.240 C 
ATOM     11  O3  non d ame      -9.727   4.471  65.736  0.00  0.00    -0.271 OA
ATOM     12  H10 non d ame      -7.668   5.754  67.752  0.00  0.00     0.163 HD
BRANCH  10  13
ATOM     13  C6  non d ame      -7.849   5.730  65.008  0.00  0.00     0.086 C 
ATOM     14  H6  non d ame      -7.874   5.210  64.051  0.00  0.00     0.086 H 
BRANCH  13  15
ATOM     15  N2  non d ame      -8.297   7.089  64.754  0.00  0.00    -0.343 N 
ATOM     16  C5  non d ame      -8.260   7.618  63.389  0.00  0.00     0.273 C 
ATOM     17  O2  non d ame      -7.867   6.942  62.502  0.00  0.00    -0.266 OA
ATOM     18  H5  non d ame      -8.629   7.660  65.519  0.00  0.00     0.163 HD
BRANCH  16  19
ATOM     19  C4  non d ame      -8.732   9.052  63.106  0.00  0.00     0.154 A 
ATOM     20  C1  non d ame      -9.618   9.844  63.903  0.00  0.00    -0.017 A 
ATOM     21  C2  non d ame      -9.727  11.073  63.213  0.00  0.00     0.077 A 
ATOM     22  H1  non d ame     -10.107   9.570  64.838  0.00  0.00     0.091 H 
ATOM     23  O1  non d ame      -8.986  10.986  62.148  0.00  0.00    -0.218 OA
ATOM     24  N1  non d ame      -8.395   9.816  62.063  0.00  0.00    -0.123 NA
BRANCH  21  25
ATOM     25  C3  non d ame     -10.559  12.275  63.640  0.00  0.00    -0.029 C 
ATOM     26  H2  non d ame     -11.233  11.984  64.446  0.00  0.00     0.036 H 
ATOM     27  H3  non d ame      -9.897  13.069  63.988  0.00  0.00     0.036 H 
ATOM     28  H4  non d ame     -11.142  12.634  62.791  0.00  0.00     0.036 H 
ENDBRANCH  21  25
ENDBRANCH  16  19
ENDBRANCH  13  15
BRANCH  13  29
ATOM     29  C8  non d ame      -6.431   5.740  65.520  0.00  0.00    -0.049 C 
ATOM     30  H7  non d ame      -6.410   5.355  66.540  0.00  0.00     0.030 H 
ATOM     31  H8  non d ame      -5.810   5.112  64.882  0.00  0.00     0.030 H 
ATOM     32  H9  non d ame      -6.049   6.760  65.511  0.00  0.00     0.030 H 
ENDBRANCH  13  29
ENDBRANCH  10  13
ENDBRANCH   7   9
BRANCH   7  33
ATOM     33  C11 non d ame      -8.502   3.754  69.455  0.00  0.00    -0.033 C 
ATOM     34  H12 non d ame      -7.997   4.436  70.139  0.00  0.00     0.042 H 
BRANCH  33  35
ATOM     35  C12 non d ame      -9.397   2.807  70.313  0.00  0.00    -0.071 C 
ATOM     36  H13 non d ame      -9.971   2.154  69.655  0.00  0.00     0.028 H 
ATOM     37  H14 non d ame      -8.766   2.202  70.964  0.00  0.00     0.028 H 
ATOM     38  H15 non d ame     -10.079   3.403  70.919  0.00  0.00     0.028 H 
ENDBRANCH  33  35
BRANCH  33  39
ATOM     39  C13 non d ame      -7.410   2.951  68.678  0.00  0.00    -0.071 C 
ATOM     40  H16 non d ame      -6.581   3.613  68.428  0.00  0.00     0.028 H 
ATOM     41  H17 non d ame      -7.047   2.134  69.302  0.00  0.00     0.028 H 
ATOM     42  H18 non d ame      -7.841   2.545  67.763  0.00  0.00     0.028 H 
ENDBRANCH  33  39
ENDBRANCH   7  33
ENDBRANCH   4   7
ENDBRANCH   1   3
BRANCH   1  43
ATOM     43  C15 non d ame      -9.688   8.765  70.550  0.00  0.00     0.240 C 
ATOM     44  O5  non d ame      -8.875   9.464  71.063  0.00  0.00    -0.271 OA
ATOM     45  N6  non d ame     -10.356   9.204  69.292  0.00  0.00    -0.355 N 
ATOM     46  H46 non d ame     -11.044   8.617  68.844  0.00  0.00     0.162 HD
BRANCH  45  47
ATOM     47  C20 non d ame     -10.007  10.512  68.696  0.00  0.00     0.013 C 
ATOM     48  H30 non d ame      -9.379  11.048  69.407  0.00  0.00     0.072 H 
BRANCH  47  49
ATOM     49  C21 non d ame     -11.274  11.295  68.433  0.00  0.00    -0.038 C 
ATOM     50  H31 non d ame     -12.011  10.562  68.107  0.00  0.00     0.036 H 
ATOM     51  H32 non d ame     -11.449  11.882  69.335  0.00  0.00     0.036 H 
BRANCH  49  52
ATOM     52  C22 non d ame     -11.123  12.307  67.276  0.00  0.00     0.018 C 
ATOM     53  H33 non d ame     -10.050  12.449  67.145  0.00  0.00     0.048 H 
ATOM     54  H34 non d ame     -11.725  11.911  66.457  0.00  0.00     0.048 H 
BRANCH  52  55
ATOM     55  C23 non d ame     -11.705  13.712  67.594  0.00  0.00     0.259 C 
ATOM     56  O7  non d ame     -11.728  14.558  66.760  0.00  0.00    -0.265 OA
BRANCH  55  57
ATOM     57  O8  non d ame     -12.200  13.983  68.900  0.00  0.00    -0.317 OA
BRANCH  57  58
ATOM     58  C29 non d ame     -12.288  15.376  69.212  0.00  0.00     0.052 C 
ATOM     59  H47 non d ame     -11.290  15.780  69.041  0.00  0.00     0.082 H 
ATOM     60  H48 non d ame     -13.135  15.754  68.640  0.00  0.00     0.082 H 
BRANCH  58  61
ATOM     61  C35 non d ame     -12.618  15.508  70.723  0.00  0.00    -0.034 A 
ATOM     62  C30 non d ame     -11.600  15.751  71.640  0.00  0.00    -0.075 A 
ATOM     63  C31 non d ame     -11.897  15.870  72.997  0.00  0.00    -0.082 A 
ATOM     64  H49 non d ame     -10.571  15.850  71.295  0.00  0.00     0.084 H 
ATOM     65  C32 non d ame     -13.217  15.741  73.437  0.00  0.00    -0.083 A 
ATOM     66  H50 non d ame     -11.097  16.063  73.713  0.00  0.00     0.083 H 
ATOM     67  C33 non d ame     -14.229  15.494  72.518  0.00  0.00    -0.082 A 
ATOM     68  H51 non d ame     -13.458  15.833  74.496  0.00  0.00     0.083 H 
ATOM     69  C34 non d ame     -13.937  15.378  71.161  0.00  0.00    -0.075 A 
ATOM     70  H52 non d ame     -15.257  15.392  72.865  0.00  0.00     0.083 H 
ATOM     71  H53 non d ame     -14.737  15.185  70.446  0.00  0.00     0.084 H 
ENDBRANCH  58  61
ENDBRANCH  57  58
ENDBRANCH  55  57
ENDBRANCH  52  55
ENDBRANCH  49  52
ENDBRANCH  47  49
BRANCH  47  72
ATOM     72  C24 non d ame      -9.258  10.297  67.382  0.00  0.00    -0.039 C 
ATOM     73  H35 non d ame      -9.466   9.266  67.095  0.00  0.00     0.036 H 
ATOM     74  H36 non d ame      -9.570  11.116  66.733  0.00  0.00     0.036 H 
BRANCH  72  75
ATOM     75  C25 non d ame      -7.673  10.424  67.576  0.00  0.00    -0.001 C 
ATOM     76  C26 non d ame      -7.030  11.320  66.356  0.00  0.00    -0.035 C 
ATOM     77  C27 non d ame      -5.996  10.635  65.810  0.00  0.00     0.085 C 
ATOM     78  H38 non d ame      -7.743  11.401  65.536  0.00  0.00     0.036 H 
ATOM     79  H39 non d ame      -6.557  12.216  66.758  0.00  0.00     0.036 H 
ATOM     80  N5  non d ame      -6.083   9.219  66.327  0.00  0.00    -0.049 N 
ATOM     81  H40 non d ame      -6.183  10.633  64.735  0.00  0.00     0.075 H 
ATOM     82  H41 non d ame      -5.096  11.103  66.206  0.00  0.00     0.075 H 
ATOM     83  C28 non d ame      -7.107   9.264  67.574  0.00  0.00     0.193 C 
ATOM     84  H42 non d ame      -6.498   8.670  65.588  0.00  0.00     0.280 HD
ATOM     85  H43 non d ame      -5.164   8.985  66.675  0.00  0.00     0.280 HD
ATOM     86  H44 non d ame      -6.736   9.223  68.598  0.00  0.00     0.129 H 
ATOM     87  H37 non d ame      -7.403  10.706  68.593  0.00  0.00     0.046 H 
BRANCH  83  88
ATOM     88  O6  non d ame      -8.057   8.201  67.469  0.00  0.00    -0.369 OA
ATOM     89  H45 non d ame      -7.610   7.399  67.189  0.00  0.00     0.212 HD
ENDBRANCH  83  88
ENDBRANCH  72  75
ENDBRANCH  47  72
ENDBRANCH  45  47
ENDBRANCH   1  43
BRANCH   1  90
ATOM     90  C16 non d ame      -9.549   7.355  72.627  0.00  0.00    -0.035 C 
ATOM     91  H21 non d ame      -8.491   7.100  72.564  0.00  0.00     0.037 H 
ATOM     92  H22 non d ame      -9.855   8.308  73.061  0.00  0.00     0.037 H 
BRANCH  90  93
ATOM     93  C17 non d ame     -10.221   6.241  73.492  0.00  0.00    -0.059 C 
ATOM     94  H23 non d ame     -10.585   6.707  74.407  0.00  0.00     0.038 H 
BRANCH  93  95
ATOM     95  C18 non d ame     -11.444   5.591  72.769  0.00  0.00    -0.073 C 
ATOM     96  H24 non d ame     -11.091   4.832  72.070  0.00  0.00     0.028 H 
ATOM     97  H25 non d ame     -12.099   5.129  73.508  0.00  0.00     0.028 H 
ATOM     98  H26 non d ame     -11.994   6.359  72.225  0.00  0.00     0.028 H 
ENDBRANCH  93  95
BRANCH  93  99
ATOM     99  C19 non d ame      -9.200   5.176  73.899  0.00  0.00    -0.073 C 
ATOM    100  H27 non d ame      -8.265   5.343  73.362  0.00  0.00     0.028 H 
ATOM    101  H28 non d ame      -9.018   5.238  74.972  0.00  0.00     0.028 H 
ATOM    102  H29 non d ame      -9.588   4.187  73.654  0.00  0.00     0.028 H 
ENDBRANCH  93  99
ENDBRANCH  90  93
ENDBRANCH   1  90
TORSDOF 26
ENDMDL
MODEL 7
REMARK VINA RESULT:      -6.2      3.288      8.380
REMARK  26 active torsions:
REMARK  status: ('A' for Active; 'I' for Inactive)
REMARK    1  A    between atoms: C2_2  and  C3_3 
REMARK    2  A    between atoms: C4_6  and  C5_7 
REMARK       I    between atoms: C5_7  and  N2_9 
REMARK    3  A    between atoms: N2_9  and  C6_10 
REMARK    4  A    between atoms: C6_10  and  C7_11 
REMARK    5  A    between atoms: C6_10  and  C8_13 
REMARK       I    between atoms: C7_11  and  N3_14 
REMARK    6  A    between atoms: N3_14  and  C9_15 
REMARK    7  A    between atoms: C9_15  and  C10_16 
REMARK    8  A    between atoms: C9_15  and  C11_18 
REMARK       I    between atoms: C10_16  and  N4_21 
REMARK    9  A    between atoms: C11_18  and  C12_19 
REMARK   10  A    between atoms: C11_18  and  C13_20 
REMARK   11  A    between atoms: N4_21  and  C14_22 
REMARK   12  A    between atoms: C14_22  and  C15_23 
REMARK   13  A    between atoms: C14_22  and  C16_25 
REMARK       I    between atoms: C15_23  and  N6_40 
REMARK   14  A    between atoms: C16_25  and  C17_26 
REMARK   15  A    between atoms: C17_26  and  C18_27 
REMARK   16  A    between atoms: C17_26  and  C19_28 
REMARK   17  A    between atoms: C20_29  and  C21_30 
REMARK   18  A    between atoms: C20_29  and  C24_33 
REMARK   19  A    between atoms: C20_29  and  N6_40 
REMARK   20  A    between atoms: C21_30  and  C22_31 
REMARK   21  A    between atoms: C22_31  and  C23_32 
REMARK   22  A    between atoms: C23_32  and  O8_43 
REMARK   23  A    between atoms: C24_33  and  C25_34 
REMARK   24  A    between atoms: C28_38  and  O6_39 
REMARK   25  A    between atoms: C29_42  and  O8_43 
REMARK   26  A    between atoms: C29_42  and  C35_49 
ROOT
ATOM      1  C14 non d ame      -6.664   9.733  63.496  0.00  0.00     0.089 C 
ATOM      2  H20 non d ame      -6.131  10.566  63.036  0.00  0.00     0.087 H 
ENDROOT
BRANCH   1   3
ATOM      3  N4  non d ame      -6.213   9.633  64.876  0.00  0.00    -0.346 N 
ATOM      4  C10 non d ame      -5.114  10.532  65.385  0.00  0.00     0.241 C 
ATOM      5  O4  non d ame      -4.605  11.326  64.664  0.00  0.00    -0.271 OA
ATOM      6  H19 non d ame      -6.657   8.950  65.473  0.00  0.00     0.163 HD
BRANCH   4   7
ATOM      7  C9  non d ame      -4.664  10.419  66.818  0.00  0.00     0.092 C 
ATOM      8  H11 non d ame      -5.130  11.210  67.404  0.00  0.00     0.088 H 
BRANCH   7   9
ATOM      9  N3  non d ame      -5.119   9.141  67.374  0.00  0.00    -0.346 N 
ATOM     10  C7  non d ame      -5.865   9.118  68.609  0.00  0.00     0.240 C 
ATOM     11  O3  non d ame      -6.106  10.118  69.168  0.00  0.00    -0.271 OA
ATOM     12  H10 non d ame      -4.918   8.271  66.904  0.00  0.00     0.163 HD
BRANCH  10  13
ATOM     13  C6  non d ame      -6.344   7.755  69.198  0.00  0.00     0.086 C 
ATOM     14  H6  non d ame      -5.902   7.537  70.170  0.00  0.00     0.086 H 
BRANCH  13  15
ATOM     15  N2  non d ame      -7.783   7.809  69.399  0.00  0.00    -0.343 N 
ATOM     16  C5  non d ame      -8.318   7.905  70.759  0.00  0.00     0.273 C 
ATOM     17  O2  non d ame      -7.583   7.935  71.684  0.00  0.00    -0.266 OA
ATOM     18  H5  non d ame      -8.404   7.779  68.602  0.00  0.00     0.163 HD
BRANCH  16  19
ATOM     19  C4  non d ame      -9.837   7.963  70.986  0.00  0.00     0.154 A 
ATOM     20  C1  non d ame     -10.581   9.029  71.585  0.00  0.00    -0.017 A 
ATOM     21  C2  non d ame     -11.925   8.595  71.557  0.00  0.00     0.077 A 
ATOM     22  H1  non d ame     -10.204   9.972  71.980  0.00  0.00     0.091 H 
ATOM     23  O1  non d ame     -11.940   7.418  71.003  0.00  0.00    -0.218 OA
ATOM     24  N1  non d ame     -10.733   7.028  70.662  0.00  0.00    -0.123 NA
BRANCH  21  25
ATOM     25  C3  non d ame     -13.132   9.363  72.077  0.00  0.00    -0.029 C 
ATOM     26  H2  non d ame     -12.998  10.428  71.881  0.00  0.00     0.036 H 
ATOM     27  H3  non d ame     -14.032   9.012  71.572  0.00  0.00     0.036 H 
ATOM     28  H4  non d ame     -13.232   9.201  73.151  0.00  0.00     0.036 H 
ENDBRANCH  21  25
ENDBRANCH  16  19
ENDBRANCH  13  15
BRANCH  13  29
ATOM     29  C8  non d ame      -5.997   6.642  68.243  0.00  0.00    -0.049 C 
ATOM     30  H7  non d ame      -6.911   6.240  67.805  0.00  0.00     0.030 H 
ATOM     31  H8  non d ame      -5.355   7.029  67.452  0.00  0.00     0.030 H 
ATOM     32  H9  non d ame      -5.475   5.851  68.781  0.00  0.00     0.030 H 
ENDBRANCH  13  29
ENDBRANCH  10  13
ENDBRANCH   7   9
BRANCH   7  33
ATOM     33  C11 non d ame      -3.109  10.483  66.880  0.00  0.00    -0.033 C 
ATOM     34  H12 non d ame      -2.770  11.067  66.024  0.00  0.00     0.042 H 
BRANCH  33  35
ATOM     35  C12 non d ame      -2.622  11.214  68.169  0.00  0.00    -0.071 C 
ATOM     36  H13 non d ame      -2.056  10.518  68.790  0.00  0.00     0.028 H 
ATOM     37  H14 non d ame      -1.984  12.053  67.892  0.00  0.00     0.028 H 
ATOM     38  H15 non d ame      -3.483  11.581  68.727  0.00  0.00     0.028 H 
ENDBRANCH  33  35
BRANCH  33  39
ATOM     39  C13 non d ame      -2.485   9.055  66.768  0.00  0.00    -0.071 C 
ATOM     40  H16 non d ame      -1.579   9.006  67.371  0.00  0.00     0.028 H 
ATOM     41  H17 non d ame      -3.202   8.316  67.128  0.00  0.00     0.028 H 
ATOM     42  H18 non d ame      -2.240   8.847  65.726  0.00  0.00     0.028 H 
ENDBRANCH  33  39
ENDBRANCH   7  33
ENDBRANCH   4   7
ENDBRANCH   1   3
BRANCH   1  43
ATOM     43  C15 non d ame      -8.204   9.948  63.492  0.00  0.00     0.240 C 
ATOM     44  O5  non d ame      -8.879   9.376  62.699  0.00  0.00    -0.271 OA
ATOM     45  N6  non d ame      -8.839  10.862  64.484  0.00  0.00    -0.355 N 
ATOM     46  H46 non d ame      -8.277  11.350  65.166  0.00  0.00     0.162 HD
BRANCH  45  47
ATOM     47  C20 non d ame     -10.306  11.055  64.469  0.00  0.00     0.013 C 
ATOM     48  H30 non d ame     -10.746  10.236  63.900  0.00  0.00     0.072 H 
BRANCH  47  49
ATOM     49  C21 non d ame     -10.629  12.375  63.808  0.00  0.00    -0.038 C 
ATOM     50  H31 non d ame      -9.919  13.093  64.220  0.00  0.00     0.036 H 
ATOM     51  H32 non d ame     -10.641  12.173  62.737  0.00  0.00     0.036 H 
BRANCH  49  52
ATOM     52  C22 non d ame     -12.037  12.898  64.169  0.00  0.00     0.018 C 
ATOM     53  H33 non d ame     -12.632  12.795  63.261  0.00  0.00     0.048 H 
ATOM     54  H34 non d ame     -12.326  12.364  65.074  0.00  0.00     0.048 H 
BRANCH  52  55
ATOM     55  C23 non d ame     -12.070  14.408  64.534  0.00  0.00     0.259 C 
ATOM     56  O7  non d ame     -12.620  15.187  63.826  0.00  0.00    -0.265 OA
BRANCH  55  57
ATOM     57  O8  non d ame     -11.422  14.852  65.720  0.00  0.00    -0.317 OA
BRANCH  57  58
ATOM     58  C29 non d ame     -10.409  15.837  65.496  0.00  0.00     0.052 C 
ATOM     59  H47 non d ame     -10.195  15.802  64.428  0.00  0.00     0.082 H 
ATOM     60  H48 non d ame     -10.785  16.755  65.947  0.00  0.00     0.082 H 
BRANCH  58  61
ATOM     61  C35 non d ame      -9.136  15.397  66.267  0.00  0.00    -0.034 A 
ATOM     62  C30 non d ame      -9.042  14.107  66.780  0.00  0.00    -0.075 A 
ATOM     63  C31 non d ame      -7.899  13.712  67.473  0.00  0.00    -0.082 A 
ATOM     64  H49 non d ame      -9.865  13.406  66.639  0.00  0.00     0.084 H 
ATOM     65  C32 non d ame      -6.847  14.614  67.654  0.00  0.00    -0.083 A 
ATOM     66  H50 non d ame      -7.828  12.700  67.871  0.00  0.00     0.083 H 
ATOM     67  C33 non d ame      -6.946  15.901  67.144  0.00  0.00    -0.082 A 
ATOM     68  H51 non d ame      -5.949  14.313  68.194  0.00  0.00     0.083 H 
ATOM     69  C34 non d ame      -8.086  16.299  66.449  0.00  0.00    -0.075 A 
ATOM     70  H52 non d ame      -6.124  16.603  67.289  0.00  0.00     0.083 H 
ATOM     71  H53 non d ame      -8.156  17.312  66.050  0.00  0.00     0.084 H 
ENDBRANCH  58  61
ENDBRANCH  57  58
ENDBRANCH  55  57
ENDBRANCH  52  55
ENDBRANCH  49  52
ENDBRANCH  47  49
BRANCH  47  72
ATOM     72  C24 non d ame     -10.842  11.055  65.899  0.00  0.00    -0.039 C 
ATOM     73  H35 non d ame     -10.626  12.050  66.289  0.00  0.00     0.036 H 
ATOM     74  H36 non d ame     -11.873  10.712  65.822  0.00  0.00     0.036 H 
BRANCH  72  75
ATOM     75  C25 non d ame     -10.062  10.006  66.825  0.00  0.00    -0.001 C 
ATOM     76  C26 non d ame      -9.893   8.576  66.030  0.00  0.00    -0.035 C 
ATOM     77  C27 non d ame     -10.335   7.577  66.831  0.00  0.00     0.085 C 
ATOM     78  H38 non d ame     -10.572   8.539  65.179  0.00  0.00     0.036 H 
ATOM     79  H39 non d ame      -8.836   8.346  65.895  0.00  0.00     0.036 H 
ATOM     80  N5  non d ame     -11.091   8.223  67.967  0.00  0.00    -0.049 N 
ATOM     81  H40 non d ame     -11.033   7.002  66.222  0.00  0.00     0.075 H 
ATOM     82  H41 non d ame      -9.437   7.103  67.227  0.00  0.00     0.075 H 
ATOM     83  C28 non d ame     -10.700   9.789  67.926  0.00  0.00     0.193 C 
ATOM     84  H42 non d ame     -12.072   8.131  67.747  0.00  0.00     0.280 HD
ATOM     85  H43 non d ame     -10.724   7.823  68.819  0.00  0.00     0.280 HD
ATOM     86  H44 non d ame      -9.996  10.203  68.648  0.00  0.00     0.129 H 
ATOM     87  H37 non d ame      -9.164  10.435  67.270  0.00  0.00     0.046 H 
BRANCH  83  88
ATOM     88  O6  non d ame     -11.876  10.593  68.034  0.00  0.00    -0.369 OA
ATOM     89  H45 non d ame     -12.577  10.082  68.445  0.00  0.00     0.212 HD
ENDBRANCH  83  88
ENDBRANCH  72  75
ENDBRANCH  47  72
ENDBRANCH  45  47
ENDBRANCH   1  43
BRANCH   1  90
ATOM     90  C16 non d ame      -6.326   8.441  62.769  0.00  0.00    -0.035 C 
ATOM     91  H21 non d ame      -7.140   8.288  62.060  0.00  0.00     0.037 H 
ATOM     92  H22 non d ame      -5.306   8.571  62.408  0.00  0.00     0.037 H 
BRANCH  90  93
ATOM     93  C17 non d ame      -6.308   7.186  63.698  0.00  0.00    -0.059 C 
ATOM     94  H23 non d ame      -6.399   7.534  64.727  0.00  0.00     0.038 H 
BRANCH  93  95
ATOM     95  C18 non d ame      -7.507   6.225  63.414  0.00  0.00    -0.073 C 
ATOM     96  H24 non d ame      -7.136   5.305  62.964  0.00  0.00     0.028 H 
ATOM     97  H25 non d ame      -8.016   5.993  64.350  0.00  0.00     0.028 H 
ATOM     98  H26 non d ame      -8.206   6.708  62.731  0.00  0.00     0.028 H 
ENDBRANCH  93  95
BRANCH  93  99
ATOM     99  C19 non d ame      -4.976   6.441  63.586  0.00  0.00    -0.073 C 
ATOM    100  H27 non d ame      -5.028   5.513  64.156  0.00  0.00     0.028 H 
ATOM    101  H28 non d ame      -4.774   6.214  62.539  0.00  0.00     0.028 H 
ATOM    102  H29 non d ame      -4.176   7.066  63.982  0.00  0.00     0.028 H 
ENDBRANCH  93  99
ENDBRANCH  90  93
ENDBRANCH   1  90
TORSDOF 26
ENDMDL
MODEL 8
REMARK VINA RESULT:      -6.2      4.113      8.566
REMARK  26 active torsions:
REMARK  status: ('A' for Active; 'I' for Inactive)
REMARK    1  A    between atoms: C2_2  and  C3_3 
REMARK    2  A    between atoms: C4_6  and  C5_7 
REMARK       I    between atoms: C5_7  and  N2_9 
REMARK    3  A    between atoms: N2_9  and  C6_10 
REMARK    4  A    between atoms: C6_10  and  C7_11 
REMARK    5  A    between atoms: C6_10  and  C8_13 
REMARK       I    between atoms: C7_11  and  N3_14 
REMARK    6  A    between atoms: N3_14  and  C9_15 
REMARK    7  A    between atoms: C9_15  and  C10_16 
REMARK    8  A    between atoms: C9_15  and  C11_18 
REMARK       I    between atoms: C10_16  and  N4_21 
REMARK    9  A    between atoms: C11_18  and  C12_19 
REMARK   10  A    between atoms: C11_18  and  C13_20 
REMARK   11  A    between atoms: N4_21  and  C14_22 
REMARK   12  A    between atoms: C14_22  and  C15_23 
REMARK   13  A    between atoms: C14_22  and  C16_25 
REMARK       I    between atoms: C15_23  and  N6_40 
REMARK   14  A    between atoms: C16_25  and  C17_26 
REMARK   15  A    between atoms: C17_26  and  C18_27 
REMARK   16  A    between atoms: C17_26  and  C19_28 
REMARK   17  A    between atoms: C20_29  and  C21_30 
REMARK   18  A    between atoms: C20_29  and  C24_33 
REMARK   19  A    between atoms: C20_29  and  N6_40 
REMARK   20  A    between atoms: C21_30  and  C22_31 
REMARK   21  A    between atoms: C22_31  and  C23_32 
REMARK   22  A    between atoms: C23_32  and  O8_43 
REMARK   23  A    between atoms: C24_33  and  C25_34 
REMARK   24  A    between atoms: C28_38  and  O6_39 
REMARK   25  A    between atoms: C29_42  and  O8_43 
REMARK   26  A    between atoms: C29_42  and  C35_49 
ROOT
ATOM      1  C14 non d ame     -10.403   8.650  69.437  0.00  0.00     0.089 C 
ATOM      2  H20 non d ame     -11.465   8.447  69.303  0.00  0.00     0.087 H 
ENDROOT
BRANCH   1   3
ATOM      3  N4  non d ame      -9.732   7.371  69.616  0.00  0.00    -0.346 N 
ATOM      4  C10 non d ame     -10.522   6.086  69.594  0.00  0.00     0.241 C 
ATOM      5  O4  non d ame     -11.697   6.108  69.433  0.00  0.00    -0.271 OA
ATOM      6  H19 non d ame      -8.731   7.374  69.754  0.00  0.00     0.163 HD
BRANCH   4   7
ATOM      7  C9  non d ame      -9.810   4.771  69.775  0.00  0.00     0.092 C 
ATOM      8  H11 non d ame     -10.458   3.963  69.434  0.00  0.00     0.088 H 
BRANCH   7   9
ATOM      9  N3  non d ame      -8.608   4.746  68.936  0.00  0.00    -0.346 N 
ATOM     10  C7  non d ame      -8.601   3.988  67.709  0.00  0.00     0.240 C 
ATOM     11  O3  non d ame      -9.554   3.392  67.382  0.00  0.00    -0.271 OA
ATOM     12  H10 non d ame      -7.778   5.254  69.206  0.00  0.00     0.163 HD
BRANCH  10  13
ATOM     13  C6  non d ame      -7.318   3.963  66.823  0.00  0.00     0.086 C 
ATOM     14  H6  non d ame      -7.517   3.639  65.801  0.00  0.00     0.086 H 
BRANCH  13  15
ATOM     15  N2  non d ame      -6.779   5.310  66.734  0.00  0.00    -0.343 N 
ATOM     16  C5  non d ame      -6.834   6.026  65.458  0.00  0.00     0.273 C 
ATOM     17  O2  non d ame      -7.311   5.509  64.508  0.00  0.00    -0.266 OA
ATOM     18  H5  non d ame      -6.371   5.743  67.550  0.00  0.00     0.163 HD
BRANCH  16  19
ATOM     19  C4  non d ame      -6.270   7.451  65.350  0.00  0.00     0.154 A 
ATOM     20  C1  non d ame      -5.875   8.137  64.158  0.00  0.00    -0.017 A 
ATOM     21  C2  non d ame      -5.432   9.404  64.597  0.00  0.00     0.077 A 
ATOM     22  H1  non d ame      -5.904   7.771  63.131  0.00  0.00     0.091 H 
ATOM     23  O1  non d ame      -5.563   9.433  65.891  0.00  0.00    -0.218 OA
ATOM     24  N1  non d ame      -6.050   8.305  66.354  0.00  0.00    -0.123 NA
BRANCH  21  25
ATOM     25  C3  non d ame      -4.900  10.528  63.718  0.00  0.00    -0.029 C 
ATOM     26  H2  non d ame      -4.537  11.342  64.347  0.00  0.00     0.036 H 
ATOM     27  H3  non d ame      -4.083  10.152  63.102  0.00  0.00     0.036 H 
ATOM     28  H4  non d ame      -5.700  10.896  63.074  0.00  0.00     0.036 H 
ENDBRANCH  21  25
ENDBRANCH  16  19
ENDBRANCH  13  15
BRANCH  13  29
ATOM     29  C8  non d ame      -6.298   3.038  67.437  0.00  0.00    -0.049 C 
ATOM     30  H7  non d ame      -5.589   3.619  68.028  0.00  0.00     0.030 H 
ATOM     31  H8  non d ame      -6.802   2.316  68.080  0.00  0.00     0.030 H 
ATOM     32  H9  non d ame      -5.764   2.510  66.647  0.00  0.00     0.030 H 
ENDBRANCH  13  29
ENDBRANCH  10  13
ENDBRANCH   7   9
BRANCH   7  33
ATOM     33  C11 non d ame      -9.402   4.604  71.268  0.00  0.00    -0.033 C 
ATOM     34  H12 non d ame      -9.936   5.361  71.842  0.00  0.00     0.042 H 
BRANCH  33  35
ATOM     35  C12 non d ame      -9.828   3.209  71.821  0.00  0.00    -0.071 C 
ATOM     36  H13 non d ame      -9.040   2.483  71.622  0.00  0.00     0.028 H 
ATOM     37  H14 non d ame      -9.992   3.279  72.896  0.00  0.00     0.028 H 
ATOM     38  H15 non d ame     -10.748   2.890  71.332  0.00  0.00     0.028 H 
ENDBRANCH  33  35
BRANCH  33  39
ATOM     39  C13 non d ame      -7.870   4.845  71.459  0.00  0.00    -0.071 C 
ATOM     40  H16 non d ame      -7.436   4.011  72.009  0.00  0.00     0.028 H 
ATOM     41  H17 non d ame      -7.390   4.926  70.483  0.00  0.00     0.028 H 
ATOM     42  H18 non d ame      -7.715   5.769  72.017  0.00  0.00     0.028 H 
ENDBRANCH  33  39
ENDBRANCH   7  33
ENDBRANCH   4   7
ENDBRANCH   1   3
BRANCH   1  43
ATOM     43  C15 non d ame      -9.781   9.367  68.204  0.00  0.00     0.240 C 
ATOM     44  O5  non d ame      -9.042   8.774  67.486  0.00  0.00    -0.271 OA
ATOM     45  N6  non d ame     -10.114  10.791  67.914  0.00  0.00    -0.355 N 
ATOM     46  H46 non d ame     -10.744  11.303  68.514  0.00  0.00     0.162 HD
BRANCH  45  47
ATOM     47  C20 non d ame      -9.516  11.458  66.737  0.00  0.00     0.013 C 
ATOM     48  H30 non d ame      -8.868  10.738  66.237  0.00  0.00     0.072 H 
BRANCH  47  49
ATOM     49  C21 non d ame      -8.707  12.650  67.196  0.00  0.00    -0.038 C 
ATOM     50  H31 non d ame      -8.773  12.650  68.284  0.00  0.00     0.036 H 
ATOM     51  H32 non d ame      -7.737  12.553  66.709  0.00  0.00     0.036 H 
BRANCH  49  52
ATOM     52  C22 non d ame      -9.301  13.995  66.723  0.00  0.00     0.018 C 
ATOM     53  H33 non d ame      -8.448  14.657  66.570  0.00  0.00     0.048 H 
ATOM     54  H34 non d ame      -9.957  13.750  65.887  0.00  0.00     0.048 H 
BRANCH  52  55
ATOM     55  C23 non d ame     -10.199  14.690  67.783  0.00  0.00     0.259 C 
ATOM     56  O7  non d ame     -10.633  15.779  67.585  0.00  0.00    -0.265 OA
BRANCH  55  57
ATOM     57  O8  non d ame     -10.488  14.016  69.002  0.00  0.00    -0.317 OA
BRANCH  57  58
ATOM     58  C29 non d ame     -11.883  13.797  69.230  0.00  0.00     0.052 C 
ATOM     59  H47 non d ame     -12.402  14.407  68.490  0.00  0.00     0.082 H 
ATOM     60  H48 non d ame     -12.015  12.716  69.234  0.00  0.00     0.082 H 
BRANCH  58  61
ATOM     61  C35 non d ame     -12.228  14.339  70.643  0.00  0.00    -0.034 A 
ATOM     62  C30 non d ame     -11.736  15.573  71.056  0.00  0.00    -0.075 A 
ATOM     63  C31 non d ame     -12.046  16.059  72.325  0.00  0.00    -0.082 A 
ATOM     64  H49 non d ame     -11.108  16.158  70.385  0.00  0.00     0.084 H 
ATOM     65  C32 non d ame     -12.850  15.305  73.184  0.00  0.00    -0.083 A 
ATOM     66  H50 non d ame     -11.660  17.027  72.644  0.00  0.00     0.083 H 
ATOM     67  C33 non d ame     -13.336  14.073  72.769  0.00  0.00    -0.082 A 
ATOM     68  H51 non d ame     -13.098  15.678  74.178  0.00  0.00     0.083 H 
ATOM     69  C34 non d ame     -13.031  13.584  71.500  0.00  0.00    -0.075 A 
ATOM     70  H52 non d ame     -13.962  13.486  73.442  0.00  0.00     0.083 H 
ATOM     71  H53 non d ame     -13.418  12.616  71.181  0.00  0.00     0.084 H 
ENDBRANCH  58  61
ENDBRANCH  57  58
ENDBRANCH  55  57
ENDBRANCH  52  55
ENDBRANCH  49  52
ENDBRANCH  47  49
BRANCH  47  72
ATOM     72  C24 non d ame     -10.621  11.924  65.791  0.00  0.00    -0.039 C 
ATOM     73  H35 non d ame     -11.554  11.744  66.325  0.00  0.00     0.036 H 
ATOM     74  H36 non d ame     -10.345  12.938  65.501  0.00  0.00     0.036 H 
BRANCH  72  75
ATOM     75  C25 non d ame     -10.664  11.045  64.453  0.00  0.00    -0.001 C 
ATOM     76  C26 non d ame      -9.347  10.063  64.384  0.00  0.00    -0.035 C 
ATOM     77  C27 non d ame      -8.747  10.222  63.180  0.00  0.00     0.085 C 
ATOM     78  H38 non d ame      -8.591  10.402  65.092  0.00  0.00     0.036 H 
ATOM     79  H39 non d ame      -9.659   9.019  64.377  0.00  0.00     0.036 H 
ATOM     80  N5  non d ame      -9.341  11.458  62.550  0.00  0.00    -0.049 N 
ATOM     81  H40 non d ame      -7.695  10.407  63.401  0.00  0.00     0.075 H 
ATOM     82  H41 non d ame      -9.035   9.351  62.594  0.00  0.00     0.075 H 
ATOM     83  C28 non d ame     -10.671  11.795  63.401  0.00  0.00     0.193 C 
ATOM     84  H42 non d ame      -8.673  12.202  62.691  0.00  0.00     0.280 HD
ATOM     85  H43 non d ame      -9.617  11.198  61.614  0.00  0.00     0.280 HD
ATOM     86  H44 non d ame     -11.658  11.565  63.000  0.00  0.00     0.129 H 
ATOM     87  H37 non d ame     -11.638  10.580  64.295  0.00  0.00     0.046 H 
BRANCH  83  88
ATOM     88  O6  non d ame     -10.707  13.185  63.730  0.00  0.00    -0.369 OA
ATOM     89  H45 non d ame      -9.850  13.577  63.553  0.00  0.00     0.212 HD
ENDBRANCH  83  88
ENDBRANCH  72  75
ENDBRANCH  47  72
ENDBRANCH  45  47
ENDBRANCH   1  43
BRANCH   1  90
ATOM     90  C16 non d ame     -10.193   9.498  70.681  0.00  0.00    -0.035 C 
ATOM     91  H21 non d ame      -9.307   9.087  71.165  0.00  0.00     0.037 H 
ATOM     92  H22 non d ame     -10.193  10.530  70.330  0.00  0.00     0.037 H 
BRANCH  90  93
ATOM     93  C17 non d ame     -11.355   9.385  71.719  0.00  0.00    -0.059 C 
ATOM     94  H23 non d ame     -11.271  10.230  72.403  0.00  0.00     0.038 H 
BRANCH  93  95
ATOM     95  C18 non d ame     -12.761   9.460  71.040  0.00  0.00    -0.073 C 
ATOM     96  H24 non d ame     -13.098  10.496  71.017  0.00  0.00     0.028 H 
ATOM     97  H25 non d ame     -12.693   9.077  70.022  0.00  0.00     0.028 H 
ATOM     98  H26 non d ame     -13.470   8.859  71.609  0.00  0.00     0.028 H 
ENDBRANCH  93  95
BRANCH  93  99
ATOM     99  C19 non d ame     -11.220   8.109  72.554  0.00  0.00    -0.073 C 
ATOM    100  H27 non d ame     -11.515   8.316  73.583  0.00  0.00     0.028 H 
ATOM    101  H28 non d ame     -11.866   7.335  72.139  0.00  0.00     0.028 H 
ATOM    102  H29 non d ame     -10.185   7.769  72.533  0.00  0.00     0.028 H 
ENDBRANCH  93  99
ENDBRANCH  90  93
ENDBRANCH   1  90
TORSDOF 26
ENDMDL
MODEL 9
REMARK VINA RESULT:      -6.1      3.649      8.857
REMARK  26 active torsions:
REMARK  status: ('A' for Active; 'I' for Inactive)
REMARK    1  A    between atoms: C2_2  and  C3_3 
REMARK    2  A    between atoms: C4_6  and  C5_7 
REMARK       I    between atoms: C5_7  and  N2_9 
REMARK    3  A    between atoms: N2_9  and  C6_10 
REMARK    4  A    between atoms: C6_10  and  C7_11 
REMARK    5  A    between atoms: C6_10  and  C8_13 
REMARK       I    between atoms: C7_11  and  N3_14 
REMARK    6  A    between atoms: N3_14  and  C9_15 
REMARK    7  A    between atoms: C9_15  and  C10_16 
REMARK    8  A    between atoms: C9_15  and  C11_18 
REMARK       I    between atoms: C10_16  and  N4_21 
REMARK    9  A    between atoms: C11_18  and  C12_19 
REMARK   10  A    between atoms: C11_18  and  C13_20 
REMARK   11  A    between atoms: N4_21  and  C14_22 
REMARK   12  A    between atoms: C14_22  and  C15_23 
REMARK   13  A    between atoms: C14_22  and  C16_25 
REMARK       I    between atoms: C15_23  and  N6_40 
REMARK   14  A    between atoms: C16_25  and  C17_26 
REMARK   15  A    between atoms: C17_26  and  C18_27 
REMARK   16  A    between atoms: C17_26  and  C19_28 
REMARK   17  A    between atoms: C20_29  and  C21_30 
REMARK   18  A    between atoms: C20_29  and  C24_33 
REMARK   19  A    between atoms: C20_29  and  N6_40 
REMARK   20  A    between atoms: C21_30  and  C22_31 
REMARK   21  A    between atoms: C22_31  and  C23_32 
REMARK   22  A    between atoms: C23_32  and  O8_43 
REMARK   23  A    between atoms: C24_33  and  C25_34 
REMARK   24  A    between atoms: C28_38  and  O6_39 
REMARK   25  A    between atoms: C29_42  and  O8_43 
REMARK   26  A    between atoms: C29_42  and  C35_49 
ROOT
ATOM      1  C14 non d ame      -8.165   9.408  64.394  0.00  0.00     0.089 C 
ATOM      2  H20 non d ame      -7.189   9.886  64.308  0.00  0.00     0.087 H 
ENDROOT
BRANCH   1   3
ATOM      3  N4  non d ame      -8.023   8.285  65.310  0.00  0.00    -0.346 N 
ATOM      4  C10 non d ame      -6.748   8.098  66.093  0.00  0.00     0.241 C 
ATOM      5  O4  non d ame      -5.848   8.861  65.966  0.00  0.00    -0.271 OA
ATOM      6  H19 non d ame      -8.799   7.645  65.401  0.00  0.00     0.163 HD
BRANCH   4   7
ATOM      7  C9  non d ame      -6.620   6.934  67.040  0.00  0.00     0.092 C 
ATOM      8  H11 non d ame      -6.189   7.281  67.979  0.00  0.00     0.088 H 
BRANCH   7   9
ATOM      9  N3  non d ame      -7.952   6.403  67.345  0.00  0.00    -0.346 N 
ATOM     10  C7  non d ame      -8.454   6.450  68.697  0.00  0.00     0.240 C 
ATOM     11  O3  non d ame      -7.798   6.909  69.551  0.00  0.00    -0.271 OA
ATOM     12  H10 non d ame      -8.529   6.003  66.619  0.00  0.00     0.163 HD
BRANCH  10  13
ATOM     13  C6  non d ame      -9.871   5.881  69.016  0.00  0.00     0.086 C 
ATOM     14  H6  non d ame      -9.857   5.134  69.810  0.00  0.00     0.086 H 
BRANCH  13  15
ATOM     15  N2  non d ame     -10.721   6.965  69.480  0.00  0.00    -0.343 N 
ATOM     16  C5  non d ame     -11.383   6.856  70.782  0.00  0.00     0.273 C 
ATOM     17  O2  non d ame     -11.228   5.891  71.447  0.00  0.00    -0.266 OA
ATOM     18  H5  non d ame     -10.850   7.785  68.904  0.00  0.00     0.163 HD
BRANCH  16  19
ATOM     19  C4  non d ame     -12.282   7.995  71.286  0.00  0.00     0.154 A 
ATOM     20  C1  non d ame     -11.992   9.396  71.274  0.00  0.00    -0.017 A 
ATOM     21  C2  non d ame     -13.132  10.009  71.841  0.00  0.00     0.077 A 
ATOM     22  H1  non d ame     -11.092   9.893  70.909  0.00  0.00     0.091 H 
ATOM     23  O1  non d ame     -13.972   9.062  72.138  0.00  0.00    -0.218 OA
ATOM     24  N1  non d ame     -13.499   7.878  71.824  0.00  0.00    -0.123 NA
BRANCH  21  25
ATOM     25  C3  non d ame     -13.337  11.502  72.061  0.00  0.00    -0.029 C 
ATOM     26  H2  non d ame     -12.472  11.916  72.579  0.00  0.00     0.036 H 
ATOM     27  H3  non d ame     -13.455  11.998  71.097  0.00  0.00     0.036 H 
ATOM     28  H4  non d ame     -14.232  11.661  72.663  0.00  0.00     0.036 H 
ENDBRANCH  21  25
ENDBRANCH  16  19
ENDBRANCH  13  15
BRANCH  13  29
ATOM     29  C8  non d ame     -10.458   5.260  67.774  0.00  0.00    -0.049 C 
ATOM     30  H7  non d ame     -11.454   4.876  67.995  0.00  0.00     0.030 H 
ATOM     31  H8  non d ame     -10.525   6.012  66.988  0.00  0.00     0.030 H 
ATOM     32  H9  non d ame      -9.820   4.442  67.441  0.00  0.00     0.030 H 
ENDBRANCH  13  29
ENDBRANCH  10  13
ENDBRANCH   7   9
BRANCH   7  33
ATOM     33  C11 non d ame      -5.760   5.818  66.378  0.00  0.00    -0.033 C 
ATOM     34  H12 non d ame      -5.482   6.164  65.382  0.00  0.00     0.042 H 
BRANCH  33  35
ATOM     35  C12 non d ame      -4.440   5.570  67.174  0.00  0.00    -0.071 C 
ATOM     36  H13 non d ame      -4.477   4.585  67.640  0.00  0.00     0.028 H 
ATOM     37  H14 non d ame      -3.591   5.616  66.492  0.00  0.00     0.028 H 
ATOM     38  H15 non d ame      -4.332   6.333  67.943  0.00  0.00     0.028 H 
ENDBRANCH  33  35
BRANCH  33  39
ATOM     39  C13 non d ame      -6.582   4.499  66.218  0.00  0.00    -0.071 C 
ATOM     40  H16 non d ame      -6.876   4.133  67.201  0.00  0.00     0.028 H 
ATOM     41  H17 non d ame      -7.473   4.695  65.622  0.00  0.00     0.028 H 
ATOM     42  H18 non d ame      -5.969   3.748  65.719  0.00  0.00     0.028 H 
ENDBRANCH  33  39
ENDBRANCH   7  33
ENDBRANCH   4   7
ENDBRANCH   1   3
BRANCH   1  43
ATOM     43  C15 non d ame      -9.245  10.374  64.959  0.00  0.00     0.240 C 
ATOM     44  O5  non d ame     -10.350   9.980  65.146  0.00  0.00    -0.271 OA
ATOM     45  N6  non d ame      -8.898  11.789  65.275  0.00  0.00    -0.355 N 
ATOM     46  H46 non d ame      -7.961  12.134  65.125  0.00  0.00     0.162 HD
BRANCH  45  47
ATOM     47  C20 non d ame      -9.936  12.695  65.813  0.00  0.00     0.013 C 
ATOM     48  H30 non d ame     -10.753  12.082  66.192  0.00  0.00     0.072 H 
BRANCH  47  49
ATOM     49  C21 non d ame     -10.437  13.595  64.705  0.00  0.00    -0.038 C 
ATOM     50  H31 non d ame      -9.563  14.146  64.356  0.00  0.00     0.036 H 
ATOM     51  H32 non d ame     -10.981  12.944  64.021  0.00  0.00     0.036 H 
BRANCH  49  52
ATOM     52  C22 non d ame     -11.449  14.650  65.202  0.00  0.00     0.018 C 
ATOM     53  H33 non d ame     -12.375  14.446  64.664  0.00  0.00     0.048 H 
ATOM     54  H34 non d ame     -11.426  14.592  66.290  0.00  0.00     0.048 H 
BRANCH  52  55
ATOM     55  C23 non d ame     -11.058  16.110  64.843  0.00  0.00     0.259 C 
ATOM     56  O7  non d ame     -11.605  16.681  63.955  0.00  0.00    -0.265 OA
BRANCH  55  57
ATOM     57  O8  non d ame     -10.027  16.757  65.580  0.00  0.00    -0.317 OA
BRANCH  57  58
ATOM     58  C29 non d ame     -10.506  17.662  66.578  0.00  0.00     0.052 C 
ATOM     59  H47 non d ame     -11.199  18.328  66.065  0.00  0.00     0.082 H 
ATOM     60  H48 non d ame     -10.857  17.038  67.399  0.00  0.00     0.082 H 
BRANCH  58  61
ATOM     61  C35 non d ame      -9.301  18.501  67.081  0.00  0.00    -0.034 A 
ATOM     62  C30 non d ame      -8.558  19.261  66.183  0.00  0.00    -0.075 A 
ATOM     63  C31 non d ame      -7.475  20.014  66.635  0.00  0.00    -0.082 A 
ATOM     64  H49 non d ame      -8.824  19.266  65.126  0.00  0.00     0.084 H 
ATOM     65  C32 non d ame      -7.135  20.004  67.990  0.00  0.00    -0.083 A 
ATOM     66  H50 non d ame      -6.896  20.610  65.929  0.00  0.00     0.083 H 
ATOM     67  C33 non d ame      -7.877  19.242  68.882  0.00  0.00    -0.082 A 
ATOM     68  H51 non d ame      -6.290  20.591  68.351  0.00  0.00     0.083 H 
ATOM     69  C34 non d ame      -8.961  18.489  68.435  0.00  0.00    -0.075 A 
ATOM     70  H52 non d ame      -7.607  19.235  69.938  0.00  0.00     0.083 H 
ATOM     71  H53 non d ame      -9.540  17.894  69.142  0.00  0.00     0.084 H 
ENDBRANCH  58  61
ENDBRANCH  57  58
ENDBRANCH  55  57
ENDBRANCH  52  55
ENDBRANCH  49  52
ENDBRANCH  47  49
BRANCH  47  72
ATOM     72  C24 non d ame      -9.347  13.547  66.935  0.00  0.00    -0.039 C 
ATOM     73  H35 non d ame      -8.267  13.410  66.867  0.00  0.00     0.036 H 
ATOM     74  H36 non d ame      -9.778  14.540  66.803  0.00  0.00     0.036 H 
BRANCH  72  75
ATOM     75  C25 non d ame      -9.800  13.022  68.379  0.00  0.00    -0.001 C 
ATOM     76  C26 non d ame     -10.908  11.818  68.214  0.00  0.00    -0.035 C 
ATOM     77  C27 non d ame     -11.986  12.108  68.982  0.00  0.00     0.085 C 
ATOM     78  H38 non d ame     -11.310  11.816  67.201  0.00  0.00     0.036 H 
ATOM     79  H39 non d ame     -10.525  10.895  68.650  0.00  0.00     0.036 H 
ATOM     80  N5  non d ame     -11.855  13.553  69.398  0.00  0.00    -0.049 N 
ATOM     81  H40 non d ame     -12.849  12.005  68.323  0.00  0.00     0.075 H 
ATOM     82  H41 non d ame     -11.894  11.475  69.863  0.00  0.00     0.075 H 
ATOM     83  C28 non d ame     -10.329  13.972  69.076  0.00  0.00     0.193 C 
ATOM     84  H42 non d ame     -12.467  14.082  68.794  0.00  0.00     0.280 HD
ATOM     85  H43 non d ame     -11.990  13.576  70.399  0.00  0.00     0.280 HD
ATOM     86  H44 non d ame      -9.597  14.058  69.880  0.00  0.00     0.129 H 
ATOM     87  H37 non d ame      -8.951  12.828  69.033  0.00  0.00     0.046 H 
BRANCH  83  88
ATOM     88  O6  non d ame     -10.296  15.226  68.393  0.00  0.00    -0.369 OA
ATOM     89  H45 non d ame      -9.545  15.738  68.701  0.00  0.00     0.212 HD
ENDBRANCH  83  88
ENDBRANCH  72  75
ENDBRANCH  47  72
ENDBRANCH  45  47
ENDBRANCH   1  43
BRANCH   1  90
ATOM     90  C16 non d ame      -8.605   8.887  63.036  0.00  0.00    -0.035 C 
ATOM     91  H21 non d ame      -8.593   7.800  63.125  0.00  0.00     0.037 H 
ATOM     92  H22 non d ame      -9.539   9.405  62.817  0.00  0.00     0.037 H 
BRANCH  90  93
ATOM     93  C17 non d ame      -7.620   9.245  61.878  0.00  0.00    -0.059 C 
ATOM     94  H23 non d ame      -7.800   8.545  61.062  0.00  0.00     0.038 H 
BRANCH  93  95
ATOM     95  C18 non d ame      -7.857  10.688  61.328  0.00  0.00    -0.073 C 
ATOM     96  H24 non d ame      -8.697  10.679  60.634  0.00  0.00     0.028 H 
ATOM     97  H25 non d ame      -8.076  11.361  62.157  0.00  0.00     0.028 H 
ATOM     98  H26 non d ame      -6.961  11.030  60.809  0.00  0.00     0.028 H 
ENDBRANCH  93  95
BRANCH  93  99
ATOM     99  C19 non d ame      -6.166   9.062  62.321  0.00  0.00    -0.073 C 
ATOM    100  H27 non d ame      -5.865   8.026  62.164  0.00  0.00     0.028 H 
ATOM    101  H28 non d ame      -5.523   9.720  61.736  0.00  0.00     0.028 H 
ATOM    102  H29 non d ame      -6.075   9.311  63.378  0.00  0.00     0.028 H 
ENDBRANCH  93  99
ENDBRANCH  90  93
ENDBRANCH   1  90
TORSDOF 26
ENDMDL
MODEL 10
REMARK VINA RESULT:      -6.1      2.988      6.280
REMARK  26 active torsions:
REMARK  status: ('A' for Active; 'I' for Inactive)
REMARK    1  A    between atoms: C2_2  and  C3_3 
REMARK    2  A    between atoms: C4_6  and  C5_7 
REMARK       I    between atoms: C5_7  and  N2_9 
REMARK    3  A    between atoms: N2_9  and  C6_10 
REMARK    4  A    between atoms: C6_10  and  C7_11 
REMARK    5  A    between atoms: C6_10  and  C8_13 
REMARK       I    between atoms: C7_11  and  N3_14 
REMARK    6  A    between atoms: N3_14  and  C9_15 
REMARK    7  A    between atoms: C9_15  and  C10_16 
REMARK    8  A    between atoms: C9_15  and  C11_18 
REMARK       I    between atoms: C10_16  and  N4_21 
REMARK    9  A    between atoms: C11_18  and  C12_19 
REMARK   10  A    between atoms: C11_18  and  C13_20 
REMARK   11  A    between atoms: N4_21  and  C14_22 
REMARK   12  A    between atoms: C14_22  and  C15_23 
REMARK   13  A    between atoms: C14_22  and  C16_25 
REMARK       I    between atoms: C15_23  and  N6_40 
REMARK   14  A    between atoms: C16_25  and  C17_26 
REMARK   15  A    between atoms: C17_26  and  C18_27 
REMARK   16  A    between atoms: C17_26  and  C19_28 
REMARK   17  A    between atoms: C20_29  and  C21_30 
REMARK   18  A    between atoms: C20_29  and  C24_33 
REMARK   19  A    between atoms: C20_29  and  N6_40 
REMARK   20  A    between atoms: C21_30  and  C22_31 
REMARK   21  A    between atoms: C22_31  and  C23_32 
REMARK   22  A    between atoms: C23_32  and  O8_43 
REMARK   23  A    between atoms: C24_33  and  C25_34 
REMARK   24  A    between atoms: C28_38  and  O6_39 
REMARK   25  A    between atoms: C29_42  and  O8_43 
REMARK   26  A    between atoms: C29_42  and  C35_49 
ROOT
ATOM      1  C14 non d ame      -6.333   9.918  68.281  0.00  0.00     0.089 C 
ATOM      2  H20 non d ame      -5.729   9.032  68.086  0.00  0.00     0.087 H 
ENDROOT
BRANCH   1   3
ATOM      3  N4  non d ame      -6.901  10.348  67.011  0.00  0.00    -0.346 N 
ATOM      4  C10 non d ame      -7.140   9.350  65.907  0.00  0.00     0.241 C 
ATOM      5  O4  non d ame      -6.865   8.206  66.061  0.00  0.00    -0.271 OA
ATOM      6  H19 non d ame      -7.126  11.327  66.899  0.00  0.00     0.163 HD
BRANCH   4   7
ATOM      7  C9  non d ame      -7.733   9.812  64.602  0.00  0.00     0.092 C 
ATOM      8  H11 non d ame      -8.331   9.007  64.174  0.00  0.00     0.088 H 
BRANCH   7   9
ATOM      9  N3  non d ame      -8.638  10.940  64.847  0.00  0.00    -0.346 N 
ATOM     10  C7  non d ame      -9.880  11.039  64.121  0.00  0.00     0.240 C 
ATOM     11  O3  non d ame     -10.166  10.221  63.334  0.00  0.00    -0.271 OA
ATOM     12  H10 non d ame      -8.403  11.654  65.522  0.00  0.00     0.163 HD
BRANCH  10  13
ATOM     13  C6  non d ame     -10.837  12.242  64.384  0.00  0.00     0.086 C 
ATOM     14  H6  non d ame     -11.475  12.091  65.255  0.00  0.00     0.086 H 
BRANCH  13  15
ATOM     15  N2  non d ame     -10.040  13.428  64.653  0.00  0.00    -0.343 N 
ATOM     16  C5  non d ame     -10.609  14.512  65.457  0.00  0.00     0.273 C 
ATOM     17  O2  non d ame     -11.709  14.422  65.879  0.00  0.00    -0.266 OA
ATOM     18  H5  non d ame      -9.101  13.497  64.286  0.00  0.00     0.163 HD
BRANCH  16  19
ATOM     19  C4  non d ame      -9.777  15.771  65.751  0.00  0.00     0.154 A 
ATOM     20  C1  non d ame      -8.477  15.828  66.345  0.00  0.00    -0.017 A 
ATOM     21  C2  non d ame      -8.160  17.204  66.393  0.00  0.00     0.077 A 
ATOM     22  H1  non d ame      -7.858  14.999  66.688  0.00  0.00     0.091 H 
ATOM     23  O1  non d ame      -9.166  17.852  65.883  0.00  0.00    -0.218 OA
ATOM     24  N1  non d ame     -10.123  17.037  65.501  0.00  0.00    -0.123 NA
BRANCH  21  25
ATOM     25  C3  non d ame      -6.876  17.815  66.940  0.00  0.00    -0.029 C 
ATOM     26  H2  non d ame      -6.171  17.973  66.123  0.00  0.00     0.036 H 
ATOM     27  H3  non d ame      -7.102  18.770  67.414  0.00  0.00     0.036 H 
ATOM     28  H4  non d ame      -6.436  17.140  67.675  0.00  0.00     0.036 H 
ENDBRANCH  21  25
ENDBRANCH  16  19
ENDBRANCH  13  15
BRANCH  13  29
ATOM     29  C8  non d ame     -11.708  12.469  63.175  0.00  0.00    -0.049 C 
ATOM     30  H7  non d ame     -11.669  11.593  62.529  0.00  0.00     0.030 H 
ATOM     31  H8  non d ame     -12.736  12.640  63.495  0.00  0.00     0.030 H 
ATOM     32  H9  non d ame     -11.349  13.340  62.627  0.00  0.00     0.030 H 
ENDBRANCH  13  29
ENDBRANCH  10  13
ENDBRANCH   7   9
BRANCH   7  33
ATOM     33  C11 non d ame      -6.592  10.266  63.645  0.00  0.00    -0.033 C 
ATOM     34  H12 non d ame      -6.897  11.210  63.194  0.00  0.00     0.042 H 
BRANCH  33  35
ATOM     35  C12 non d ame      -5.265  10.524  64.425  0.00  0.00    -0.071 C 
ATOM     36  H13 non d ame      -5.324  10.053  65.406  0.00  0.00     0.028 H 
ATOM     37  H14 non d ame      -4.429  10.100  63.869  0.00  0.00     0.028 H 
ATOM     38  H15 non d ame      -5.117  11.597  64.544  0.00  0.00     0.028 H 
ENDBRANCH  33  35
BRANCH  33  39
ATOM     39  C13 non d ame      -6.381   9.228  62.495  0.00  0.00    -0.071 C 
ATOM     40  H16 non d ame      -5.341   8.901  62.488  0.00  0.00     0.028 H 
ATOM     41  H17 non d ame      -7.031   8.368  62.658  0.00  0.00     0.028 H 
ATOM     42  H18 non d ame      -6.623   9.692  61.539  0.00  0.00     0.028 H 
ENDBRANCH  33  39
ENDBRANCH   7  33
ENDBRANCH   4   7
ENDBRANCH   1   3
BRANCH   1  43
ATOM     43  C15 non d ame      -7.498   9.629  69.271  0.00  0.00     0.240 C 
ATOM     44  O5  non d ame      -7.407   9.970  70.406  0.00  0.00    -0.271 OA
ATOM     45  N6  non d ame      -8.730   8.934  68.802  0.00  0.00    -0.355 N 
ATOM     46  H46 non d ame      -8.821   8.644  67.840  0.00  0.00     0.162 HD
BRANCH  45  47
ATOM     47  C20 non d ame      -9.829   8.667  69.756  0.00  0.00     0.013 C 
ATOM     48  H30 non d ame     -10.597   8.098  69.233  0.00  0.00     0.072 H 
BRANCH  47  49
ATOM     49  C21 non d ame     -10.400   9.981  70.240  0.00  0.00    -0.038 C 
ATOM     50  H31 non d ame     -11.108   9.722  71.028  0.00  0.00     0.036 H 
ATOM     51  H32 non d ame      -9.539  10.611  70.464  0.00  0.00     0.036 H 
BRANCH  49  52
ATOM     52  C22 non d ame     -11.210  10.719  69.151  0.00  0.00     0.018 C 
ATOM     53  H33 non d ame     -11.362   9.993  68.353  0.00  0.00     0.048 H 
ATOM     54  H34 non d ame     -12.068  11.153  69.665  0.00  0.00     0.048 H 
BRANCH  52  55
ATOM     55  C23 non d ame     -10.450  11.912  68.507  0.00  0.00     0.259 C 
ATOM     56  O7  non d ame      -9.725  11.736  67.582  0.00  0.00    -0.265 OA
BRANCH  55  57
ATOM     57  O8  non d ame     -10.621  13.218  69.043  0.00  0.00    -0.317 OA
BRANCH  57  58
ATOM     58  C29 non d ame     -11.985  13.643  69.118  0.00  0.00     0.052 C 
ATOM     59  H47 non d ame     -12.077  14.467  68.411  0.00  0.00     0.082 H 
ATOM     60  H48 non d ame     -12.582  12.741  68.985  0.00  0.00     0.082 H 
BRANCH  58  61
ATOM     61  C35 non d ame     -12.237  14.193  70.548  0.00  0.00    -0.034 A 
ATOM     62  C30 non d ame     -13.036  13.481  71.437  0.00  0.00    -0.075 A 
ATOM     63  C31 non d ame     -13.263  13.975  72.720  0.00  0.00    -0.082 A 
ATOM     64  H49 non d ame     -13.485  12.537  71.128  0.00  0.00     0.084 H 
ATOM     65  C32 non d ame     -12.689  15.187  73.114  0.00  0.00    -0.083 A 
ATOM     66  H50 non d ame     -13.888  13.414  73.415  0.00  0.00     0.083 H 
ATOM     67  C33 non d ame     -11.894  15.895  72.222  0.00  0.00    -0.082 A 
ATOM     68  H51 non d ame     -12.860  15.579  74.116  0.00  0.00     0.083 H 
ATOM     69  C34 non d ame     -11.663  15.404  70.939  0.00  0.00    -0.075 A 
ATOM     70  H52 non d ame     -11.450  16.841  72.531  0.00  0.00     0.083 H 
ATOM     71  H53 non d ame     -11.037  15.965  70.244  0.00  0.00     0.084 H 
ENDBRANCH  58  61
ENDBRANCH  57  58
ENDBRANCH  55  57
ENDBRANCH  52  55
ENDBRANCH  49  52
ENDBRANCH  47  49
BRANCH  47  72
ATOM     72  C24 non d ame      -9.297   7.873  70.947  0.00  0.00    -0.039 C 
ATOM     73  H35 non d ame      -8.422   7.341  70.574  0.00  0.00     0.036 H 
ATOM     74  H36 non d ame      -9.192   8.597  71.755  0.00  0.00     0.036 H 
BRANCH  72  75
ATOM     75  C25 non d ame     -10.348   6.767  71.438  0.00  0.00    -0.001 C 
ATOM     76  C26 non d ame     -11.682   6.796  70.477  0.00  0.00    -0.035 C 
ATOM     77  C27 non d ame     -12.783   6.883  71.261  0.00  0.00     0.085 C 
ATOM     78  H38 non d ame     -11.706   7.720  69.900  0.00  0.00     0.036 H 
ATOM     79  H39 non d ame     -11.802   5.836  69.975  0.00  0.00     0.036 H 
ATOM     80  N5  non d ame     -12.309   7.245  72.648  0.00  0.00    -0.049 N 
ATOM     81  H40 non d ame     -13.364   7.712  70.856  0.00  0.00     0.075 H 
ATOM     82  H41 non d ame     -13.206   5.879  71.281  0.00  0.00     0.075 H 
ATOM     83  C28 non d ame     -10.717   6.982  72.657  0.00  0.00     0.193 C 
ATOM     84  H42 non d ame     -12.472   8.236  72.756  0.00  0.00     0.280 HD
ATOM     85  H43 non d ame     -12.747   6.590  73.280  0.00  0.00     0.280 HD
ATOM     86  H44 non d ame     -10.304   6.100  73.147  0.00  0.00     0.129 H 
ATOM     87  H37 non d ame      -9.878   5.798  71.606  0.00  0.00     0.046 H 
BRANCH  83  88
ATOM     88  O6  non d ame     -10.036   8.095  73.238  0.00  0.00    -0.369 OA
ATOM     89  H45 non d ame     -10.371   8.910  72.856  0.00  0.00     0.212 HD
ENDBRANCH  83  88
ENDBRANCH  72  75
ENDBRANCH  47  72
ENDBRANCH  45  47
ENDBRANCH   1  43
BRANCH   1  90
ATOM     90  C16 non d ame      -5.456  11.029  68.834  0.00  0.00    -0.035 C 
ATOM     91  H21 non d ame      -5.467  11.811  68.074  0.00  0.00     0.037 H 
ATOM     92  H22 non d ame      -5.844  11.234  69.832  0.00  0.00     0.037 H 
BRANCH  90  93
ATOM     93  C17 non d ame      -3.962  10.614  69.019  0.00  0.00    -0.059 C 
ATOM     94  H23 non d ame      -3.377  11.527  69.133  0.00  0.00     0.038 H 
BRANCH  93  95
ATOM     95  C18 non d ame      -3.745   9.747  70.300  0.00  0.00    -0.073 C 
ATOM     96  H24 non d ame      -4.649   9.175  70.508  0.00  0.00     0.028 H 
ATOM     97  H25 non d ame      -2.911   9.063  70.139  0.00  0.00     0.028 H 
ATOM     98  H26 non d ame      -3.523  10.398  71.146  0.00  0.00     0.028 H 
ENDBRANCH  93  95
BRANCH  93  99
ATOM     99  C19 non d ame      -3.437   9.891  67.776  0.00  0.00    -0.073 C 
ATOM    100  H27 non d ame      -3.796   8.861  67.777  0.00  0.00     0.028 H 
ATOM    101  H28 non d ame      -3.796  10.400  66.881  0.00  0.00     0.028 H 
ATOM    102  H29 non d ame      -2.348   9.896  67.785  0.00  0.00     0.028 H 
ENDBRANCH  93  99
ENDBRANCH  90  93
ENDBRANCH   1  90
TORSDOF 26
ENDMDL
MODEL 11
REMARK VINA RESULT:      -6.1      2.124      6.178
REMARK  26 active torsions:
REMARK  status: ('A' for Active; 'I' for Inactive)
REMARK    1  A    between atoms: C2_2  and  C3_3 
REMARK    2  A    between atoms: C4_6  and  C5_7 
REMARK       I    between atoms: C5_7  and  N2_9 
REMARK    3  A    between atoms: N2_9  and  C6_10 
REMARK    4  A    between atoms: C6_10  and  C7_11 
REMARK    5  A    between atoms: C6_10  and  C8_13 
REMARK       I    between atoms: C7_11  and  N3_14 
REMARK    6  A    between atoms: N3_14  and  C9_15 
REMARK    7  A    between atoms: C9_15  and  C10_16 
REMARK    8  A    between atoms: C9_15  and  C11_18 
REMARK       I    between atoms: C10_16  and  N4_21 
REMARK    9  A    between atoms: C11_18  and  C12_19 
REMARK   10  A    between atoms: C11_18  and  C13_20 
REMARK   11  A    between atoms: N4_21  and  C14_22 
REMARK   12  A    between atoms: C14_22  and  C15_23 
REMARK   13  A    between atoms: C14_22  and  C16_25 
REMARK       I    between atoms: C15_23  and  N6_40 
REMARK   14  A    between atoms: C16_25  and  C17_26 
REMARK   15  A    between atoms: C17_26  and  C18_27 
REMARK   16  A    between atoms: C17_26  and  C19_28 
REMARK   17  A    between atoms: C20_29  and  C21_30 
REMARK   18  A    between atoms: C20_29  and  C24_33 
REMARK   19  A    between atoms: C20_29  and  N6_40 
REMARK   20  A    between atoms: C21_30  and  C22_31 
REMARK   21  A    between atoms: C22_31  and  C23_32 
REMARK   22  A    between atoms: C23_32  and  O8_43 
REMARK   23  A    between atoms: C24_33  and  C25_34 
REMARK   24  A    between atoms: C28_38  and  O6_39 
REMARK   25  A    between atoms: C29_42  and  O8_43 
REMARK   26  A    between atoms: C29_42  and  C35_49 
ROOT
ATOM      1  C14 non d ame      -8.769  17.486  67.845  0.00  0.00     0.089 C 
ATOM      2  H20 non d ame      -9.074  18.080  68.707  0.00  0.00     0.087 H 
ENDROOT
BRANCH   1   3
ATOM      3  N4  non d ame      -7.371  17.129  68.033  0.00  0.00    -0.346 N 
ATOM      4  C10 non d ame      -6.444  18.047  68.789  0.00  0.00     0.241 C 
ATOM      5  O4  non d ame      -6.847  19.070  69.236  0.00  0.00    -0.271 OA
ATOM      6  H19 non d ame      -7.047  16.254  67.643  0.00  0.00     0.163 HD
BRANCH   4   7
ATOM      7  C9  non d ame      -5.002  17.658  68.979  0.00  0.00     0.092 C 
ATOM      8  H11 non d ame      -4.597  18.189  69.841  0.00  0.00     0.088 H 
BRANCH   7   9
ATOM      9  N3  non d ame      -4.916  16.225  69.275  0.00  0.00    -0.346 N 
ATOM     10  C7  non d ame      -3.918  15.737  70.195  0.00  0.00     0.240 C 
ATOM     11  O3  non d ame      -3.175  16.484  70.704  0.00  0.00    -0.271 OA
ATOM     12  H10 non d ame      -5.550  15.568  68.842  0.00  0.00     0.163 HD
BRANCH  10  13
ATOM     13  C6  non d ame      -3.830  14.210  70.503  0.00  0.00     0.086 C 
ATOM     14  H6  non d ame      -4.610  13.872  71.185  0.00  0.00     0.086 H 
BRANCH  13  15
ATOM     15  N2  non d ame      -4.009  13.468  69.266  0.00  0.00    -0.343 N 
ATOM     16  C5  non d ame      -5.176  12.597  69.111  0.00  0.00     0.273 C 
ATOM     17  O2  non d ame      -5.963  12.497  69.987  0.00  0.00    -0.266 OA
ATOM     18  H5  non d ame      -3.331  13.557  68.523  0.00  0.00     0.163 HD
BRANCH  16  19
ATOM     19  C4  non d ame      -5.379  11.808  67.808  0.00  0.00     0.154 A 
ATOM     20  C1  non d ame      -5.982  10.518  67.663  0.00  0.00    -0.017 A 
ATOM     21  C2  non d ame      -5.926  10.244  66.278  0.00  0.00     0.077 A 
ATOM     22  H1  non d ame      -6.396   9.879  68.443  0.00  0.00     0.091 H 
ATOM     23  O1  non d ame      -5.357  11.264  65.704  0.00  0.00    -0.218 OA
ATOM     24  N1  non d ame      -5.029  12.189  66.576  0.00  0.00    -0.123 NA
BRANCH  21  25
ATOM     25  C3  non d ame      -6.438   8.987  65.586  0.00  0.00    -0.029 C 
ATOM     26  H2  non d ame      -7.497   9.105  65.356  0.00  0.00     0.036 H 
ATOM     27  H3  non d ame      -5.881   8.829  64.663  0.00  0.00     0.036 H 
ATOM     28  H4  non d ame      -6.302   8.129  66.244  0.00  0.00     0.036 H 
ENDBRANCH  21  25
ENDBRANCH  16  19
ENDBRANCH  13  15
BRANCH  13  29
ATOM     29  C8  non d ame      -2.485  13.893  71.105  0.00  0.00    -0.049 C 
ATOM     30  H7  non d ame      -2.282  12.827  71.000  0.00  0.00     0.030 H 
ATOM     31  H8  non d ame      -1.712  14.463  70.590  0.00  0.00     0.030 H 
ATOM     32  H9  non d ame      -2.489  14.158  72.162  0.00  0.00     0.030 H 
ENDBRANCH  13  29
ENDBRANCH  10  13
ENDBRANCH   7   9
BRANCH   7  33
ATOM     33  C11 non d ame      -4.206  17.964  67.676  0.00  0.00    -0.033 C 
ATOM     34  H12 non d ame      -4.840  18.585  67.043  0.00  0.00     0.042 H 
BRANCH  33  35
ATOM     35  C12 non d ame      -2.908  18.774  67.980  0.00  0.00    -0.071 C 
ATOM     36  H13 non d ame      -2.916  19.702  67.407  0.00  0.00     0.028 H 
ATOM     37  H14 non d ame      -2.865  19.005  69.044  0.00  0.00     0.028 H 
ATOM     38  H15 non d ame      -2.037  18.182  67.701  0.00  0.00     0.028 H 
ENDBRANCH  33  35
BRANCH  33  39
ATOM     39  C13 non d ame      -3.884  16.649  66.896  0.00  0.00    -0.071 C 
ATOM     40  H16 non d ame      -3.724  15.836  67.603  0.00  0.00     0.028 H 
ATOM     41  H17 non d ame      -4.720  16.402  66.240  0.00  0.00     0.028 H 
ATOM     42  H18 non d ame      -2.984  16.793  66.298  0.00  0.00     0.028 H 
ENDBRANCH  33  39
ENDBRANCH   7  33
ENDBRANCH   4   7
ENDBRANCH   1   3
BRANCH   1  43
ATOM     43  C15 non d ame      -9.601  16.179  67.708  0.00  0.00     0.240 C 
ATOM     44  O5  non d ame     -10.785  16.238  67.629  0.00  0.00    -0.271 OA
ATOM     45  N6  non d ame      -8.919  14.854  67.666  0.00  0.00    -0.355 N 
ATOM     46  H46 non d ame      -7.913  14.792  67.727  0.00  0.00     0.162 HD
BRANCH  45  47
ATOM     47  C20 non d ame      -9.724  13.620  67.534  0.00  0.00     0.013 C 
ATOM     48  H30 non d ame     -10.716  13.822  67.938  0.00  0.00     0.072 H 
BRANCH  47  49
ATOM     49  C21 non d ame      -9.064  12.507  68.315  0.00  0.00    -0.038 C 
ATOM     50  H31 non d ame      -8.167  12.245  67.755  0.00  0.00     0.036 H 
ATOM     51  H32 non d ame      -8.981  12.875  69.338  0.00  0.00     0.036 H 
BRANCH  49  52
ATOM     52  C22 non d ame      -9.927  11.228  68.381  0.00  0.00     0.018 C 
ATOM     53  H33 non d ame     -10.000  10.868  67.354  0.00  0.00     0.048 H 
ATOM     54  H34 non d ame      -9.468  10.601  69.146  0.00  0.00     0.048 H 
BRANCH  52  55
ATOM     55  C23 non d ame     -11.386  11.480  68.852  0.00  0.00     0.259 C 
ATOM     56  O7  non d ame     -12.302  11.028  68.246  0.00  0.00    -0.265 OA
BRANCH  55  57
ATOM     57  O8  non d ame     -11.617  12.270  70.012  0.00  0.00    -0.317 OA
BRANCH  57  58
ATOM     58  C29 non d ame     -12.566  13.322  69.821  0.00  0.00     0.052 C 
ATOM     59  H47 non d ame     -12.223  13.873  68.945  0.00  0.00     0.082 H 
ATOM     60  H48 non d ame     -13.544  12.840  69.813  0.00  0.00     0.082 H 
BRANCH  58  61
ATOM     61  C35 non d ame     -12.493  14.263  71.053  0.00  0.00    -0.034 A 
ATOM     62  C30 non d ame     -11.745  15.434  70.992  0.00  0.00    -0.075 A 
ATOM     63  C31 non d ame     -11.679  16.279  72.099  0.00  0.00    -0.082 A 
ATOM     64  H49 non d ame     -11.211  15.690  70.077  0.00  0.00     0.084 H 
ATOM     65  C32 non d ame     -12.364  15.948  73.271  0.00  0.00    -0.083 A 
ATOM     66  H50 non d ame     -11.094  17.197  72.047  0.00  0.00     0.083 H 
ATOM     67  C33 non d ame     -13.107  14.777  73.328  0.00  0.00    -0.082 A 
ATOM     68  H51 non d ame     -12.318  16.604  74.141  0.00  0.00     0.083 H 
ATOM     69  C34 non d ame     -13.177  13.930  72.224  0.00  0.00    -0.075 A 
ATOM     70  H52 non d ame     -13.638  14.520  74.246  0.00  0.00     0.083 H 
ATOM     71  H53 non d ame     -13.763  13.012  72.277  0.00  0.00     0.084 H 
ENDBRANCH  58  61
ENDBRANCH  57  58
ENDBRANCH  55  57
ENDBRANCH  52  55
ENDBRANCH  49  52
ENDBRANCH  47  49
BRANCH  47  72
ATOM     72  C24 non d ame      -9.822  13.222  66.062  0.00  0.00    -0.039 C 
ATOM     73  H35 non d ame      -9.310  14.012  65.513  0.00  0.00     0.036 H 
ATOM     74  H36 non d ame      -9.453  12.198  66.014  0.00  0.00     0.036 H 
BRANCH  72  75
ATOM     75  C25 non d ame     -11.341  13.201  65.554  0.00  0.00    -0.001 C 
ATOM     76  C26 non d ame     -11.624  11.830  64.692  0.00  0.00    -0.035 C 
ATOM     77  C27 non d ame     -12.183  12.168  63.505  0.00  0.00     0.085 C 
ATOM     78  H38 non d ame     -10.681  11.366  64.407  0.00  0.00     0.036 H 
ATOM     79  H39 non d ame     -12.399  11.236  65.178  0.00  0.00     0.036 H 
ATOM     80  N5  non d ame     -12.006  13.658  63.342  0.00  0.00    -0.049 N 
ATOM     81  H40 non d ame     -11.590  11.654  62.747  0.00  0.00     0.075 H 
ATOM     82  H41 non d ame     -13.244  11.946  63.609  0.00  0.00     0.075 H 
ATOM     83  C28 non d ame     -11.595  14.218  64.800  0.00  0.00     0.193 C 
ATOM     84  H42 non d ame     -11.224  13.787  62.716  0.00  0.00     0.280 HD
ATOM     85  H43 non d ame     -12.914  14.029  63.100  0.00  0.00     0.280 HD
ATOM     86  H44 non d ame     -12.324  14.745  65.416  0.00  0.00     0.129 H 
ATOM     87  H37 non d ame     -12.046  13.442  66.349  0.00  0.00     0.046 H 
BRANCH  83  88
ATOM     88  O6  non d ame     -10.477  15.102  64.691  0.00  0.00    -0.369 OA
ATOM     89  H45 non d ame     -10.569  15.814  65.328  0.00  0.00     0.212 HD
ENDBRANCH  83  88
ENDBRANCH  72  75
ENDBRANCH  47  72
ENDBRANCH  45  47
ENDBRANCH   1  43
BRANCH   1  90
ATOM     90  C16 non d ame      -8.903  18.313  66.576  0.00  0.00    -0.035 C 
ATOM     91  H21 non d ame      -7.881  18.535  66.266  0.00  0.00     0.037 H 
ATOM     92  H22 non d ame      -9.557  17.735  65.923  0.00  0.00     0.037 H 
BRANCH  90  93
ATOM     93  C17 non d ame      -9.605  19.691  66.797  0.00  0.00    -0.059 C 
ATOM     94  H23 non d ame      -8.861  20.471  66.641  0.00  0.00     0.038 H 
BRANCH  93  95
ATOM     95  C18 non d ame     -10.767  19.930  65.780  0.00  0.00    -0.073 C 
ATOM     96  H24 non d ame     -10.355  20.030  64.776  0.00  0.00     0.028 H 
ATOM     97  H25 non d ame     -11.455  19.084  65.809  0.00  0.00     0.028 H 
ATOM     98  H26 non d ame     -11.301  20.842  66.047  0.00  0.00     0.028 H 
ENDBRANCH  93  95
BRANCH  93  99
ATOM     99  C19 non d ame     -10.107  19.823  68.237  0.00  0.00    -0.073 C 
ATOM    100  H27 non d ame     -10.420  20.852  68.420  0.00  0.00     0.028 H 
ATOM    101  H28 non d ame     -10.953  19.153  68.390  0.00  0.00     0.028 H 
ATOM    102  H29 non d ame      -9.306  19.560  68.927  0.00  0.00     0.028 H 
ENDBRANCH  93  99
ENDBRANCH  90  93
ENDBRANCH   1  90
TORSDOF 26
ENDMDL
MODEL 12
REMARK VINA RESULT:      -6.0      2.633      6.529
REMARK  26 active torsions:
REMARK  status: ('A' for Active; 'I' for Inactive)
REMARK    1  A    between atoms: C2_2  and  C3_3 
REMARK    2  A    between atoms: C4_6  and  C5_7 
REMARK       I    between atoms: C5_7  and  N2_9 
REMARK    3  A    between atoms: N2_9  and  C6_10 
REMARK    4  A    between atoms: C6_10  and  C7_11 
REMARK    5  A    between atoms: C6_10  and  C8_13 
REMARK       I    between atoms: C7_11  and  N3_14 
REMARK    6  A    between atoms: N3_14  and  C9_15 
REMARK    7  A    between atoms: C9_15  and  C10_16 
REMARK    8  A    between atoms: C9_15  and  C11_18 
REMARK       I    between atoms: C10_16  and  N4_21 
REMARK    9  A    between atoms: C11_18  and  C12_19 
REMARK   10  A    between atoms: C11_18  and  C13_20 
REMARK   11  A    between atoms: N4_21  and  C14_22 
REMARK   12  A    between atoms: C14_22  and  C15_23 
REMARK   13  A    between atoms: C14_22  and  C16_25 
REMARK       I    between atoms: C15_23  and  N6_40 
REMARK   14  A    between atoms: C16_25  and  C17_26 
REMARK   15  A    between atoms: C17_26  and  C18_27 
REMARK   16  A    between atoms: C17_26  and  C19_28 
REMARK   17  A    between atoms: C20_29  and  C21_30 
REMARK   18  A    between atoms: C20_29  and  C24_33 
REMARK   19  A    between atoms: C20_29  and  N6_40 
REMARK   20  A    between atoms: C21_30  and  C22_31 
REMARK   21  A    between atoms: C22_31  and  C23_32 
REMARK   22  A    between atoms: C23_32  and  O8_43 
REMARK   23  A    between atoms: C24_33  and  C25_34 
REMARK   24  A    between atoms: C28_38  and  O6_39 
REMARK   25  A    between atoms: C29_42  and  O8_43 
REMARK   26  A    between atoms: C29_42  and  C35_49 
ROOT
ATOM      1  C14 non d ame      -8.256   9.879  65.212  0.00  0.00     0.089 C 
ATOM      2  H20 non d ame      -9.002   9.084  65.190  0.00  0.00     0.087 H 
ENDROOT
BRANCH   1   3
ATOM      3  N4  non d ame      -8.969  11.148  65.249  0.00  0.00    -0.346 N 
ATOM      4  C10 non d ame     -10.224  11.293  66.072  0.00  0.00     0.241 C 
ATOM      5  O4  non d ame     -10.643  10.373  66.694  0.00  0.00    -0.271 OA
ATOM      6  H19 non d ame      -8.597  11.917  64.710  0.00  0.00     0.163 HD
BRANCH   4   7
ATOM      7  C9  non d ame     -10.945  12.615  66.103  0.00  0.00     0.092 C 
ATOM      8  H11 non d ame     -11.994  12.445  66.348  0.00  0.00     0.088 H 
BRANCH   7   9
ATOM      9  N3  non d ame     -10.382  13.455  67.164  0.00  0.00    -0.346 N 
ATOM     10  C7  non d ame     -11.223  13.912  68.244  0.00  0.00     0.240 C 
ATOM     11  O3  non d ame     -12.355  13.614  68.273  0.00  0.00    -0.271 OA
ATOM     12  H10 non d ame      -9.408  13.720  67.152  0.00  0.00     0.163 HD
BRANCH  10  13
ATOM     13  C6  non d ame     -10.618  14.808  69.369  0.00  0.00     0.086 C 
ATOM     14  H6  non d ame      -9.665  14.432  69.740  0.00  0.00     0.086 H 
BRANCH  13  15
ATOM     15  N2  non d ame     -10.362  16.133  68.829  0.00  0.00    -0.343 N 
ATOM     16  C5  non d ame      -8.981  16.601  68.694  0.00  0.00     0.273 C 
ATOM     17  O2  non d ame      -8.084  15.906  69.024  0.00  0.00    -0.266 OA
ATOM     18  H5  non d ame     -11.134  16.722  68.552  0.00  0.00     0.163 HD
BRANCH  16  19
ATOM     19  C4  non d ame      -8.694  17.999  68.123  0.00  0.00     0.154 A 
ATOM     20  C1  non d ame      -7.469  18.733  68.208  0.00  0.00    -0.017 A 
ATOM     21  C2  non d ame      -7.725  19.947  67.532  0.00  0.00     0.077 A 
ATOM     22  H1  non d ame      -6.537  18.431  68.686  0.00  0.00     0.091 H 
ATOM     23  O1  non d ame      -8.955  19.904  67.112  0.00  0.00    -0.218 OA
ATOM     24  N1  non d ame      -9.542  18.778  67.445  0.00  0.00    -0.123 NA
BRANCH  21  25
ATOM     25  C3  non d ame      -6.741  21.092  67.332  0.00  0.00    -0.029 C 
ATOM     26  H2  non d ame      -7.231  21.902  66.791  0.00  0.00     0.036 H 
ATOM     27  H3  non d ame      -6.405  21.455  68.303  0.00  0.00     0.036 H 
ATOM     28  H4  non d ame      -5.883  20.739  66.759  0.00  0.00     0.036 H 
ENDBRANCH  21  25
ENDBRANCH  16  19
ENDBRANCH  13  15
BRANCH  13  29
ATOM     29  C8  non d ame     -11.589  14.898  70.519  0.00  0.00    -0.049 C 
ATOM     30  H7  non d ame     -12.496  14.345  70.274  0.00  0.00     0.030 H 
ATOM     31  H8  non d ame     -11.134  14.471  71.413  0.00  0.00     0.030 H 
ATOM     32  H9  non d ame     -11.839  15.942  70.702  0.00  0.00     0.030 H 
ENDBRANCH  13  29
ENDBRANCH  10  13
ENDBRANCH   7   9
BRANCH   7  33
ATOM     33  C11 non d ame     -10.773  13.332  64.732  0.00  0.00    -0.033 C 
ATOM     34  H12 non d ame      -9.770  13.107  64.367  0.00  0.00     0.042 H 
BRANCH  33  35
ATOM     35  C12 non d ame     -11.787  12.791  63.676  0.00  0.00    -0.071 C 
ATOM     36  H13 non d ame     -12.581  13.524  63.527  0.00  0.00     0.028 H 
ATOM     37  H14 non d ame     -11.271  12.619  62.732  0.00  0.00     0.028 H 
ATOM     38  H15 non d ame     -12.218  11.856  64.032  0.00  0.00     0.028 H 
ENDBRANCH  33  35
BRANCH  33  39
ATOM     39  C13 non d ame     -10.893  14.881  64.892  0.00  0.00    -0.071 C 
ATOM     40  H16 non d ame     -11.040  15.337  63.913  0.00  0.00     0.028 H 
ATOM     41  H17 non d ame     -11.744  15.115  65.533  0.00  0.00     0.028 H 
ATOM     42  H18 non d ame      -9.981  15.272  65.342  0.00  0.00     0.028 H 
ENDBRANCH  33  39
ENDBRANCH   7  33
ENDBRANCH   4   7
ENDBRANCH   1   3
BRANCH   1  43
ATOM     43  C15 non d ame      -7.339   9.790  66.466  0.00  0.00     0.240 C 
ATOM     44  O5  non d ame      -6.227  10.206  66.416  0.00  0.00    -0.271 OA
ATOM     45  N6  non d ame      -7.851   9.192  67.732  0.00  0.00    -0.355 N 
ATOM     46  H46 non d ame      -8.795   8.839  67.788  0.00  0.00     0.162 HD
BRANCH  45  47
ATOM     47  C20 non d ame      -6.967   9.115  68.915  0.00  0.00     0.013 C 
ATOM     48  H30 non d ame      -5.935   9.131  68.565  0.00  0.00     0.072 H 
BRANCH  47  49
ATOM     49  C21 non d ame      -7.240   7.828  69.661  0.00  0.00    -0.038 C 
ATOM     50  H31 non d ame      -6.268   7.352  69.791  0.00  0.00     0.036 H 
ATOM     51  H32 non d ame      -7.830   8.113  70.532  0.00  0.00     0.036 H 
BRANCH  49  52
ATOM     52  C22 non d ame      -8.106   6.839  68.851  0.00  0.00     0.018 C 
ATOM     53  H33 non d ame      -8.040   7.169  67.814  0.00  0.00     0.048 H 
ATOM     54  H34 non d ame      -7.757   5.845  69.129  0.00  0.00     0.048 H 
BRANCH  52  55
ATOM     55  C23 non d ame      -9.615   6.882  69.219  0.00  0.00     0.259 C 
ATOM     56  O7  non d ame     -10.434   7.096  68.385  0.00  0.00    -0.265 OA
BRANCH  55  57
ATOM     57  O8  non d ame     -10.009   6.674  70.570  0.00  0.00    -0.317 OA
BRANCH  57  58
ATOM     58  C29 non d ame      -9.742   7.784  71.432  0.00  0.00     0.052 C 
ATOM     59  H47 non d ame      -9.707   7.373  72.440  0.00  0.00     0.082 H 
ATOM     60  H48 non d ame      -8.865   8.278  71.014  0.00  0.00     0.082 H 
BRANCH  58  61
ATOM     61  C35 non d ame     -10.945   8.760  71.341  0.00  0.00    -0.034 A 
ATOM     62  C30 non d ame     -10.861   9.898  70.546  0.00  0.00    -0.075 A 
ATOM     63  C31 non d ame     -11.941  10.776  70.464  0.00  0.00    -0.082 A 
ATOM     64  H49 non d ame      -9.948  10.103  69.985  0.00  0.00     0.084 H 
ATOM     65  C32 non d ame     -13.109  10.512  71.185  0.00  0.00    -0.083 A 
ATOM     66  H50 non d ame     -11.873  11.665  69.838  0.00  0.00     0.083 H 
ATOM     67  C33 non d ame     -13.188   9.377  71.980  0.00  0.00    -0.082 A 
ATOM     68  H51 non d ame     -13.959  11.193  71.127  0.00  0.00     0.083 H 
ATOM     69  C34 non d ame     -12.111   8.497  72.063  0.00  0.00    -0.075 A 
ATOM     70  H52 non d ame     -14.100   9.176  72.543  0.00  0.00     0.083 H 
ATOM     71  H53 non d ame     -12.181   7.607  72.689  0.00  0.00     0.084 H 
ENDBRANCH  58  61
ENDBRANCH  57  58
ENDBRANCH  55  57
ENDBRANCH  52  55
ENDBRANCH  49  52
ENDBRANCH  47  49
BRANCH  47  72
ATOM     72  C24 non d ame      -7.232  10.304  69.836  0.00  0.00    -0.039 C 
ATOM     73  H35 non d ame      -8.226  10.664  69.567  0.00  0.00     0.036 H 
ATOM     74  H36 non d ame      -7.041   9.938  70.845  0.00  0.00     0.036 H 
BRANCH  72  75
ATOM     75  C25 non d ame      -6.207  11.505  69.566  0.00  0.00    -0.001 C 
ATOM     76  C26 non d ame      -5.486  11.954  70.974  0.00  0.00    -0.035 C 
ATOM     77  C27 non d ame      -5.609  13.295  71.118  0.00  0.00     0.085 C 
ATOM     78  H38 non d ame      -6.042  11.555  71.822  0.00  0.00     0.036 H 
ATOM     79  H39 non d ame      -4.409  11.802  70.908  0.00  0.00     0.036 H 
ATOM     80  N5  non d ame      -6.627  13.757  70.105  0.00  0.00    -0.049 N 
ATOM     81  H40 non d ame      -6.011  13.445  72.121  0.00  0.00     0.075 H 
ATOM     82  H41 non d ame      -4.634  13.706  70.855  0.00  0.00     0.075 H 
ATOM     83  C28 non d ame      -6.810  12.532  69.069  0.00  0.00     0.193 C 
ATOM     84  H42 non d ame      -7.494  13.885  70.607  0.00  0.00     0.280 HD
ATOM     85  H43 non d ame      -6.210  14.534  69.613  0.00  0.00     0.280 HD
ATOM     86  H44 non d ame      -6.353  12.571  68.080  0.00  0.00     0.129 H 
ATOM     87  H37 non d ame      -5.553  11.306  68.716  0.00  0.00     0.046 H 
BRANCH  83  88
ATOM     88  O6  non d ame      -8.198  12.284  68.839  0.00  0.00    -0.369 OA
ATOM     89  H45 non d ame      -8.301  11.757  68.044  0.00  0.00     0.212 HD
ENDBRANCH  83  88
ENDBRANCH  72  75
ENDBRANCH  47  72
ENDBRANCH  45  47
ENDBRANCH   1  43
BRANCH   1  90
ATOM     90  C16 non d ame      -7.407   9.823  63.953  0.00  0.00    -0.035 C 
ATOM     91  H21 non d ame      -6.879  10.776  63.918  0.00  0.00     0.037 H 
ATOM     92  H22 non d ame      -6.845   8.892  64.024  0.00  0.00     0.037 H 
BRANCH  90  93
ATOM     93  C17 non d ame      -8.243   9.735  62.636  0.00  0.00    -0.059 C 
ATOM     94  H23 non d ame      -9.291   9.625  62.917  0.00  0.00     0.038 H 
BRANCH  93  95
ATOM     95  C18 non d ame      -8.115  11.028  61.769  0.00  0.00    -0.073 C 
ATOM     96  H24 non d ame      -8.802  10.967  60.924  0.00  0.00     0.028 H 
ATOM     97  H25 non d ame      -8.362  11.899  62.376  0.00  0.00     0.028 H 
ATOM     98  H26 non d ame      -7.093  11.118  61.401  0.00  0.00     0.028 H 
ENDBRANCH  93  95
BRANCH  93  99
ATOM     99  C19 non d ame      -7.858   8.495  61.826  0.00  0.00    -0.073 C 
ATOM    100  H27 non d ame      -6.867   8.155  62.130  0.00  0.00     0.028 H 
ATOM    101  H28 non d ame      -8.585   7.702  62.007  0.00  0.00     0.028 H 
ATOM    102  H29 non d ame      -7.848   8.742  60.765  0.00  0.00     0.028 H 
ENDBRANCH  93  99
ENDBRANCH  90  93
ENDBRANCH   1  90
TORSDOF 26
ENDMDL
MODEL 13
REMARK VINA RESULT:      -6.0      3.578      6.754
REMARK  26 active torsions:
REMARK  status: ('A' for Active; 'I' for Inactive)
REMARK    1  A    between atoms: C2_2  and  C3_3 
REMARK    2  A    between atoms: C4_6  and  C5_7 
REMARK       I    between atoms: C5_7  and  N2_9 
REMARK    3  A    between atoms: N2_9  and  C6_10 
REMARK    4  A    between atoms: C6_10  and  C7_11 
REMARK    5  A    between atoms: C6_10  and  C8_13 
REMARK       I    between atoms: C7_11  and  N3_14 
REMARK    6  A    between atoms: N3_14  and  C9_15 
REMARK    7  A    between atoms: C9_15  and  C10_16 
REMARK    8  A    between atoms: C9_15  and  C11_18 
REMARK       I    between atoms: C10_16  and  N4_21 
REMARK    9  A    between atoms: C11_18  and  C12_19 
REMARK   10  A    between atoms: C11_18  and  C13_20 
REMARK   11  A    between atoms: N4_21  and  C14_22 
REMARK   12  A    between atoms: C14_22  and  C15_23 
REMARK   13  A    between atoms: C14_22  and  C16_25 
REMARK       I    between atoms: C15_23  and  N6_40 
REMARK   14  A    between atoms: C16_25  and  C17_26 
REMARK   15  A    between atoms: C17_26  and  C18_27 
REMARK   16  A    between atoms: C17_26  and  C19_28 
REMARK   17  A    between atoms: C20_29  and  C21_30 
REMARK   18  A    between atoms: C20_29  and  C24_33 
REMARK   19  A    between atoms: C20_29  and  N6_40 
REMARK   20  A    between atoms: C21_30  and  C22_31 
REMARK   21  A    between atoms: C22_31  and  C23_32 
REMARK   22  A    between atoms: C23_32  and  O8_43 
REMARK   23  A    between atoms: C24_33  and  C25_34 
REMARK   24  A    between atoms: C28_38  and  O6_39 
REMARK   25  A    between atoms: C29_42  and  O8_43 
REMARK   26  A    between atoms: C29_42  and  C35_49 
ROOT
ATOM      1  C14 non d ame      -7.670   9.271  68.892  0.00  0.00     0.089 C 
ATOM      2  H20 non d ame      -6.737   8.708  68.864  0.00  0.00     0.087 H 
ENDROOT
BRANCH   1   3
ATOM      3  N4  non d ame      -8.477   8.840  67.761  0.00  0.00    -0.346 N 
ATOM      4  C10 non d ame      -7.820   8.265  66.532  0.00  0.00     0.241 C 
ATOM      5  O4  non d ame      -6.639   8.161  66.476  0.00  0.00    -0.271 OA
ATOM      6  H19 non d ame      -9.480   8.940  67.827  0.00  0.00     0.163 HD
BRANCH   4   7
ATOM      7  C9  non d ame      -8.671   7.819  65.372  0.00  0.00     0.092 C 
ATOM      8  H11 non d ame      -9.659   7.542  65.738  0.00  0.00     0.088 H 
BRANCH   7   9
ATOM      9  N3  non d ame      -8.851   8.935  64.439  0.00  0.00    -0.346 N 
ATOM     10  C7  non d ame      -9.809   9.973  64.734  0.00  0.00     0.240 C 
ATOM     11  O3  non d ame     -10.444   9.923  65.716  0.00  0.00    -0.271 OA
ATOM     12  H10 non d ame      -8.311   8.991  63.588  0.00  0.00     0.163 HD
BRANCH  10  13
ATOM     13  C6  non d ame      -9.998  11.157  63.736  0.00  0.00     0.086 C 
ATOM     14  H6  non d ame     -11.006  11.205  63.326  0.00  0.00     0.086 H 
BRANCH  13  15
ATOM     15  N2  non d ame      -9.776  12.408  64.442  0.00  0.00    -0.343 N 
ATOM     16  C5  non d ame     -10.828  13.427  64.452  0.00  0.00     0.273 C 
ATOM     17  O2  non d ame     -11.847  13.232  63.886  0.00  0.00    -0.266 OA
ATOM     18  H5  non d ame      -8.901  12.568  64.920  0.00  0.00     0.163 HD
BRANCH  16  19
ATOM     19  C4  non d ame     -10.607  14.754  65.195  0.00  0.00     0.154 A 
ATOM     20  C1  non d ame     -10.195  14.925  66.555  0.00  0.00    -0.017 A 
ATOM     21  C2  non d ame     -10.143  16.324  66.745  0.00  0.00     0.077 A 
ATOM     22  H1  non d ame      -9.969  14.153  67.290  0.00  0.00     0.091 H 
ATOM     23  O1  non d ame     -10.485  16.881  65.621  0.00  0.00    -0.218 OA
ATOM     24  N1  non d ame     -10.761  15.986  64.701  0.00  0.00    -0.123 NA
BRANCH  21  25
ATOM     25  C3  non d ame      -9.756  17.045  68.030  0.00  0.00    -0.029 C 
ATOM     26  H2  non d ame     -10.597  17.030  68.723  0.00  0.00     0.036 H 
ATOM     27  H3  non d ame      -8.902  16.543  68.485  0.00  0.00     0.036 H 
ATOM     28  H4  non d ame      -9.491  18.078  67.802  0.00  0.00     0.036 H 
ENDBRANCH  21  25
ENDBRANCH  16  19
ENDBRANCH  13  15
BRANCH  13  29
ATOM     29  C8  non d ame      -9.015  11.023  62.601  0.00  0.00    -0.049 C 
ATOM     30  H7  non d ame      -9.315  11.678  61.782  0.00  0.00     0.030 H 
ATOM     31  H8  non d ame      -8.021  11.305  62.946  0.00  0.00     0.030 H 
ATOM     32  H9  non d ame      -9.001   9.991  62.253  0.00  0.00     0.030 H 
ENDBRANCH  13  29
ENDBRANCH  10  13
ENDBRANCH   7   9
BRANCH   7  33
ATOM     33  C11 non d ame      -7.968   6.640  64.636  0.00  0.00    -0.033 C 
ATOM     34  H12 non d ame      -6.954   6.565  65.029  0.00  0.00     0.042 H 
BRANCH  33  35
ATOM     35  C12 non d ame      -8.684   5.283  64.923  0.00  0.00    -0.071 C 
ATOM     36  H13 non d ame      -8.188   4.487  64.368  0.00  0.00     0.028 H 
ATOM     37  H14 non d ame      -8.636   5.066  65.990  0.00  0.00     0.028 H 
ATOM     38  H15 non d ame      -9.726   5.350  64.611  0.00  0.00     0.028 H 
ENDBRANCH  33  35
BRANCH  33  39
ATOM     39  C13 non d ame      -7.872   6.917  63.101  0.00  0.00    -0.071 C 
ATOM     40  H16 non d ame      -7.430   6.054  62.603  0.00  0.00     0.028 H 
ATOM     41  H17 non d ame      -8.871   7.095  62.701  0.00  0.00     0.028 H 
ATOM     42  H18 non d ame      -7.250   7.795  62.929  0.00  0.00     0.028 H 
ENDBRANCH  33  39
ENDBRANCH   7  33
ENDBRANCH   4   7
ENDBRANCH   1   3
BRANCH   1  43
ATOM     43  C15 non d ame      -8.472   9.013  70.200  0.00  0.00     0.240 C 
ATOM     44  O5  non d ame      -8.132   9.531  71.214  0.00  0.00    -0.271 OA
ATOM     45  N6  non d ame      -9.670   8.126  70.186  0.00  0.00    -0.355 N 
ATOM     46  H46 non d ame      -9.972   7.684  69.329  0.00  0.00     0.162 HD
BRANCH  45  47
ATOM     47  C20 non d ame     -10.423   7.892  71.437  0.00  0.00     0.013 C 
ATOM     48  H30 non d ame     -11.097   7.051  71.271  0.00  0.00     0.072 H 
BRANCH  47  49
ATOM     49  C21 non d ame     -11.219   9.131  71.781  0.00  0.00    -0.038 C 
ATOM     50  H31 non d ame     -11.724   8.905  72.720  0.00  0.00     0.036 H 
ATOM     51  H32 non d ame     -10.512   9.959  71.727  0.00  0.00     0.036 H 
BRANCH  49  52
ATOM     52  C22 non d ame     -12.328   9.436  70.750  0.00  0.00     0.018 C 
ATOM     53  H33 non d ame     -12.374   8.563  70.098  0.00  0.00     0.048 H 
ATOM     54  H34 non d ame     -13.202   9.726  71.334  0.00  0.00     0.048 H 
BRANCH  52  55
ATOM     55  C23 non d ame     -12.010  10.645  69.827  0.00  0.00     0.259 C 
ATOM     56  O7  non d ame     -11.176  10.558  68.985  0.00  0.00    -0.265 OA
BRANCH  55  57
ATOM     57  O8  non d ame     -12.719  11.865  70.008  0.00  0.00    -0.317 OA
BRANCH  57  58
ATOM     58  C29 non d ame     -11.924  13.036  69.799  0.00  0.00     0.052 C 
ATOM     59  H47 non d ame     -10.890  12.716  69.923  0.00  0.00     0.082 H 
ATOM     60  H48 non d ame     -12.256  13.452  68.848  0.00  0.00     0.082 H 
BRANCH  58  61
ATOM     61  C35 non d ame     -12.263  14.050  70.924  0.00  0.00    -0.034 A 
ATOM     62  C30 non d ame     -11.677  15.312  70.923  0.00  0.00    -0.075 A 
ATOM     63  C31 non d ame     -11.981  16.224  71.933  0.00  0.00    -0.082 A 
ATOM     64  H49 non d ame     -10.981  15.587  70.131  0.00  0.00     0.084 H 
ATOM     65  C32 non d ame     -12.873  15.868  72.949  0.00  0.00    -0.083 A 
ATOM     66  H50 non d ame     -11.523  17.213  71.929  0.00  0.00     0.083 H 
ATOM     67  C33 non d ame     -13.452  14.606  72.947  0.00  0.00    -0.082 A 
ATOM     68  H51 non d ame     -13.116  16.575  73.742  0.00  0.00     0.083 H 
ATOM     69  C34 non d ame     -13.153  13.693  71.939  0.00  0.00    -0.075 A 
ATOM     70  H52 non d ame     -14.146  14.331  73.742  0.00  0.00     0.083 H 
ATOM     71  H53 non d ame     -13.613  12.705  71.944  0.00  0.00     0.084 H 
ENDBRANCH  58  61
ENDBRANCH  57  58
ENDBRANCH  55  57
ENDBRANCH  52  55
ENDBRANCH  49  52
ENDBRANCH  47  49
BRANCH  47  72
ATOM     72  C24 non d ame      -9.452   7.578  72.573  0.00  0.00    -0.039 C 
ATOM     73  H35 non d ame      -8.475   7.906  72.218  0.00  0.00     0.036 H 
ATOM     74  H36 non d ame      -9.890   8.032  73.462  0.00  0.00     0.036 H 
BRANCH  72  75
ATOM     75  C25 non d ame      -9.351   6.003  72.848  0.00  0.00    -0.001 C 
ATOM     76  C26 non d ame     -10.713   5.252  72.311  0.00  0.00    -0.035 C 
ATOM     77  C27 non d ame     -11.205   4.477  73.306  0.00  0.00     0.085 C 
ATOM     78  H38 non d ame     -11.502   5.984  72.144  0.00  0.00     0.036 H 
ATOM     79  H39 non d ame     -10.461   4.535  71.530  0.00  0.00     0.036 H 
ATOM     80  N5  non d ame     -10.492   4.881  74.574  0.00  0.00    -0.049 N 
ATOM     81  H40 non d ame     -12.259   4.744  73.390  0.00  0.00     0.075 H 
ATOM     82  H41 non d ame     -10.920   3.457  73.049  0.00  0.00     0.075 H 
ATOM     83  C28 non d ame      -9.218   5.756  74.108  0.00  0.00     0.193 C 
ATOM     84  H42 non d ame     -11.127   5.482  75.080  0.00  0.00     0.280 HD
ATOM     85  H43 non d ame     -10.158   4.028  74.999  0.00  0.00     0.280 HD
ATOM     86  H44 non d ame      -8.217   5.325  74.121  0.00  0.00     0.129 H 
ATOM     87  H37 non d ame      -8.396   5.588  72.525  0.00  0.00     0.046 H 
BRANCH  83  88
ATOM     88  O6  non d ame      -9.130   6.951  74.885  0.00  0.00    -0.369 OA
ATOM     89  H45 non d ame      -9.307   6.748  75.806  0.00  0.00     0.212 HD
ENDBRANCH  83  88
ENDBRANCH  72  75
ENDBRANCH  47  72
ENDBRANCH  45  47
ENDBRANCH   1  43
BRANCH   1  90
ATOM     90  C16 non d ame      -7.378  10.757  68.757  0.00  0.00    -0.035 C 
ATOM     91  H21 non d ame      -7.576  10.996  67.712  0.00  0.00     0.037 H 
ATOM     92  H22 non d ame      -7.958  11.238  69.545  0.00  0.00     0.037 H 
BRANCH  90  93
ATOM     93  C17 non d ame      -5.884  11.129  69.019  0.00  0.00    -0.059 C 
ATOM     94  H23 non d ame      -5.519  11.669  68.146  0.00  0.00     0.038 H 
BRANCH  93  95
ATOM     95  C18 non d ame      -5.718  12.062  70.261  0.00  0.00    -0.073 C 
ATOM     96  H24 non d ame      -4.743  11.891  70.716  0.00  0.00     0.028 H 
ATOM     97  H25 non d ame      -5.794  13.103  69.945  0.00  0.00     0.028 H 
ATOM     98  H26 non d ame      -6.502  11.845  70.986  0.00  0.00     0.028 H 
ENDBRANCH  93  95
BRANCH  93  99
ATOM     99  C19 non d ame      -5.025   9.870  69.166  0.00  0.00    -0.073 C 
ATOM    100  H27 non d ame      -4.922   9.384  68.195  0.00  0.00     0.028 H 
ATOM    101  H28 non d ame      -4.039  10.145  69.541  0.00  0.00     0.028 H 
ATOM    102  H29 non d ame      -5.501   9.185  69.867  0.00  0.00     0.028 H 
ENDBRANCH  93  99
ENDBRANCH  90  93
ENDBRANCH   1  90
TORSDOF 26
ENDMDL
MODEL 14
REMARK VINA RESULT:      -6.0      4.893     10.250
REMARK  26 active torsions:
REMARK  status: ('A' for Active; 'I' for Inactive)
REMARK    1  A    between atoms: C2_2  and  C3_3 
REMARK    2  A    between atoms: C4_6  and  C5_7 
REMARK       I    between atoms: C5_7  and  N2_9 
REMARK    3  A    between atoms: N2_9  and  C6_10 
REMARK    4  A    between atoms: C6_10  and  C7_11 
REMARK    5  A    between atoms: C6_10  and  C8_13 
REMARK       I    between atoms: C7_11  and  N3_14 
REMARK    6  A    between atoms: N3_14  and  C9_15 
REMARK    7  A    between atoms: C9_15  and  C10_16 
REMARK    8  A    between atoms: C9_15  and  C11_18 
REMARK       I    between atoms: C10_16  and  N4_21 
REMARK    9  A    between atoms: C11_18  and  C12_19 
REMARK   10  A    between atoms: C11_18  and  C13_20 
REMARK   11  A    between atoms: N4_21  and  C14_22 
REMARK   12  A    between atoms: C14_22  and  C15_23 
REMARK   13  A    between atoms: C14_22  and  C16_25 
REMARK       I    between atoms: C15_23  and  N6_40 
REMARK   14  A    between atoms: C16_25  and  C17_26 
REMARK   15  A    between atoms: C17_26  and  C18_27 
REMARK   16  A    between atoms: C17_26  and  C19_28 
REMARK   17  A    between atoms: C20_29  and  C21_30 
REMARK   18  A    between atoms: C20_29  and  C24_33 
REMARK   19  A    between atoms: C20_29  and  N6_40 
REMARK   20  A    between atoms: C21_30  and  C22_31 
REMARK   21  A    between atoms: C22_31  and  C23_32 
REMARK   22  A    between atoms: C23_32  and  O8_43 
REMARK   23  A    between atoms: C24_33  and  C25_34 
REMARK   24  A    between atoms: C28_38  and  O6_39 
REMARK   25  A    between atoms: C29_42  and  O8_43 
REMARK   26  A    between atoms: C29_42  and  C35_49 
ROOT
ATOM      1  C14 non d ame      -6.941   8.532  64.739  0.00  0.00     0.089 C 
ATOM      2  H20 non d ame      -6.168   9.256  65.000  0.00  0.00     0.087 H 
ENDROOT
BRANCH   1   3
ATOM      3  N4  non d ame      -6.726   7.347  65.558  0.00  0.00    -0.346 N 
ATOM      4  C10 non d ame      -6.297   7.484  66.997  0.00  0.00     0.241 C 
ATOM      5  O4  non d ame      -6.129   8.557  67.474  0.00  0.00    -0.271 OA
ATOM      6  H19 non d ame      -6.872   6.443  65.132  0.00  0.00     0.163 HD
BRANCH   4   7
ATOM      7  C9  non d ame      -6.085   6.247  67.831  0.00  0.00     0.092 C 
ATOM      8  H11 non d ame      -5.028   6.161  68.082  0.00  0.00     0.088 H 
BRANCH   7   9
ATOM      9  N3  non d ame      -6.821   6.376  69.092  0.00  0.00    -0.346 N 
ATOM     10  C7  non d ame      -6.104   6.419  70.343  0.00  0.00     0.240 C 
ATOM     11  O3  non d ame      -4.936   6.350  70.353  0.00  0.00    -0.271 OA
ATOM     12  H10 non d ame      -7.829   6.435  69.100  0.00  0.00     0.163 HD
BRANCH  10  13
ATOM     13  C6  non d ame      -6.893   6.553  71.683  0.00  0.00     0.086 C 
ATOM     14  H6  non d ame      -6.550   7.389  72.292  0.00  0.00     0.086 H 
BRANCH  13  15
ATOM     15  N2  non d ame      -8.293   6.804  71.382  0.00  0.00    -0.343 N 
ATOM     16  C5  non d ame      -8.940   8.005  71.915  0.00  0.00     0.273 C 
ATOM     17  O2  non d ame      -8.327   8.760  72.587  0.00  0.00    -0.266 OA
ATOM     18  H5  non d ame      -8.809   6.152  70.810  0.00  0.00     0.163 HD
BRANCH  16  19
ATOM     19  C4  non d ame     -10.419   8.284  71.605  0.00  0.00     0.154 A 
ATOM     20  C1  non d ame     -11.536   7.433  71.879  0.00  0.00    -0.017 A 
ATOM     21  C2  non d ame     -12.661   8.144  71.404  0.00  0.00     0.077 A 
ATOM     22  H1  non d ame     -11.531   6.450  72.351  0.00  0.00     0.091 H 
ATOM     23  O1  non d ame     -12.229   9.271  70.917  0.00  0.00    -0.218 OA
ATOM     24  N1  non d ame     -10.924   9.375  71.023  0.00  0.00    -0.123 NA
BRANCH  21  25
ATOM     25  C3  non d ame     -14.109   7.678  71.454  0.00  0.00    -0.029 C 
ATOM     26  H2  non d ame     -14.753   8.517  71.722  0.00  0.00     0.036 H 
ATOM     27  H3  non d ame     -14.401   7.293  70.477  0.00  0.00     0.036 H 
ATOM     28  H4  non d ame     -14.212   6.889  72.200  0.00  0.00     0.036 H 
ENDBRANCH  21  25
ENDBRANCH  16  19
ENDBRANCH  13  15
BRANCH  13  29
ATOM     29  C8  non d ame      -6.756   5.280  72.479  0.00  0.00    -0.049 C 
ATOM     30  H7  non d ame      -6.088   5.450  73.324  0.00  0.00     0.030 H 
ATOM     31  H8  non d ame      -7.736   4.974  72.846  0.00  0.00     0.030 H 
ATOM     32  H9  non d ame      -6.344   4.497  71.843  0.00  0.00     0.030 H 
ENDBRANCH  13  29
ENDBRANCH  10  13
ENDBRANCH   7   9
BRANCH   7  33
ATOM     33  C11 non d ame      -6.606   5.002  67.054  0.00  0.00    -0.033 C 
ATOM     34  H12 non d ame      -7.242   5.362  66.245  0.00  0.00     0.042 H 
BRANCH  33  35
ATOM     35  C12 non d ame      -5.432   4.203  66.408  0.00  0.00    -0.071 C 
ATOM     36  H13 non d ame      -5.823   3.548  65.629  0.00  0.00     0.028 H 
ATOM     37  H14 non d ame      -4.716   4.899  65.971  0.00  0.00     0.028 H 
ATOM     38  H15 non d ame      -4.937   3.604  67.172  0.00  0.00     0.028 H 
ENDBRANCH  33  35
BRANCH  33  39
ATOM     39  C13 non d ame      -7.472   4.088  67.980  0.00  0.00    -0.071 C 
ATOM     40  H16 non d ame      -7.978   4.701  68.725  0.00  0.00     0.028 H 
ATOM     41  H17 non d ame      -8.213   3.561  67.378  0.00  0.00     0.028 H 
ATOM     42  H18 non d ame      -6.828   3.365  68.480  0.00  0.00     0.028 H 
ENDBRANCH  33  39
ENDBRANCH   7  33
ENDBRANCH   4   7
ENDBRANCH   1   3
BRANCH   1  43
ATOM     43  C15 non d ame      -8.372   9.073  65.018  0.00  0.00     0.240 C 
ATOM     44  O5  non d ame      -9.217   8.963  64.190  0.00  0.00    -0.271 OA
ATOM     45  N6  non d ame      -8.691   9.723  66.321  0.00  0.00    -0.355 N 
ATOM     46  H46 non d ame      -7.982   9.818  67.034  0.00  0.00     0.162 HD
BRANCH  45  47
ATOM     47  C20 non d ame     -10.057  10.232  66.571  0.00  0.00     0.013 C 
ATOM     48  H30 non d ame      -9.974  11.127  67.188  0.00  0.00     0.072 H 
BRANCH  47  49
ATOM     49  C21 non d ame     -10.858   9.176  67.300  0.00  0.00    -0.038 C 
ATOM     50  H31 non d ame     -11.159   9.632  68.243  0.00  0.00     0.036 H 
ATOM     51  H32 non d ame     -11.614   8.839  66.590  0.00  0.00     0.036 H 
BRANCH  49  52
ATOM     52  C22 non d ame     -10.018   7.933  67.665  0.00  0.00     0.018 C 
ATOM     53  H33 non d ame      -9.274   7.835  66.874  0.00  0.00     0.048 H 
ATOM     54  H34 non d ame      -9.699   8.085  68.697  0.00  0.00     0.048 H 
BRANCH  52  55
ATOM     55  C23 non d ame     -10.827   6.606  67.658  0.00  0.00     0.259 C 
ATOM     56  O7  non d ame     -11.210   6.128  68.676  0.00  0.00    -0.265 OA
BRANCH  55  57
ATOM     57  O8  non d ame     -11.095   5.960  66.420  0.00  0.00    -0.317 OA
BRANCH  57  58
ATOM     58  C29 non d ame     -10.462   4.685  66.279  0.00  0.00     0.052 C 
ATOM     59  H47 non d ame      -9.550   4.741  66.874  0.00  0.00     0.082 H 
ATOM     60  H48 non d ame     -11.227   3.947  66.523  0.00  0.00     0.082 H 
BRANCH  58  61
ATOM     61  C35 non d ame     -10.066   4.507  64.789  0.00  0.00    -0.034 A 
ATOM     62  C30 non d ame      -8.966   5.186  64.275  0.00  0.00    -0.075 A 
ATOM     63  C31 non d ame      -8.611   5.028  62.936  0.00  0.00    -0.082 A 
ATOM     64  H49 non d ame      -8.383   5.842  64.921  0.00  0.00     0.084 H 
ATOM     65  C32 non d ame      -9.362   4.187  62.110  0.00  0.00    -0.083 A 
ATOM     66  H50 non d ame      -7.747   5.559  62.537  0.00  0.00     0.083 H 
ATOM     67  C33 non d ame     -10.461   3.514  62.627  0.00  0.00    -0.082 A 
ATOM     68  H51 non d ame      -9.091   4.057  61.062  0.00  0.00     0.083 H 
ATOM     69  C34 non d ame     -10.818   3.668  63.965  0.00  0.00    -0.075 A 
ATOM     70  H52 non d ame     -11.046   2.861  61.979  0.00  0.00     0.083 H 
ATOM     71  H53 non d ame     -11.682   3.136  64.363  0.00  0.00     0.084 H 
ENDBRANCH  58  61
ENDBRANCH  57  58
ENDBRANCH  55  57
ENDBRANCH  52  55
ENDBRANCH  49  52
ENDBRANCH  47  49
BRANCH  47  72
ATOM     72  C24 non d ame     -10.736  10.562  65.244  0.00  0.00    -0.039 C 
ATOM     73  H35 non d ame     -10.213   9.967  64.495  0.00  0.00     0.036 H 
ATOM     74  H36 non d ame     -11.801  10.406  65.417  0.00  0.00     0.036 H 
BRANCH  72  75
ATOM     75  C25 non d ame     -10.542  12.101  64.846  0.00  0.00    -0.001 C 
ATOM     76  C26 non d ame     -11.619  13.033  65.668  0.00  0.00    -0.035 C 
ATOM     77  C27 non d ame     -12.273  13.826  64.786  0.00  0.00     0.085 C 
ATOM     78  H38 non d ame     -12.410  12.410  66.085  0.00  0.00     0.036 H 
ATOM     79  H39 non d ame     -11.091  13.742  66.305  0.00  0.00     0.036 H 
ATOM     80  N5  non d ame     -11.975  13.290  63.406  0.00  0.00    -0.049 N 
ATOM     81  H40 non d ame     -13.333  13.687  64.999  0.00  0.00     0.075 H 
ATOM     82  H41 non d ame     -11.820  14.811  64.889  0.00  0.00     0.075 H 
ATOM     83  C28 non d ame     -10.725  12.284  63.581  0.00  0.00     0.193 C 
ATOM     84  H42 non d ame     -12.784  12.754  63.126  0.00  0.00     0.280 HD
ATOM     85  H43 non d ame     -11.676  14.080  62.851  0.00  0.00     0.280 HD
ATOM     86  H44 non d ame      -9.723  12.587  63.277  0.00  0.00     0.129 H 
ATOM     87  H37 non d ame      -9.496  12.407  64.878  0.00  0.00     0.046 H 
BRANCH  83  88
ATOM     88  O6  non d ame     -10.979  11.058  62.891  0.00  0.00    -0.369 OA
ATOM     89  H45 non d ame     -11.702  10.594  63.319  0.00  0.00     0.212 HD
ENDBRANCH  83  88
ENDBRANCH  72  75
ENDBRANCH  47  72
ENDBRANCH  45  47
ENDBRANCH   1  43
BRANCH   1  90
ATOM     90  C16 non d ame      -6.815   8.151  63.273  0.00  0.00    -0.035 C 
ATOM     91  H21 non d ame      -7.436   7.263  63.150  0.00  0.00     0.037 H 
ATOM     92  H22 non d ame      -7.047   9.060  62.718  0.00  0.00     0.037 H 
BRANCH  90  93
ATOM     93  C17 non d ame      -5.368   7.737  62.855  0.00  0.00    -0.059 C 
ATOM     94  H23 non d ame      -5.297   7.831  61.771  0.00  0.00     0.038 H 
BRANCH  93  95
ATOM     95  C18 non d ame      -4.283   8.667  63.487  0.00  0.00    -0.073 C 
ATOM     96  H24 non d ame      -4.760   9.560  63.888  0.00  0.00     0.028 H 
ATOM     97  H25 non d ame      -3.772   8.135  64.290  0.00  0.00     0.028 H 
ATOM     98  H26 non d ame      -3.560   8.952  62.723  0.00  0.00     0.028 H 
ENDBRANCH  93  95
BRANCH  93  99
ATOM     99  C19 non d ame      -5.097   6.270  63.202  0.00  0.00    -0.073 C 
ATOM    100  H27 non d ame      -5.990   5.831  63.647  0.00  0.00     0.028 H 
ATOM    101  H28 non d ame      -4.837   5.725  62.294  0.00  0.00     0.028 H 
ATOM    102  H29 non d ame      -4.271   6.211  63.910  0.00  0.00     0.028 H 
ENDBRANCH  93  99
ENDBRANCH  90  93
ENDBRANCH   1  90
TORSDOF 26
ENDMDL
MODEL 15
REMARK VINA RESULT:      -6.0      3.572      8.342
REMARK  26 active torsions:
REMARK  status: ('A' for Active; 'I' for Inactive)
REMARK    1  A    between atoms: C2_2  and  C3_3 
REMARK    2  A    between atoms: C4_6  and  C5_7 
REMARK       I    between atoms: C5_7  and  N2_9 
REMARK    3  A    between atoms: N2_9  and  C6_10 
REMARK    4  A    between atoms: C6_10  and  C7_11 
REMARK    5  A    between atoms: C6_10  and  C8_13 
REMARK       I    between atoms: C7_11  and  N3_14 
REMARK    6  A    between atoms: N3_14  and  C9_15 
REMARK    7  A    between atoms: C9_15  and  C10_16 
REMARK    8  A    between atoms: C9_15  and  C11_18 
REMARK       I    between atoms: C10_16  and  N4_21 
REMARK    9  A    between atoms: C11_18  and  C12_19 
REMARK   10  A    between atoms: C11_18  and  C13_20 
REMARK   11  A    between atoms: N4_21  and  C14_22 
REMARK   12  A    between atoms: C14_22  and  C15_23 
REMARK   13  A    between atoms: C14_22  and  C16_25 
REMARK       I    between atoms: C15_23  and  N6_40 
REMARK   14  A    between atoms: C16_25  and  C17_26 
REMARK   15  A    between atoms: C17_26  and  C18_27 
REMARK   16  A    between atoms: C17_26  and  C19_28 
REMARK   17  A    between atoms: C20_29  and  C21_30 
REMARK   18  A    between atoms: C20_29  and  C24_33 
REMARK   19  A    between atoms: C20_29  and  N6_40 
REMARK   20  A    between atoms: C21_30  and  C22_31 
REMARK   21  A    between atoms: C22_31  and  C23_32 
REMARK   22  A    between atoms: C23_32  and  O8_43 
REMARK   23  A    between atoms: C24_33  and  C25_34 
REMARK   24  A    between atoms: C28_38  and  O6_39 
REMARK   25  A    between atoms: C29_42  and  O8_43 
REMARK   26  A    between atoms: C29_42  and  C35_49 
ROOT
ATOM      1  C14 non d ame      -6.632  10.918  67.771  0.00  0.00     0.089 C 
ATOM      2  H20 non d ame      -6.054  10.972  68.695  0.00  0.00     0.087 H 
ENDROOT
BRANCH   1   3
ATOM      3  N4  non d ame      -7.030   9.531  67.584  0.00  0.00    -0.346 N 
ATOM      4  C10 non d ame      -6.303   8.426  68.306  0.00  0.00     0.241 C 
ATOM      5  O4  non d ame      -5.398   8.676  69.032  0.00  0.00    -0.271 OA
ATOM      6  H19 non d ame      -7.802   9.339  66.960  0.00  0.00     0.163 HD
BRANCH   4   7
ATOM      7  C9  non d ame      -6.733   6.996  68.105  0.00  0.00     0.092 C 
ATOM      8  H11 non d ame      -6.549   6.434  69.020  0.00  0.00     0.088 H 
BRANCH   7   9
ATOM      9  N3  non d ame      -8.176   6.950  67.850  0.00  0.00    -0.346 N 
ATOM     10  C7  non d ame      -9.037   6.189  68.721  0.00  0.00     0.240 C 
ATOM     11  O3  non d ame      -8.585   5.606  69.630  0.00  0.00    -0.271 OA
ATOM     12  H10 non d ame      -8.579   7.447  67.069  0.00  0.00     0.163 HD
BRANCH  10  13
ATOM     13  C6  non d ame     -10.572   6.141  68.444  0.00  0.00     0.086 C 
ATOM     14  H6  non d ame     -11.050   5.258  68.867  0.00  0.00     0.086 H 
BRANCH  13  15
ATOM     15  N2  non d ame     -11.200   7.294  69.068  0.00  0.00    -0.343 N 
ATOM     16  C5  non d ame     -11.702   7.187  70.439  0.00  0.00     0.273 C 
ATOM     17  O2  non d ame     -11.599   6.169  71.031  0.00  0.00    -0.266 OA
ATOM     18  H5  non d ame     -11.286   8.159  68.554  0.00  0.00     0.163 HD
BRANCH  16  19
ATOM     19  C4  non d ame     -12.367   8.398  71.112  0.00  0.00     0.154 A 
ATOM     20  C1  non d ame     -12.122   9.782  70.838  0.00  0.00    -0.017 A 
ATOM     21  C2  non d ame     -12.978  10.483  71.716  0.00  0.00     0.077 A 
ATOM     22  H1  non d ame     -11.430  10.211  70.113  0.00  0.00     0.091 H 
ATOM     23  O1  non d ame     -13.634   9.597  72.408  0.00  0.00    -0.218 OA
ATOM     24  N1  non d ame     -13.294   8.374  72.073  0.00  0.00    -0.123 NA
BRANCH  21  25
ATOM     25  C3  non d ame     -13.110  11.996  71.831  0.00  0.00    -0.029 C 
ATOM     26  H2  non d ame     -13.975  12.240  72.447  0.00  0.00     0.036 H 
ATOM     27  H3  non d ame     -12.209  12.405  72.289  0.00  0.00     0.036 H 
ATOM     28  H4  non d ame     -13.238  12.426  70.837  0.00  0.00     0.036 H 
ENDBRANCH  21  25
ENDBRANCH  16  19
ENDBRANCH  13  15
BRANCH  13  29
ATOM     29  C8  non d ame     -10.817   6.161  66.956  0.00  0.00    -0.049 C 
ATOM     30  H7  non d ame     -10.375   5.274  66.503  0.00  0.00     0.030 H 
ATOM     31  H8  non d ame     -11.890   6.172  66.765  0.00  0.00     0.030 H 
ATOM     32  H9  non d ame     -10.362   7.053  66.526  0.00  0.00     0.030 H 
ENDBRANCH  13  29
ENDBRANCH  10  13
ENDBRANCH   7   9
BRANCH   7  33
ATOM     33  C11 non d ame      -5.974   6.394  66.886  0.00  0.00    -0.033 C 
ATOM     34  H12 non d ame      -4.920   6.648  66.996  0.00  0.00     0.042 H 
BRANCH  33  35
ATOM     35  C12 non d ame      -6.081   4.837  66.862  0.00  0.00    -0.071 C 
ATOM     36  H13 non d ame      -6.993   4.528  67.374  0.00  0.00     0.028 H 
ATOM     37  H14 non d ame      -6.110   4.491  65.830  0.00  0.00     0.028 H 
ATOM     38  H15 non d ame      -5.217   4.406  67.367  0.00  0.00     0.028 H 
ENDBRANCH  33  35
BRANCH  33  39
ATOM     39  C13 non d ame      -6.484   7.017  65.546  0.00  0.00    -0.071 C 
ATOM     40  H16 non d ame      -6.399   8.102  65.595  0.00  0.00     0.028 H 
ATOM     41  H17 non d ame      -5.882   6.642  64.719  0.00  0.00     0.028 H 
ATOM     42  H18 non d ame      -7.527   6.740  65.391  0.00  0.00     0.028 H 
ENDBRANCH  33  39
ENDBRANCH   7  33
ENDBRANCH   4   7
ENDBRANCH   1   3
BRANCH   1  43
ATOM     43  C15 non d ame      -7.913  11.799  67.828  0.00  0.00     0.240 C 
ATOM     44  O5  non d ame      -8.825  11.471  68.516  0.00  0.00    -0.271 OA
ATOM     45  N6  non d ame      -8.000  13.056  67.032  0.00  0.00    -0.355 N 
ATOM     46  H46 non d ame      -7.229  13.347  66.447  0.00  0.00     0.162 HD
BRANCH  45  47
ATOM     47  C20 non d ame      -9.224  13.882  67.098  0.00  0.00     0.013 C 
ATOM     48  H30 non d ame     -10.029  13.259  67.486  0.00  0.00     0.072 H 
BRANCH  47  49
ATOM     49  C21 non d ame      -9.573  14.370  65.710  0.00  0.00    -0.038 C 
ATOM     50  H31 non d ame      -8.871  15.177  65.496  0.00  0.00     0.036 H 
ATOM     51  H32 non d ame      -9.589  13.480  65.080  0.00  0.00     0.036 H 
BRANCH  49  52
ATOM     52  C22 non d ame     -10.986  14.988  65.629  0.00  0.00     0.018 C 
ATOM     53  H33 non d ame     -11.272  15.207  66.658  0.00  0.00     0.048 H 
ATOM     54  H34 non d ame     -10.914  15.796  64.900  0.00  0.00     0.048 H 
BRANCH  52  55
ATOM     55  C23 non d ame     -12.066  14.013  65.083  0.00  0.00     0.259 C 
ATOM     56  O7  non d ame     -12.954  13.644  65.780  0.00  0.00    -0.265 OA
BRANCH  55  57
ATOM     57  O8  non d ame     -11.974  13.555  63.739  0.00  0.00    -0.317 OA
BRANCH  57  58
ATOM     58  C29 non d ame     -12.253  12.161  63.579  0.00  0.00     0.052 C 
ATOM     59  H47 non d ame     -12.965  11.911  64.366  0.00  0.00     0.082 H 
ATOM     60  H48 non d ame     -12.529  12.033  62.533  0.00  0.00     0.082 H 
BRANCH  58  61
ATOM     61  C35 non d ame     -10.939  11.377  63.839  0.00  0.00    -0.034 A 
ATOM     62  C30 non d ame     -10.780  10.654  65.017  0.00  0.00    -0.075 A 
ATOM     63  C31 non d ame      -9.600   9.950  65.250  0.00  0.00    -0.082 A 
ATOM     64  H49 non d ame     -11.581  10.637  65.756  0.00  0.00     0.084 H 
ATOM     65  C32 non d ame      -8.574   9.974  64.302  0.00  0.00    -0.083 A 
ATOM     66  H50 non d ame      -9.480   9.382  66.173  0.00  0.00     0.083 H 
ATOM     67  C33 non d ame      -8.735  10.700  63.130  0.00  0.00    -0.082 A 
ATOM     68  H51 non d ame      -7.648   9.426  64.477  0.00  0.00     0.083 H 
ATOM     69  C34 non d ame      -9.914  11.403  62.891  0.00  0.00    -0.075 A 
ATOM     70  H52 non d ame      -7.931  10.719  62.393  0.00  0.00     0.083 H 
ATOM     71  H53 non d ame     -10.033  11.971  61.968  0.00  0.00     0.084 H 
ENDBRANCH  58  61
ENDBRANCH  57  58
ENDBRANCH  55  57
ENDBRANCH  52  55
ENDBRANCH  49  52
ENDBRANCH  47  49
BRANCH  47  72
ATOM     72  C24 non d ame      -8.990  15.080  68.016  0.00  0.00    -0.039 C 
ATOM     73  H35 non d ame      -7.989  14.940  68.426  0.00  0.00     0.036 H 
ATOM     74  H36 non d ame      -9.212  15.958  67.409  0.00  0.00     0.036 H 
BRANCH  72  75
ATOM     75  C25 non d ame     -10.010  15.088  69.251  0.00  0.00    -0.001 C 
ATOM     76  C26 non d ame     -11.088  13.856  69.095  0.00  0.00    -0.035 C 
ATOM     77  C27 non d ame     -12.341  14.354  69.227  0.00  0.00     0.085 C 
ATOM     78  H38 non d ame     -11.072  13.473  68.076  0.00  0.00     0.036 H 
ATOM     79  H39 non d ame     -10.996  13.170  69.938  0.00  0.00     0.036 H 
ATOM     80  N5  non d ame     -12.232  15.856  69.132  0.00  0.00    -0.049 N 
ATOM     81  H40 non d ame     -12.895  13.982  68.364  0.00  0.00     0.075 H 
ATOM     82  H41 non d ame     -12.656  14.084  70.235  0.00  0.00     0.075 H 
ATOM     83  C28 non d ame     -10.665  16.200  69.309  0.00  0.00     0.193 C 
ATOM     84  H42 non d ame     -12.512  16.104  68.194  0.00  0.00     0.280 HD
ATOM     85  H43 non d ame     -12.734  16.230  69.924  0.00  0.00     0.280 HD
ATOM     86  H44 non d ame     -10.289  16.602  70.250  0.00  0.00     0.129 H 
ATOM     87  H37 non d ame      -9.498  15.181  70.209  0.00  0.00     0.046 H 
BRANCH  83  88
ATOM     88  O6  non d ame     -10.246  17.125  68.304  0.00  0.00    -0.369 OA
ATOM     89  H45 non d ame      -9.473  17.603  68.611  0.00  0.00     0.212 HD
ENDBRANCH  83  88
ENDBRANCH  72  75
ENDBRANCH  47  72
ENDBRANCH  45  47
ENDBRANCH   1  43
BRANCH   1  90
ATOM     90  C16 non d ame      -5.767  11.349  66.598  0.00  0.00    -0.035 C 
ATOM     91  H21 non d ame      -6.011  10.658  65.790  0.00  0.00     0.037 H 
ATOM     92  H22 non d ame      -5.957  12.416  66.476  0.00  0.00     0.037 H 
BRANCH  90  93
ATOM     93  C17 non d ame      -4.235  11.200  66.860  0.00  0.00    -0.059 C 
ATOM     94  H23 non d ame      -4.093  10.334  67.507  0.00  0.00     0.038 H 
BRANCH  93  95
ATOM     95  C18 non d ame      -3.434  10.947  65.543  0.00  0.00    -0.073 C 
ATOM     96  H24 non d ame      -3.339   9.874  65.376  0.00  0.00     0.028 H 
ATOM     97  H25 non d ame      -3.961  11.401  64.704  0.00  0.00     0.028 H 
ATOM     98  H26 non d ame      -2.441  11.390  65.630  0.00  0.00     0.028 H 
ENDBRANCH  93  95
BRANCH  93  99
ATOM     99  C19 non d ame      -3.687  12.420  67.605  0.00  0.00    -0.073 C 
ATOM    100  H27 non d ame      -2.696  12.665  67.221  0.00  0.00     0.028 H 
ATOM    101  H28 non d ame      -4.355  13.268  67.456  0.00  0.00     0.028 H 
ATOM    102  H29 non d ame      -3.618  12.195  68.669  0.00  0.00     0.028 H 
ENDBRANCH  93  99
ENDBRANCH  90  93
ENDBRANCH   1  90
TORSDOF 26
ENDMDL
MODEL 16
REMARK VINA RESULT:      -6.0      4.275      8.214
REMARK  26 active torsions:
REMARK  status: ('A' for Active; 'I' for Inactive)
REMARK    1  A    between atoms: C2_2  and  C3_3 
REMARK    2  A    between atoms: C4_6  and  C5_7 
REMARK       I    between atoms: C5_7  and  N2_9 
REMARK    3  A    between atoms: N2_9  and  C6_10 
REMARK    4  A    between atoms: C6_10  and  C7_11 
REMARK    5  A    between atoms: C6_10  and  C8_13 
REMARK       I    between atoms: C7_11  and  N3_14 
REMARK    6  A    between atoms: N3_14  and  C9_15 
REMARK    7  A    between atoms: C9_15  and  C10_16 
REMARK    8  A    between atoms: C9_15  and  C11_18 
REMARK       I    between atoms: C10_16  and  N4_21 
REMARK    9  A    between atoms: C11_18  and  C12_19 
REMARK   10  A    between atoms: C11_18  and  C13_20 
REMARK   11  A    between atoms: N4_21  and  C14_22 
REMARK   12  A    between atoms: C14_22  and  C15_23 
REMARK   13  A    between atoms: C14_22  and  C16_25 
REMARK       I    between atoms: C15_23  and  N6_40 
REMARK   14  A    between atoms: C16_25  and  C17_26 
REMARK   15  A    between atoms: C17_26  and  C18_27 
REMARK   16  A    between atoms: C17_26  and  C19_28 
REMARK   17  A    between atoms: C20_29  and  C21_30 
REMARK   18  A    between atoms: C20_29  and  C24_33 
REMARK   19  A    between atoms: C20_29  and  N6_40 
REMARK   20  A    between atoms: C21_30  and  C22_31 
REMARK   21  A    between atoms: C22_31  and  C23_32 
REMARK   22  A    between atoms: C23_32  and  O8_43 
REMARK   23  A    between atoms: C24_33  and  C25_34 
REMARK   24  A    between atoms: C28_38  and  O6_39 
REMARK   25  A    between atoms: C29_42  and  O8_43 
REMARK   26  A    between atoms: C29_42  and  C35_49 
ROOT
ATOM      1  C14 non d ame      -8.922  10.934  66.027  0.00  0.00     0.089 C 
ATOM      2  H20 non d ame      -8.431  11.772  65.531  0.00  0.00     0.087 H 
ENDROOT
BRANCH   1   3
ATOM      3  N4  non d ame      -7.953   9.853  66.125  0.00  0.00    -0.346 N 
ATOM      4  C10 non d ame      -6.792   9.782  65.165  0.00  0.00     0.241 C 
ATOM      5  O4  non d ame      -6.661  10.605  64.320  0.00  0.00    -0.271 OA
ATOM      6  H19 non d ame      -8.083   9.162  66.850  0.00  0.00     0.163 HD
BRANCH   4   7
ATOM      7  C9  non d ame      -5.794   8.660  65.285  0.00  0.00     0.092 C 
ATOM      8  H11 non d ame      -5.016   8.946  65.992  0.00  0.00     0.088 H 
BRANCH   7   9
ATOM      9  N3  non d ame      -6.458   7.471  65.829  0.00  0.00    -0.346 N 
ATOM     10  C7  non d ame      -6.462   7.236  67.252  0.00  0.00     0.240 C 
ATOM     11  O3  non d ame      -5.935   7.992  67.973  0.00  0.00    -0.271 OA
ATOM     12  H10 non d ame      -6.916   6.809  65.219  0.00  0.00     0.163 HD
BRANCH  10  13
ATOM     13  C6  non d ame      -7.168   5.968  67.825  0.00  0.00     0.086 C 
ATOM     14  H6  non d ame      -8.013   6.210  68.470  0.00  0.00     0.086 H 
BRANCH  13  15
ATOM     15  N2  non d ame      -7.699   5.185  66.721  0.00  0.00    -0.343 N 
ATOM     16  C5  non d ame      -8.871   5.671  65.990  0.00  0.00     0.273 C 
ATOM     17  O2  non d ame      -9.381   6.691  66.299  0.00  0.00    -0.266 OA
ATOM     18  H5  non d ame      -7.258   4.313  66.466  0.00  0.00     0.163 HD
BRANCH  16  19
ATOM     19  C4  non d ame      -9.441   4.854  64.820  0.00  0.00     0.154 A 
ATOM     20  C1  non d ame      -8.955   4.815  63.475  0.00  0.00    -0.017 A 
ATOM     21  C2  non d ame      -9.819   3.922  62.802  0.00  0.00     0.077 A 
ATOM     22  H1  non d ame      -8.106   5.351  63.052  0.00  0.00     0.091 H 
ATOM     23  O1  non d ame     -10.694   3.503  63.669  0.00  0.00    -0.218 OA
ATOM     24  N1  non d ame     -10.495   4.033  64.853  0.00  0.00    -0.123 NA
BRANCH  21  25
ATOM     25  C3  non d ame      -9.740   3.524  61.334  0.00  0.00    -0.029 C 
ATOM     26  H2  non d ame      -8.907   4.045  60.861  0.00  0.00     0.036 H 
ATOM     27  H3  non d ame      -9.585   2.448  61.258  0.00  0.00     0.036 H 
ATOM     28  H4  non d ame     -10.670   3.794  60.833  0.00  0.00     0.036 H 
ENDBRANCH  21  25
ENDBRANCH  16  19
ENDBRANCH  13  15
BRANCH  13  29
ATOM     29  C8  non d ame      -6.175   5.148  68.609  0.00  0.00    -0.049 C 
ATOM     30  H7  non d ame      -5.722   4.403  67.956  0.00  0.00     0.030 H 
ATOM     31  H8  non d ame      -5.400   5.802  69.009  0.00  0.00     0.030 H 
ATOM     32  H9  non d ame      -6.687   4.647  69.430  0.00  0.00     0.030 H 
ENDBRANCH  13  29
ENDBRANCH  10  13
ENDBRANCH   7   9
BRANCH   7  33
ATOM     33  C11 non d ame      -5.215   8.329  63.878  0.00  0.00    -0.033 C 
ATOM     34  H12 non d ame      -5.794   8.890  63.144  0.00  0.00     0.042 H 
BRANCH  33  35
ATOM     35  C12 non d ame      -3.729   8.787  63.754  0.00  0.00    -0.071 C 
ATOM     36  H13 non d ame      -3.632   9.485  62.921  0.00  0.00     0.028 H 
ATOM     37  H14 non d ame      -3.422   9.279  64.676  0.00  0.00     0.028 H 
ATOM     38  H15 non d ame      -3.095   7.919  63.576  0.00  0.00     0.028 H 
ENDBRANCH  33  35
BRANCH  33  39
ATOM     39  C13 non d ame      -5.367   6.808  63.554  0.00  0.00    -0.071 C 
ATOM     40  H16 non d ame      -6.198   6.665  62.863  0.00  0.00     0.028 H 
ATOM     41  H17 non d ame      -4.448   6.439  63.099  0.00  0.00     0.028 H 
ATOM     42  H18 non d ame      -5.563   6.259  64.475  0.00  0.00     0.028 H 
ENDBRANCH  33  39
ENDBRANCH   7  33
ENDBRANCH   4   7
ENDBRANCH   1   3
BRANCH   1  43
ATOM     43  C15 non d ame      -9.403  11.300  67.461  0.00  0.00     0.240 C 
ATOM     44  O5  non d ame      -8.627  11.305  68.361  0.00  0.00    -0.271 OA
ATOM     45  N6  non d ame     -10.830  11.652  67.710  0.00  0.00    -0.355 N 
ATOM     46  H46 non d ame     -11.497  11.656  66.952  0.00  0.00     0.162 HD
BRANCH  45  47
ATOM     47  C20 non d ame     -11.271  11.999  69.078  0.00  0.00     0.013 C 
ATOM     48  H30 non d ame     -10.387  12.041  69.715  0.00  0.00     0.072 H 
BRANCH  47  49
ATOM     49  C21 non d ame     -12.221  10.936  69.582  0.00  0.00    -0.038 C 
ATOM     50  H31 non d ame     -13.063  11.475  70.015  0.00  0.00     0.036 H 
ATOM     51  H32 non d ame     -12.380  10.261  68.740  0.00  0.00     0.036 H 
BRANCH  49  52
ATOM     52  C22 non d ame     -11.617  10.082  70.718  0.00  0.00     0.018 C 
ATOM     53  H33 non d ame     -11.017   9.317  70.225  0.00  0.00     0.048 H 
ATOM     54  H34 non d ame     -11.145  10.790  71.400  0.00  0.00     0.048 H 
BRANCH  52  55
ATOM     55  C23 non d ame     -12.678   9.319  71.559  0.00  0.00     0.259 C 
ATOM     56  O7  non d ame     -13.472   9.915  72.211  0.00  0.00    -0.265 OA
BRANCH  55  57
ATOM     57  O8  non d ame     -12.681   7.897  71.553  0.00  0.00    -0.317 OA
BRANCH  57  58
ATOM     58  C29 non d ame     -11.632   7.309  72.327  0.00  0.00     0.052 C 
ATOM     59  H47 non d ame     -10.908   8.106  72.497  0.00  0.00     0.082 H 
ATOM     60  H48 non d ame     -12.123   6.830  73.174  0.00  0.00     0.082 H 
BRANCH  58  61
ATOM     61  C35 non d ame     -10.958   6.208  71.464  0.00  0.00    -0.034 A 
ATOM     62  C30 non d ame     -11.099   6.225  70.080  0.00  0.00    -0.075 A 
ATOM     63  C31 non d ame     -10.495   5.237  69.305  0.00  0.00    -0.082 A 
ATOM     64  H49 non d ame     -11.683   7.012  69.603  0.00  0.00     0.084 H 
ATOM     65  C32 non d ame      -9.748   4.227  69.919  0.00  0.00    -0.083 A 
ATOM     66  H50 non d ame     -10.605   5.254  68.221  0.00  0.00     0.083 H 
ATOM     67  C33 non d ame      -9.613   4.213  71.301  0.00  0.00    -0.082 A 
ATOM     68  H51 non d ame      -9.271   3.451  69.320  0.00  0.00     0.083 H 
ATOM     69  C34 non d ame     -10.214   5.200  72.079  0.00  0.00    -0.075 A 
ATOM     70  H52 non d ame      -9.032   3.423  71.777  0.00  0.00     0.083 H 
ATOM     71  H53 non d ame     -10.102   5.183  73.164  0.00  0.00     0.084 H 
ENDBRANCH  58  61
ENDBRANCH  57  58
ENDBRANCH  55  57
ENDBRANCH  52  55
ENDBRANCH  49  52
ENDBRANCH  47  49
BRANCH  47  72
ATOM     72  C24 non d ame     -11.980  13.351  69.065  0.00  0.00    -0.039 C 
ATOM     73  H35 non d ame     -11.393  13.980  68.395  0.00  0.00     0.036 H 
ATOM     74  H36 non d ame     -13.022  13.131  68.831  0.00  0.00     0.036 H 
BRANCH  72  75
ATOM     75  C25 non d ame     -11.957  14.047  70.508  0.00  0.00    -0.001 C 
ATOM     76  C26 non d ame     -13.095  13.364  71.478  0.00  0.00    -0.035 C 
ATOM     77  C27 non d ame     -13.855  14.346  72.018  0.00  0.00     0.085 C 
ATOM     78  H38 non d ame     -13.804  12.794  70.878  0.00  0.00     0.036 H 
ATOM     79  H39 non d ame     -12.620  12.903  72.344  0.00  0.00     0.036 H 
ATOM     80  N5  non d ame     -13.550  15.611  71.253  0.00  0.00    -0.049 N 
ATOM     81  H40 non d ame     -14.888  14.055  71.826  0.00  0.00     0.075 H 
ATOM     82  H41 non d ame     -13.501  14.457  73.043  0.00  0.00     0.075 H 
ATOM     83  C28 non d ame     -12.199  15.312  70.421  0.00  0.00     0.193 C 
ATOM     84  H42 non d ame     -14.309  15.740  70.599  0.00  0.00     0.280 HD
ATOM     85  H43 non d ame     -13.351  16.322  71.943  0.00  0.00     0.280 HD
ATOM     86  H44 non d ame     -11.244  15.721  70.750  0.00  0.00     0.129 H 
ATOM     87  H37 non d ame     -10.947  14.129  70.910  0.00  0.00     0.046 H 
BRANCH  83  88
ATOM     88  O6  non d ame     -12.350  15.740  69.066  0.00  0.00    -0.369 OA
ATOM     89  H45 non d ame     -12.648  16.653  69.050  0.00  0.00     0.212 HD
ENDBRANCH  83  88
ENDBRANCH  72  75
ENDBRANCH  47  72
ENDBRANCH  45  47
ENDBRANCH   1  43
BRANCH   1  90
ATOM     90  C16 non d ame     -10.105  10.465  65.195  0.00  0.00    -0.035 C 
ATOM     91  H21 non d ame      -9.794   9.514  64.761  0.00  0.00     0.037 H 
ATOM     92  H22 non d ame     -10.963  10.502  65.867  0.00  0.00     0.037 H 
BRANCH  90  93
ATOM     93  C17 non d ame     -10.442  11.408  63.997  0.00  0.00    -0.059 C 
ATOM     94  H23 non d ame     -11.440  11.150  63.643  0.00  0.00     0.038 H 
BRANCH  93  95
ATOM     95  C18 non d ame     -10.460  12.913  64.418  0.00  0.00    -0.073 C 
ATOM     96  H24 non d ame     -10.766  13.524  63.570  0.00  0.00     0.028 H 
ATOM     97  H25 non d ame     -11.164  13.052  65.239  0.00  0.00     0.028 H 
ATOM     98  H26 non d ame      -9.462  13.211  64.741  0.00  0.00     0.028 H 
ENDBRANCH  93  95
BRANCH  93  99
ATOM     99  C19 non d ame      -9.475  11.180  62.833  0.00  0.00    -0.073 C 
ATOM    100  H27 non d ame     -10.022  11.223  61.891  0.00  0.00     0.028 H 
ATOM    101  H28 non d ame      -8.706  11.954  62.843  0.00  0.00     0.028 H 
ATOM    102  H29 non d ame      -9.006  10.202  62.936  0.00  0.00     0.028 H 
ENDBRANCH  93  99
ENDBRANCH  90  93
ENDBRANCH   1  90
TORSDOF 26
ENDMDL
MODEL 17
REMARK VINA RESULT:      -5.9      3.561      9.089
REMARK  26 active torsions:
REMARK  status: ('A' for Active; 'I' for Inactive)
REMARK    1  A    between atoms: C2_2  and  C3_3 
REMARK    2  A    between atoms: C4_6  and  C5_7 
REMARK       I    between atoms: C5_7  and  N2_9 
REMARK    3  A    between atoms: N2_9  and  C6_10 
REMARK    4  A    between atoms: C6_10  and  C7_11 
REMARK    5  A    between atoms: C6_10  and  C8_13 
REMARK       I    between atoms: C7_11  and  N3_14 
REMARK    6  A    between atoms: N3_14  and  C9_15 
REMARK    7  A    between atoms: C9_15  and  C10_16 
REMARK    8  A    between atoms: C9_15  and  C11_18 
REMARK       I    between atoms: C10_16  and  N4_21 
REMARK    9  A    between atoms: C11_18  and  C12_19 
REMARK   10  A    between atoms: C11_18  and  C13_20 
REMARK   11  A    between atoms: N4_21  and  C14_22 
REMARK   12  A    between atoms: C14_22  and  C15_23 
REMARK   13  A    between atoms: C14_22  and  C16_25 
REMARK       I    between atoms: C15_23  and  N6_40 
REMARK   14  A    between atoms: C16_25  and  C17_26 
REMARK   15  A    between atoms: C17_26  and  C18_27 
REMARK   16  A    between atoms: C17_26  and  C19_28 
REMARK   17  A    between atoms: C20_29  and  C21_30 
REMARK   18  A    between atoms: C20_29  and  C24_33 
REMARK   19  A    between atoms: C20_29  and  N6_40 
REMARK   20  A    between atoms: C21_30  and  C22_31 
REMARK   21  A    between atoms: C22_31  and  C23_32 
REMARK   22  A    between atoms: C23_32  and  O8_43 
REMARK   23  A    between atoms: C24_33  and  C25_34 
REMARK   24  A    between atoms: C28_38  and  O6_39 
REMARK   25  A    between atoms: C29_42  and  O8_43 
REMARK   26  A    between atoms: C29_42  and  C35_49 
ROOT
ATOM      1  C14 non d ame      -7.344   7.831  67.703  0.00  0.00     0.089 C 
ATOM      2  H20 non d ame      -6.620   8.067  68.483  0.00  0.00     0.087 H 
ENDROOT
BRANCH   1   3
ATOM      3  N4  non d ame      -8.536   7.309  68.354  0.00  0.00    -0.346 N 
ATOM      4  C10 non d ame      -8.487   6.876  69.798  0.00  0.00     0.241 C 
ATOM      5  O4  non d ame      -7.476   6.954  70.414  0.00  0.00    -0.271 OA
ATOM      6  H19 non d ame      -9.386   7.248  67.811  0.00  0.00     0.163 HD
BRANCH   4   7
ATOM      7  C9  non d ame      -9.732   6.343  70.458  0.00  0.00     0.092 C 
ATOM      8  H11 non d ame      -9.488   6.011  71.467  0.00  0.00     0.088 H 
BRANCH   7   9
ATOM      9  N3  non d ame     -10.719   7.419  70.582  0.00  0.00    -0.346 N 
ATOM     10  C7  non d ame     -11.642   7.426  71.690  0.00  0.00     0.240 C 
ATOM     11  O3  non d ame     -11.605   6.573  72.490  0.00  0.00    -0.271 OA
ATOM     12  H10 non d ame     -10.764   8.162  69.899  0.00  0.00     0.163 HD
BRANCH  10  13
ATOM     13  C6  non d ame     -12.692   8.573  71.816  0.00  0.00     0.086 C 
ATOM     14  H6  non d ame     -12.734   8.999  72.818  0.00  0.00     0.086 H 
BRANCH  13  15
ATOM     15  N2  non d ame     -12.318   9.655  70.920  0.00  0.00    -0.343 N 
ATOM     16  C5  non d ame     -12.731  11.025  71.231  0.00  0.00     0.273 C 
ATOM     17  O2  non d ame     -13.366  11.246  72.203  0.00  0.00    -0.266 OA
ATOM     18  H5  non d ame     -11.777   9.457  70.090  0.00  0.00     0.163 HD
BRANCH  16  19
ATOM     19  C4  non d ame     -12.341  12.179  70.294  0.00  0.00     0.154 A 
ATOM     20  C1  non d ame     -12.266  13.570  70.620  0.00  0.00    -0.017 A 
ATOM     21  C2  non d ame     -11.866  14.203  69.422  0.00  0.00     0.077 A 
ATOM     22  H1  non d ame     -12.470  14.047  71.579  0.00  0.00     0.091 H 
ATOM     23  O1  non d ame     -11.729  13.275  68.521  0.00  0.00    -0.218 OA
ATOM     24  N1  non d ame     -12.001  12.086  69.005  0.00  0.00    -0.123 NA
BRANCH  21  25
ATOM     25  C3  non d ame     -11.636  15.696  69.224  0.00  0.00    -0.029 C 
ATOM     26  H2  non d ame     -11.054  15.857  68.317  0.00  0.00     0.036 H 
ATOM     27  H3  non d ame     -12.598  16.202  69.133  0.00  0.00     0.036 H 
ATOM     28  H4  non d ame     -11.094  16.097  70.080  0.00  0.00     0.036 H 
ENDBRANCH  21  25
ENDBRANCH  16  19
ENDBRANCH  13  15
BRANCH  13  29
ATOM     29  C8  non d ame     -14.058   8.050  71.451  0.00  0.00    -0.049 C 
ATOM     30  H7  non d ame     -14.043   7.677  70.427  0.00  0.00     0.030 H 
ATOM     31  H8  non d ame     -14.330   7.241  72.129  0.00  0.00     0.030 H 
ATOM     32  H9  non d ame     -14.789   8.854  71.533  0.00  0.00     0.030 H 
ENDBRANCH  13  29
ENDBRANCH  10  13
ENDBRANCH   7   9
BRANCH   7  33
ATOM     33  C11 non d ame     -10.327   5.194  69.591  0.00  0.00    -0.033 C 
ATOM     34  H12 non d ame     -11.177   4.780  70.134  0.00  0.00     0.042 H 
BRANCH  33  35
ATOM     35  C12 non d ame     -10.859   5.730  68.225  0.00  0.00    -0.071 C 
ATOM     36  H13 non d ame     -10.941   6.817  68.268  0.00  0.00     0.028 H 
ATOM     37  H14 non d ame     -10.168   5.449  67.431  0.00  0.00     0.028 H 
ATOM     38  H15 non d ame     -11.840   5.300  68.024  0.00  0.00     0.028 H 
ENDBRANCH  33  35
BRANCH  33  39
ATOM     39  C13 non d ame      -9.282   4.052  69.383  0.00  0.00    -0.071 C 
ATOM     40  H16 non d ame      -8.334   4.481  69.062  0.00  0.00     0.028 H 
ATOM     41  H17 non d ame      -9.139   3.514  70.321  0.00  0.00     0.028 H 
ATOM     42  H18 non d ame      -9.646   3.362  68.621  0.00  0.00     0.028 H 
ENDBRANCH  33  39
ENDBRANCH   7  33
ENDBRANCH   4   7
ENDBRANCH   1   3
BRANCH   1  43
ATOM     43  C15 non d ame      -7.742   9.085  66.873  0.00  0.00     0.240 C 
ATOM     44  O5  non d ame      -7.698   9.047  65.686  0.00  0.00    -0.271 OA
ATOM     45  N6  non d ame      -8.187  10.332  67.559  0.00  0.00    -0.355 N 
ATOM     46  H46 non d ame      -8.233  10.375  68.566  0.00  0.00     0.162 HD
BRANCH  45  47
ATOM     47  C20 non d ame      -8.564  11.515  66.756  0.00  0.00     0.013 C 
ATOM     48  H30 non d ame      -7.827  11.630  65.961  0.00  0.00     0.072 H 
BRANCH  47  49
ATOM     49  C21 non d ame      -8.563  12.741  67.641  0.00  0.00    -0.038 C 
ATOM     50  H31 non d ame      -9.450  13.309  67.359  0.00  0.00     0.036 H 
ATOM     51  H32 non d ame      -8.455  12.368  68.660  0.00  0.00     0.036 H 
BRANCH  49  52
ATOM     52  C22 non d ame      -7.353  13.665  67.384  0.00  0.00     0.018 C 
ATOM     53  H33 non d ame      -6.511  13.199  67.898  0.00  0.00     0.048 H 
ATOM     54  H34 non d ame      -7.318  13.813  66.305  0.00  0.00     0.048 H 
BRANCH  52  55
ATOM     55  C23 non d ame      -7.503  15.081  68.006  0.00  0.00     0.259 C 
ATOM     56  O7  non d ame      -8.133  15.239  69.001  0.00  0.00    -0.265 OA
BRANCH  55  57
ATOM     57  O8  non d ame      -6.890  16.193  67.364  0.00  0.00    -0.317 OA
BRANCH  57  58
ATOM     58  C29 non d ame      -7.615  16.687  66.235  0.00  0.00     0.052 C 
ATOM     59  H47 non d ame      -6.863  17.076  65.549  0.00  0.00     0.082 H 
ATOM     60  H48 non d ame      -8.266  15.871  65.923  0.00  0.00     0.082 H 
BRANCH  58  61
ATOM     61  C35 non d ame      -8.502  17.867  66.714  0.00  0.00    -0.034 A 
ATOM     62  C30 non d ame      -7.913  19.016  67.230  0.00  0.00    -0.075 A 
ATOM     63  C31 non d ame      -8.709  20.076  67.660  0.00  0.00    -0.082 A 
ATOM     64  H49 non d ame      -6.827  19.087  67.296  0.00  0.00     0.084 H 
ATOM     65  C32 non d ame     -10.101  19.982  67.576  0.00  0.00    -0.083 A 
ATOM     66  H50 non d ame      -8.244  20.977  68.062  0.00  0.00     0.083 H 
ATOM     67  C33 non d ame     -10.685  18.832  67.064  0.00  0.00    -0.082 A 
ATOM     68  H51 non d ame     -10.731  20.807  67.910  0.00  0.00     0.083 H 
ATOM     69  C34 non d ame      -9.892  17.771  66.630  0.00  0.00    -0.075 A 
ATOM     70  H52 non d ame     -11.771  18.761  67.002  0.00  0.00     0.083 H 
ATOM     71  H53 non d ame     -10.358  16.871  66.228  0.00  0.00     0.084 H 
ENDBRANCH  58  61
ENDBRANCH  57  58
ENDBRANCH  55  57
ENDBRANCH  52  55
ENDBRANCH  49  52
ENDBRANCH  47  49
BRANCH  47  72
ATOM     72  C24 non d ame      -9.957  11.315  66.163  0.00  0.00    -0.039 C 
ATOM     73  H35 non d ame     -10.055  10.241  66.009  0.00  0.00     0.036 H 
ATOM     74  H36 non d ame     -10.637  11.832  66.840  0.00  0.00     0.036 H 
BRANCH  72  75
ATOM     75  C25 non d ame     -10.097  12.014  64.728  0.00  0.00    -0.001 C 
ATOM     76  C26 non d ame     -11.415  12.997  64.710  0.00  0.00    -0.035 C 
ATOM     77  C27 non d ame     -12.171  12.693  63.628  0.00  0.00     0.085 C 
ATOM     78  H38 non d ame     -12.067  12.763  65.551  0.00  0.00     0.036 H 
ATOM     79  H39 non d ame     -11.111  14.027  64.526  0.00  0.00     0.036 H 
ATOM     80  N5  non d ame     -11.662  11.378  63.089  0.00  0.00    -0.049 N 
ATOM     81  H40 non d ame     -13.183  12.552  64.010  0.00  0.00     0.075 H 
ATOM     82  H41 non d ame     -11.967  13.477  62.900  0.00  0.00     0.075 H 
ATOM     83  C28 non d ame     -10.229  11.135  63.791  0.00  0.00     0.193 C 
ATOM     84  H42 non d ame     -12.303  10.668  63.414  0.00  0.00     0.280 HD
ATOM     85  H43 non d ame     -11.516  11.511  62.099  0.00  0.00     0.280 HD
ATOM     86  H44 non d ame      -9.305  11.298  63.235  0.00  0.00     0.129 H 
ATOM     87  H37 non d ame      -9.155  12.441  64.383  0.00  0.00     0.046 H 
BRANCH  83  88
ATOM     88  O6  non d ame     -10.144   9.799  64.290  0.00  0.00    -0.369 OA
ATOM     89  H45 non d ame     -10.989   9.360  64.173  0.00  0.00     0.212 HD
ENDBRANCH  83  88
ENDBRANCH  72  75
ENDBRANCH  47  72
ENDBRANCH  45  47
ENDBRANCH   1  43
BRANCH   1  90
ATOM     90  C16 non d ame      -6.777   6.766  66.778  0.00  0.00    -0.035 C 
ATOM     91  H21 non d ame      -6.584   7.276  65.834  0.00  0.00     0.037 H 
ATOM     92  H22 non d ame      -5.953   6.313  67.331  0.00  0.00     0.037 H 
BRANCH  90  93
ATOM     93  C17 non d ame      -7.781   5.613  66.460  0.00  0.00    -0.059 C 
ATOM     94  H23 non d ame      -8.580   5.656  67.200  0.00  0.00     0.038 H 
BRANCH  93  95
ATOM     95  C18 non d ame      -8.431   5.771  65.048  0.00  0.00    -0.073 C 
ATOM     96  H24 non d ame      -8.510   6.829  64.801  0.00  0.00     0.028 H 
ATOM     97  H25 non d ame      -7.812   5.269  64.305  0.00  0.00     0.028 H 
ATOM     98  H26 non d ame      -9.426   5.323  65.054  0.00  0.00     0.028 H 
ENDBRANCH  93  95
BRANCH  93  99
ATOM     99  C19 non d ame      -7.106   4.246  66.599  0.00  0.00    -0.073 C 
ATOM    100  H27 non d ame      -6.442   4.080  65.750  0.00  0.00     0.028 H 
ATOM    101  H28 non d ame      -6.529   4.219  67.523  0.00  0.00     0.028 H 
ATOM    102  H29 non d ame      -7.867   3.466  66.624  0.00  0.00     0.028 H 
ENDBRANCH  93  99
ENDBRANCH  90  93
ENDBRANCH   1  90
TORSDOF 26
ENDMDL
MODEL 18
REMARK VINA RESULT:      -5.9      2.475      6.493
REMARK  26 active torsions:
REMARK  status: ('A' for Active; 'I' for Inactive)
REMARK    1  A    between atoms: C2_2  and  C3_3 
REMARK    2  A    between atoms: C4_6  and  C5_7 
REMARK       I    between atoms: C5_7  and  N2_9 
REMARK    3  A    between atoms: N2_9  and  C6_10 
REMARK    4  A    between atoms: C6_10  and  C7_11 
REMARK    5  A    between atoms: C6_10  and  C8_13 
REMARK       I    between atoms: C7_11  and  N3_14 
REMARK    6  A    between atoms: N3_14  and  C9_15 
REMARK    7  A    between atoms: C9_15  and  C10_16 
REMARK    8  A    between atoms: C9_15  and  C11_18 
REMARK       I    between atoms: C10_16  and  N4_21 
REMARK    9  A    between atoms: C11_18  and  C12_19 
REMARK   10  A    between atoms: C11_18  and  C13_20 
REMARK   11  A    between atoms: N4_21  and  C14_22 
REMARK   12  A    between atoms: C14_22  and  C15_23 
REMARK   13  A    between atoms: C14_22  and  C16_25 
REMARK       I    between atoms: C15_23  and  N6_40 
REMARK   14  A    between atoms: C16_25  and  C17_26 
REMARK   15  A    between atoms: C17_26  and  C18_27 
REMARK   16  A    between atoms: C17_26  and  C19_28 
REMARK   17  A    between atoms: C20_29  and  C21_30 
REMARK   18  A    between atoms: C20_29  and  C24_33 
REMARK   19  A    between atoms: C20_29  and  N6_40 
REMARK   20  A    between atoms: C21_30  and  C22_31 
REMARK   21  A    between atoms: C22_31  and  C23_32 
REMARK   22  A    between atoms: C23_32  and  O8_43 
REMARK   23  A    between atoms: C24_33  and  C25_34 
REMARK   24  A    between atoms: C28_38  and  O6_39 
REMARK   25  A    between atoms: C29_42  and  O8_43 
REMARK   26  A    between atoms: C29_42  and  C35_49 
ROOT
ATOM      1  C14 non d ame      -6.804  14.450  67.914  0.00  0.00     0.089 C 
ATOM      2  H20 non d ame      -6.000  15.058  67.497  0.00  0.00     0.087 H 
ENDROOT
BRANCH   1   3
ATOM      3  N4  non d ame      -8.063  15.088  67.561  0.00  0.00    -0.346 N 
ATOM      4  C10 non d ame      -8.080  16.288  66.647  0.00  0.00     0.241 C 
ATOM      5  O4  non d ame      -7.066  16.723  66.210  0.00  0.00    -0.271 OA
ATOM      6  H19 non d ame      -8.915  14.704  67.946  0.00  0.00     0.163 HD
BRANCH   4   7
ATOM      7  C9  non d ame      -9.393  16.932  66.289  0.00  0.00     0.092 C 
ATOM      8  H11 non d ame      -9.444  17.064  65.208  0.00  0.00     0.088 H 
BRANCH   7   9
ATOM      9  N3  non d ame     -10.495  16.043  66.669  0.00  0.00    -0.346 N 
ATOM     10  C7  non d ame     -10.738  14.836  65.919  0.00  0.00     0.240 C 
ATOM     11  O3  non d ame     -10.059  14.565  65.005  0.00  0.00    -0.271 OA
ATOM     12  H10 non d ame     -11.090  16.263  67.454  0.00  0.00     0.163 HD
BRANCH  10  13
ATOM     13  C6  non d ame     -11.914  13.894  66.327  0.00  0.00     0.086 C 
ATOM     14  H6  non d ame     -11.623  12.845  66.357  0.00  0.00     0.086 H 
BRANCH  13  15
ATOM     15  N2  non d ame     -12.353  14.243  67.668  0.00  0.00    -0.343 N 
ATOM     16  C5  non d ame     -11.521  13.877  68.817  0.00  0.00     0.273 C 
ATOM     17  O2  non d ame     -10.502  13.301  68.651  0.00  0.00    -0.266 OA
ATOM     18  H5  non d ame     -13.226  14.733  67.800  0.00  0.00     0.163 HD
BRANCH  16  19
ATOM     19  C4  non d ame     -11.972  14.241  70.240  0.00  0.00     0.154 A 
ATOM     20  C1  non d ame     -11.692  15.449  70.954  0.00  0.00    -0.017 A 
ATOM     21  C2  non d ame     -12.326  15.287  72.206  0.00  0.00     0.077 A 
ATOM     22  H1  non d ame     -11.116  16.311  70.616  0.00  0.00     0.091 H 
ATOM     23  O1  non d ame     -12.901  14.120  72.200  0.00  0.00    -0.218 OA
ATOM     24  N1  non d ame     -12.708  13.491  71.064  0.00  0.00    -0.123 NA
BRANCH  21  25
ATOM     25  C3  non d ame     -12.335  16.293  73.349  0.00  0.00    -0.029 C 
ATOM     26  H2  non d ame     -11.733  15.912  74.174  0.00  0.00     0.036 H 
ATOM     27  H3  non d ame     -11.920  17.240  73.003  0.00  0.00     0.036 H 
ATOM     28  H4  non d ame     -13.360  16.449  73.688  0.00  0.00     0.036 H 
ENDBRANCH  21  25
ENDBRANCH  16  19
ENDBRANCH  13  15
BRANCH  13  29
ATOM     29  C8  non d ame     -13.053  14.057  65.352  0.00  0.00    -0.049 C 
ATOM     30  H7  non d ame     -13.775  14.769  65.752  0.00  0.00     0.030 H 
ATOM     31  H8  non d ame     -12.668  14.425  64.401  0.00  0.00     0.030 H 
ATOM     32  H9  non d ame     -13.540  13.094  65.199  0.00  0.00     0.030 H 
ENDBRANCH  13  29
ENDBRANCH  10  13
ENDBRANCH   7   9
BRANCH   7  33
ATOM     33  C11 non d ame      -9.533  18.282  67.051  0.00  0.00    -0.033 C 
ATOM     34  H12 non d ame      -8.538  18.719  67.132  0.00  0.00     0.042 H 
BRANCH  33  35
ATOM     35  C12 non d ame     -10.425  19.291  66.261  0.00  0.00    -0.071 C 
ATOM     36  H13 non d ame      -9.982  19.479  65.283  0.00  0.00     0.028 H 
ATOM     37  H14 non d ame     -11.422  18.870  66.133  0.00  0.00     0.028 H 
ATOM     38  H15 non d ame     -10.493  20.226  66.816  0.00  0.00     0.028 H 
ENDBRANCH  33  35
BRANCH  33  39
ATOM     39  C13 non d ame     -10.080  18.054  68.497  0.00  0.00    -0.071 C 
ATOM     40  H16 non d ame     -10.106  19.005  69.029  0.00  0.00     0.028 H 
ATOM     41  H17 non d ame     -11.087  17.640  68.444  0.00  0.00     0.028 H 
ATOM     42  H18 non d ame      -9.428  17.359  69.026  0.00  0.00     0.028 H 
ENDBRANCH  33  39
ENDBRANCH   7  33
ENDBRANCH   4   7
ENDBRANCH   1   3
BRANCH   1  43
ATOM     43  C15 non d ame      -6.804  13.004  67.341  0.00  0.00     0.240 C 
ATOM     44  O5  non d ame      -5.806  12.549  66.884  0.00  0.00    -0.271 OA
ATOM     45  N6  non d ame      -8.048  12.182  67.371  0.00  0.00    -0.355 N 
ATOM     46  H46 non d ame      -8.900  12.556  67.761  0.00  0.00     0.162 HD
BRANCH  45  47
ATOM     47  C20 non d ame      -8.031  10.808  66.824  0.00  0.00     0.013 C 
ATOM     48  H30 non d ame      -7.722  10.866  65.781  0.00  0.00     0.072 H 
BRANCH  47  49
ATOM     49  C21 non d ame      -9.419  10.216  66.919  0.00  0.00    -0.038 C 
ATOM     50  H31 non d ame      -9.370   9.475  67.717  0.00  0.00     0.036 H 
ATOM     51  H32 non d ame     -10.096  11.066  67.005  0.00  0.00     0.036 H 
BRANCH  49  52
ATOM     52  C22 non d ame      -9.835   9.454  65.642  0.00  0.00     0.018 C 
ATOM     53  H33 non d ame      -9.039   8.731  65.457  0.00  0.00     0.048 H 
ATOM     54  H34 non d ame     -10.853   9.109  65.821  0.00  0.00     0.048 H 
BRANCH  52  55
ATOM     55  C23 non d ame      -9.903  10.349  64.373  0.00  0.00     0.259 C 
ATOM     56  O7  non d ame     -10.717  11.210  64.286  0.00  0.00    -0.265 OA
BRANCH  55  57
ATOM     57  O8  non d ame      -8.989  10.119  63.308  0.00  0.00    -0.317 OA
BRANCH  57  58
ATOM     58  C29 non d ame      -8.550   8.762  63.200  0.00  0.00     0.052 C 
ATOM     59  H47 non d ame      -8.883   8.271  64.114  0.00  0.00     0.082 H 
ATOM     60  H48 non d ame      -8.909   8.412  62.232  0.00  0.00     0.082 H 
BRANCH  58  61
ATOM     61  C35 non d ame      -6.998   8.761  63.178  0.00  0.00    -0.034 A 
ATOM     62  C30 non d ame      -6.301   9.964  63.145  0.00  0.00    -0.075 A 
ATOM     63  C31 non d ame      -4.907   9.963  63.125  0.00  0.00    -0.082 A 
ATOM     64  H49 non d ame      -6.846  10.908  63.136  0.00  0.00     0.084 H 
ATOM     65  C32 non d ame      -4.210   8.752  63.135  0.00  0.00    -0.083 A 
ATOM     66  H50 non d ame      -4.363  10.907  63.102  0.00  0.00     0.083 H 
ATOM     67  C33 non d ame      -4.910   7.553  63.164  0.00  0.00    -0.082 A 
ATOM     68  H51 non d ame      -3.120   8.742  63.120  0.00  0.00     0.083 H 
ATOM     69  C34 non d ame      -6.303   7.550  63.186  0.00  0.00    -0.075 A 
ATOM     70  H52 non d ame      -4.363   6.610  63.169  0.00  0.00     0.083 H 
ATOM     71  H53 non d ame      -6.846   6.604  63.210  0.00  0.00     0.084 H 
ENDBRANCH  58  61
ENDBRANCH  57  58
ENDBRANCH  55  57
ENDBRANCH  52  55
ENDBRANCH  49  52
ENDBRANCH  47  49
BRANCH  47  72
ATOM     72  C24 non d ame      -7.054   9.946  67.620  0.00  0.00    -0.039 C 
ATOM     73  H35 non d ame      -6.271  10.629  67.954  0.00  0.00     0.036 H 
ATOM     74  H36 non d ame      -7.663   9.417  68.353  0.00  0.00     0.036 H 
BRANCH  72  75
ATOM     75  C25 non d ame      -6.354   8.838  66.699  0.00  0.00    -0.001 C 
ATOM     76  C26 non d ame      -6.754   7.334  67.231  0.00  0.00    -0.035 C 
ATOM     77  C27 non d ame      -5.619   6.613  67.392  0.00  0.00     0.085 C 
ATOM     78  H38 non d ame      -7.165   7.391  68.238  0.00  0.00     0.036 H 
ATOM     79  H39 non d ame      -7.291   6.793  66.452  0.00  0.00     0.036 H 
ATOM     80  N5  non d ame      -4.465   7.585  67.334  0.00  0.00    -0.049 N 
ATOM     81  H40 non d ame      -5.680   6.194  68.397  0.00  0.00     0.075 H 
ATOM     82  H41 non d ame      -5.569   5.951  66.528  0.00  0.00     0.075 H 
ATOM     83  C28 non d ame      -5.068   8.953  66.725  0.00  0.00     0.193 C 
ATOM     84  H42 non d ame      -4.185   7.754  68.290  0.00  0.00     0.280 HD
ATOM     85  H43 non d ame      -3.803   7.204  66.674  0.00  0.00     0.280 HD
ATOM     86  H44 non d ame      -4.872   9.231  65.690  0.00  0.00     0.129 H 
ATOM     87  H37 non d ame      -6.487   9.041  65.636  0.00  0.00     0.046 H 
BRANCH  83  88
ATOM     88  O6  non d ame      -4.642  10.070  67.508  0.00  0.00    -0.369 OA
ATOM     89  H45 non d ame      -3.683  10.095  67.534  0.00  0.00     0.212 HD
ENDBRANCH  83  88
ENDBRANCH  72  75
ENDBRANCH  47  72
ENDBRANCH  45  47
ENDBRANCH   1  43
BRANCH   1  90
ATOM     90  C16 non d ame      -6.679  14.400  69.428  0.00  0.00    -0.035 C 
ATOM     91  H21 non d ame      -6.883  15.416  69.768  0.00  0.00     0.037 H 
ATOM     92  H22 non d ame      -7.325  13.581  69.744  0.00  0.00     0.037 H 
BRANCH  90  93
ATOM     93  C17 non d ame      -5.242  14.048  69.927  0.00  0.00    -0.059 C 
ATOM     94  H23 non d ame      -4.757  13.457  69.150  0.00  0.00     0.038 H 
BRANCH  93  95
ATOM     95  C18 non d ame      -4.372  15.323  70.168  0.00  0.00    -0.073 C 
ATOM     96  H24 non d ame      -4.891  15.992  70.854  0.00  0.00     0.028 H 
ATOM     97  H25 non d ame      -3.414  15.033  70.598  0.00  0.00     0.028 H 
ATOM     98  H26 non d ame      -4.205  15.833  69.219  0.00  0.00     0.028 H 
ENDBRANCH  93  95
BRANCH  93  99
ATOM     99  C19 non d ame      -5.298  13.182  71.188  0.00  0.00    -0.073 C 
ATOM    100  H27 non d ame      -6.276  13.288  71.659  0.00  0.00     0.028 H 
ATOM    101  H28 non d ame      -5.136  12.137  70.919  0.00  0.00     0.028 H 
ATOM    102  H29 non d ame      -4.523  13.501  71.884  0.00  0.00     0.028 H 
ENDBRANCH  93  99
ENDBRANCH  90  93
ENDBRANCH   1  90
TORSDOF 26
ENDMDL
MODEL 19
REMARK VINA RESULT:      -5.9      3.612      8.291
REMARK  26 active torsions:
REMARK  status: ('A' for Active; 'I' for Inactive)
REMARK    1  A    between atoms: C2_2  and  C3_3 
REMARK    2  A    between atoms: C4_6  and  C5_7 
REMARK       I    between atoms: C5_7  and  N2_9 
REMARK    3  A    between atoms: N2_9  and  C6_10 
REMARK    4  A    between atoms: C6_10  and  C7_11 
REMARK    5  A    between atoms: C6_10  and  C8_13 
REMARK       I    between atoms: C7_11  and  N3_14 
REMARK    6  A    between atoms: N3_14  and  C9_15 
REMARK    7  A    between atoms: C9_15  and  C10_16 
REMARK    8  A    between atoms: C9_15  and  C11_18 
REMARK       I    between atoms: C10_16  and  N4_21 
REMARK    9  A    between atoms: C11_18  and  C12_19 
REMARK   10  A    between atoms: C11_18  and  C13_20 
REMARK   11  A    between atoms: N4_21  and  C14_22 
REMARK   12  A    between atoms: C14_22  and  C15_23 
REMARK   13  A    between atoms: C14_22  and  C16_25 
REMARK       I    between atoms: C15_23  and  N6_40 
REMARK   14  A    between atoms: C16_25  and  C17_26 
REMARK   15  A    between atoms: C17_26  and  C18_27 
REMARK   16  A    between atoms: C17_26  and  C19_28 
REMARK   17  A    between atoms: C20_29  and  C21_30 
REMARK   18  A    between atoms: C20_29  and  C24_33 
REMARK   19  A    between atoms: C20_29  and  N6_40 
REMARK   20  A    between atoms: C21_30  and  C22_31 
REMARK   21  A    between atoms: C22_31  and  C23_32 
REMARK   22  A    between atoms: C23_32  and  O8_43 
REMARK   23  A    between atoms: C24_33  and  C25_34 
REMARK   24  A    between atoms: C28_38  and  O6_39 
REMARK   25  A    between atoms: C29_42  and  O8_43 
REMARK   26  A    between atoms: C29_42  and  C35_49 
ROOT
ATOM      1  C14 non d ame      -6.173   8.223  66.386  0.00  0.00     0.089 C 
ATOM      2  H20 non d ame      -6.069   7.735  65.417  0.00  0.00     0.087 H 
ENDROOT
BRANCH   1   3
ATOM      3  N4  non d ame      -6.552   9.607  66.142  0.00  0.00    -0.346 N 
ATOM      4  C10 non d ame      -6.915  10.511  67.293  0.00  0.00     0.241 C 
ATOM      5  O4  non d ame      -6.898  10.102  68.407  0.00  0.00    -0.271 OA
ATOM      6  H19 non d ame      -6.562   9.935  65.187  0.00  0.00     0.163 HD
BRANCH   4   7
ATOM      7  C9  non d ame      -7.299  11.942  67.023  0.00  0.00     0.092 C 
ATOM      8  H11 non d ame      -7.099  12.176  65.977  0.00  0.00     0.088 H 
BRANCH   7   9
ATOM      9  N3  non d ame      -8.740  12.110  67.236  0.00  0.00    -0.346 N 
ATOM     10  C7  non d ame      -9.670  11.752  66.194  0.00  0.00     0.240 C 
ATOM     11  O3  non d ame      -9.276  11.328  65.176  0.00  0.00    -0.271 OA
ATOM     12  H10 non d ame      -9.094  12.476  68.108  0.00  0.00     0.163 HD
BRANCH  10  13
ATOM     13  C6  non d ame     -11.202  11.936  66.426  0.00  0.00     0.086 C 
ATOM     14  H6  non d ame     -11.659  11.079  66.920  0.00  0.00     0.086 H 
BRANCH  13  15
ATOM     15  N2  non d ame     -11.412  13.080  67.298  0.00  0.00    -0.343 N 
ATOM     16  C5  non d ame     -11.818  12.863  68.688  0.00  0.00     0.273 C 
ATOM     17  O2  non d ame     -11.975  11.764  69.095  0.00  0.00    -0.266 OA
ATOM     18  H5  non d ame     -11.277  14.016  66.941  0.00  0.00     0.163 HD
BRANCH  16  19
ATOM     19  C4  non d ame     -12.042  14.063  69.621  0.00  0.00     0.154 A 
ATOM     20  C1  non d ame     -12.355  14.026  71.017  0.00  0.00    -0.017 A 
ATOM     21  C2  non d ame     -12.458  15.382  71.402  0.00  0.00     0.077 A 
ATOM     22  H1  non d ame     -12.487  13.151  71.653  0.00  0.00     0.091 H 
ATOM     23  O1  non d ame     -12.228  16.103  70.345  0.00  0.00    -0.218 OA
ATOM     24  N1  non d ame     -11.983  15.357  69.293  0.00  0.00    -0.123 NA
BRANCH  21  25
ATOM     25  C3  non d ame     -12.777  15.901  72.798  0.00  0.00    -0.029 C 
ATOM     26  H2  non d ame     -12.255  15.295  73.540  0.00  0.00     0.036 H 
ATOM     27  H3  non d ame     -12.454  16.938  72.883  0.00  0.00     0.036 H 
ATOM     28  H4  non d ame     -13.852  15.840  72.971  0.00  0.00     0.036 H 
ENDBRANCH  21  25
ENDBRANCH  16  19
ENDBRANCH  13  15
BRANCH  13  29
ATOM     29  C8  non d ame     -11.890  12.161  65.104  0.00  0.00    -0.049 C 
ATOM     30  H7  non d ame     -11.200  11.934  64.291  0.00  0.00     0.030 H 
ATOM     31  H8  non d ame     -12.762  11.510  65.033  0.00  0.00     0.030 H 
ATOM     32  H9  non d ame     -12.205  13.201  65.031  0.00  0.00     0.030 H 
ENDBRANCH  13  29
ENDBRANCH  10  13
ENDBRANCH   7   9
BRANCH   7  33
ATOM     33  C11 non d ame      -6.521  12.880  67.991  0.00  0.00    -0.033 C 
ATOM     34  H12 non d ame      -6.662  12.499  69.002  0.00  0.00     0.042 H 
BRANCH  33  35
ATOM     35  C12 non d ame      -4.989  12.860  67.693  0.00  0.00    -0.071 C 
ATOM     36  H13 non d ame      -4.521  13.740  68.135  0.00  0.00     0.028 H 
ATOM     37  H14 non d ame      -4.547  11.961  68.121  0.00  0.00     0.028 H 
ATOM     38  H15 non d ame      -4.829  12.867  66.615  0.00  0.00     0.028 H 
ENDBRANCH  33  35
BRANCH  33  39
ATOM     39  C13 non d ame      -7.089  14.334  67.939  0.00  0.00    -0.071 C 
ATOM     40  H16 non d ame      -6.652  14.925  68.743  0.00  0.00     0.028 H 
ATOM     41  H17 non d ame      -6.840  14.788  66.979  0.00  0.00     0.028 H 
ATOM     42  H18 non d ame      -8.172  14.305  68.057  0.00  0.00     0.028 H 
ENDBRANCH  33  39
ENDBRANCH   7  33
ENDBRANCH   4   7
ENDBRANCH   1   3
BRANCH   1  43
ATOM     43  C15 non d ame      -7.270   7.556  67.264  0.00  0.00     0.240 C 
ATOM     44  O5  non d ame      -6.956   6.836  68.156  0.00  0.00    -0.271 OA
ATOM     45  N6  non d ame      -8.712   7.823  66.999  0.00  0.00    -0.355 N 
ATOM     46  H46 non d ame      -8.991   8.437  66.248  0.00  0.00     0.162 HD
BRANCH  45  47
ATOM     47  C20 non d ame      -9.744   7.183  67.844  0.00  0.00     0.013 C 
ATOM     48  H30 non d ame      -9.249   6.444  68.475  0.00  0.00     0.072 H 
BRANCH  47  49
ATOM     49  C21 non d ame     -10.765   6.505  66.959  0.00  0.00    -0.038 C 
ATOM     50  H31 non d ame     -11.712   6.575  67.494  0.00  0.00     0.036 H 
ATOM     51  H32 non d ame     -10.657   6.968  65.978  0.00  0.00     0.036 H 
BRANCH  49  52
ATOM     52  C22 non d ame     -10.484   4.999  66.764  0.00  0.00     0.018 C 
ATOM     53  H33 non d ame      -9.724   4.742  67.503  0.00  0.00     0.048 H 
ATOM     54  H34 non d ame     -11.459   4.511  66.793  0.00  0.00     0.048 H 
BRANCH  52  55
ATOM     55  C23 non d ame      -9.871   4.650  65.380  0.00  0.00     0.259 C 
ATOM     56  O7  non d ame     -10.402   3.863  64.666  0.00  0.00    -0.265 OA
BRANCH  55  57
ATOM     57  O8  non d ame      -8.657   5.274  64.978  0.00  0.00    -0.317 OA
BRANCH  57  58
ATOM     58  C29 non d ame      -8.522   5.428  63.562  0.00  0.00     0.052 C 
ATOM     59  H47 non d ame      -8.267   4.439  63.181  0.00  0.00     0.082 H 
ATOM     60  H48 non d ame      -9.436   5.920  63.230  0.00  0.00     0.082 H 
BRANCH  58  61
ATOM     61  C35 non d ame      -7.327   6.381  63.295  0.00  0.00    -0.034 A 
ATOM     62  C30 non d ame      -6.023   5.921  63.443  0.00  0.00    -0.075 A 
ATOM     63  C31 non d ame      -4.949   6.777  63.204  0.00  0.00    -0.082 A 
ATOM     64  H49 non d ame      -5.842   4.890  63.746  0.00  0.00     0.084 H 
ATOM     65  C32 non d ame      -5.184   8.100  62.818  0.00  0.00    -0.083 A 
ATOM     66  H50 non d ame      -3.928   6.413  63.318  0.00  0.00     0.083 H 
ATOM     67  C33 non d ame      -6.487   8.555  62.675  0.00  0.00    -0.082 A 
ATOM     68  H51 non d ame      -4.350   8.776  62.628  0.00  0.00     0.083 H 
ATOM     69  C34 non d ame      -7.563   7.702  62.911  0.00  0.00    -0.075 A 
ATOM     70  H52 non d ame      -6.667   9.588  62.376  0.00  0.00     0.083 H 
ATOM     71  H53 non d ame      -8.584   8.067  62.796  0.00  0.00     0.084 H 
ENDBRANCH  58  61
ENDBRANCH  57  58
ENDBRANCH  55  57
ENDBRANCH  52  55
ENDBRANCH  49  52
ENDBRANCH  47  49
BRANCH  47  72
ATOM     72  C24 non d ame     -10.435   8.238  68.705  0.00  0.00    -0.039 C 
ATOM     73  H35 non d ame      -9.837   9.143  68.590  0.00  0.00     0.036 H 
ATOM     74  H36 non d ame     -11.478   8.232  68.389  0.00  0.00     0.036 H 
BRANCH  72  75
ATOM     75  C25 non d ame     -10.408   7.847  70.258  0.00  0.00    -0.001 C 
ATOM     76  C26 non d ame     -11.794   7.060  70.661  0.00  0.00    -0.035 C 
ATOM     77  C27 non d ame     -12.334   7.656  71.751  0.00  0.00     0.085 C 
ATOM     78  H38 non d ame     -12.548   7.210  69.888  0.00  0.00     0.036 H 
ATOM     79  H39 non d ame     -11.565   6.052  71.009  0.00  0.00     0.036 H 
ATOM     80  N5  non d ame     -11.621   8.974  71.931  0.00  0.00    -0.049 N 
ATOM     81  H40 non d ame     -13.376   7.848  71.492  0.00  0.00     0.075 H 
ATOM     82  H41 non d ame     -12.092   7.004  72.589  0.00  0.00     0.075 H 
ATOM     83  C28 non d ame     -10.303   8.897  71.003  0.00  0.00     0.193 C 
ATOM     84  H42 non d ame     -12.235   9.685  71.559  0.00  0.00     0.280 HD
ATOM     85  H43 non d ame     -11.331   9.013  72.898  0.00  0.00     0.280 HD
ATOM     86  H44 non d ame      -9.322   8.727  71.447  0.00  0.00     0.129 H 
ATOM     87  H37 non d ame      -9.468   7.378  70.549  0.00  0.00     0.046 H 
BRANCH  83  88
ATOM     88  O6  non d ame     -10.171  10.093  70.233  0.00  0.00    -0.369 OA
ATOM     89  H45 non d ame     -10.538  10.831  70.724  0.00  0.00     0.212 HD
ENDBRANCH  83  88
ENDBRANCH  72  75
ENDBRANCH  47  72
ENDBRANCH  45  47
ENDBRANCH   1  43
BRANCH   1  90
ATOM     90  C16 non d ame      -4.842   8.195  67.122  0.00  0.00    -0.035 C 
ATOM     91  H21 non d ame      -4.659   9.226  67.426  0.00  0.00     0.037 H 
ATOM     92  H22 non d ame      -4.946   7.415  67.876  0.00  0.00     0.037 H 
BRANCH  90  93
ATOM     93  C17 non d ame      -3.636   7.781  66.220  0.00  0.00    -0.059 C 
ATOM     94  H23 non d ame      -4.034   7.229  65.368  0.00  0.00     0.038 H 
BRANCH  93  95
ATOM     95  C18 non d ame      -2.862   9.019  65.666  0.00  0.00    -0.073 C 
ATOM     96  H24 non d ame      -3.155   9.198  64.632  0.00  0.00     0.028 H 
ATOM     97  H25 non d ame      -3.100   9.896  66.269  0.00  0.00     0.028 H 
ATOM     98  H26 non d ame      -1.790   8.827  65.712  0.00  0.00     0.028 H 
ENDBRANCH  93  95
BRANCH  93  99
ATOM     99  C19 non d ame      -2.691   6.838  66.970  0.00  0.00    -0.073 C 
ATOM    100  H27 non d ame      -3.255   5.987  67.352  0.00  0.00     0.028 H 
ATOM    101  H28 non d ame      -1.915   6.485  66.290  0.00  0.00     0.028 H 
ATOM    102  H29 non d ame      -2.231   7.372  67.801  0.00  0.00     0.028 H 
ENDBRANCH  93  99
ENDBRANCH  90  93
ENDBRANCH   1  90
TORSDOF 26
ENDMDL
MODEL 20
REMARK VINA RESULT:      -5.8      4.004      9.027
REMARK  26 active torsions:
REMARK  status: ('A' for Active; 'I' for Inactive)
REMARK    1  A    between atoms: C2_2  and  C3_3 
REMARK    2  A    between atoms: C4_6  and  C5_7 
REMARK       I    between atoms: C5_7  and  N2_9 
REMARK    3  A    between atoms: N2_9  and  C6_10 
REMARK    4  A    between atoms: C6_10  and  C7_11 
REMARK    5  A    between atoms: C6_10  and  C8_13 
REMARK       I    between atoms: C7_11  and  N3_14 
REMARK    6  A    between atoms: N3_14  and  C9_15 
REMARK    7  A    between atoms: C9_15  and  C10_16 
REMARK    8  A    between atoms: C9_15  and  C11_18 
REMARK       I    between atoms: C10_16  and  N4_21 
REMARK    9  A    between atoms: C11_18  and  C12_19 
REMARK   10  A    between atoms: C11_18  and  C13_20 
REMARK   11  A    between atoms: N4_21  and  C14_22 
REMARK   12  A    between atoms: C14_22  and  C15_23 
REMARK   13  A    between atoms: C14_22  and  C16_25 
REMARK       I    between atoms: C15_23  and  N6_40 
REMARK   14  A    between atoms: C16_25  and  C17_26 
REMARK   15  A    between atoms: C17_26  and  C18_27 
REMARK   16  A    between atoms: C17_26  and  C19_28 
REMARK   17  A    between atoms: C20_29  and  C21_30 
REMARK   18  A    between atoms: C20_29  and  C24_33 
REMARK   19  A    between atoms: C20_29  and  N6_40 
REMARK   20  A    between atoms: C21_30  and  C22_31 
REMARK   21  A    between atoms: C22_31  and  C23_32 
REMARK   22  A    between atoms: C23_32  and  O8_43 
REMARK   23  A    between atoms: C24_33  and  C25_34 
REMARK   24  A    between atoms: C28_38  and  O6_39 
REMARK   25  A    between atoms: C29_42  and  O8_43 
REMARK   26  A    between atoms: C29_42  and  C35_49 
ROOT
ATOM      1  C14 non d ame      -6.293   8.641  65.239  0.00  0.00     0.089 C 
ATOM      2  H20 non d ame      -5.446   9.223  64.874  0.00  0.00     0.087 H 
ENDROOT
BRANCH   1   3
ATOM      3  N4  non d ame      -5.795   7.743  66.270  0.00  0.00    -0.346 N 
ATOM      4  C10 non d ame      -6.753   6.895  67.069  0.00  0.00     0.241 C 
ATOM      5  O4  non d ame      -7.921   6.956  66.866  0.00  0.00    -0.271 OA
ATOM      6  H19 non d ame      -4.798   7.707  66.429  0.00  0.00     0.163 HD
BRANCH   4   7
ATOM      7  C9  non d ame      -6.220   5.967  68.129  0.00  0.00     0.092 C 
ATOM      8  H11 non d ame      -5.178   6.214  68.330  0.00  0.00     0.088 H 
BRANCH   7   9
ATOM      9  N3  non d ame      -6.963   6.171  69.376  0.00  0.00    -0.346 N 
ATOM     10  C7  non d ame      -6.275   6.630  70.557  0.00  0.00     0.240 C 
ATOM     11  O3  non d ame      -5.124   6.840  70.522  0.00  0.00    -0.271 OA
ATOM     12  H10 non d ame      -7.956   5.992  69.422  0.00  0.00     0.163 HD
BRANCH  10  13
ATOM     13  C6  non d ame      -7.071   6.842  71.883  0.00  0.00     0.086 C 
ATOM     14  H6  non d ame      -6.953   7.846  72.290  0.00  0.00     0.086 H 
BRANCH  13  15
ATOM     15  N2  non d ame      -8.489   6.667  71.615  0.00  0.00    -0.343 N 
ATOM     16  C5  non d ame      -9.407   7.788  71.825  0.00  0.00     0.273 C 
ATOM     17  O2  non d ame      -8.996   8.826  72.213  0.00  0.00    -0.266 OA
ATOM     18  H5  non d ame      -8.832   5.775  71.286  0.00  0.00     0.163 HD
BRANCH  16  19
ATOM     19  C4  non d ame     -10.908   7.617  71.545  0.00  0.00     0.154 A 
ATOM     20  C1  non d ame     -11.988   8.330  72.154  0.00  0.00    -0.017 A 
ATOM     21  C2  non d ame     -13.155   7.805  71.555  0.00  0.00     0.077 A 
ATOM     22  H1  non d ame     -11.934   9.109  72.915  0.00  0.00     0.091 H 
ATOM     23  O1  non d ame     -12.777   6.899  70.701  0.00  0.00    -0.218 OA
ATOM     24  N1  non d ame     -11.471   6.771  70.678  0.00  0.00    -0.123 NA
BRANCH  21  25
ATOM     25  C3  non d ame     -14.588   8.224  71.852  0.00  0.00    -0.029 C 
ATOM     26  H2  non d ame     -14.995   8.763  70.996  0.00  0.00     0.036 H 
ATOM     27  H3  non d ame     -15.193   7.338  72.045  0.00  0.00     0.036 H 
ATOM     28  H4  non d ame     -14.604   8.872  72.729  0.00  0.00     0.036 H 
ENDBRANCH  21  25
ENDBRANCH  16  19
ENDBRANCH  13  15
BRANCH  13  29
ATOM     29  C8  non d ame      -6.612   5.842  72.913  0.00  0.00    -0.049 C 
ATOM     30  H7  non d ame      -5.534   5.706  72.833  0.00  0.00     0.030 H 
ATOM     31  H8  non d ame      -6.859   6.207  73.910  0.00  0.00     0.030 H 
ATOM     32  H9  non d ame      -7.112   4.889  72.741  0.00  0.00     0.030 H 
ENDBRANCH  13  29
ENDBRANCH  10  13
ENDBRANCH   7   9
BRANCH   7  33
ATOM     33  C11 non d ame      -6.392   4.492  67.660  0.00  0.00    -0.033 C 
ATOM     34  H12 non d ame      -5.672   3.886  68.210  0.00  0.00     0.042 H 
BRANCH  33  35
ATOM     35  C12 non d ame      -7.816   3.951  67.999  0.00  0.00    -0.071 C 
ATOM     36  H13 non d ame      -7.737   2.933  68.380  0.00  0.00     0.028 H 
ATOM     37  H14 non d ame      -8.276   4.586  68.756  0.00  0.00     0.028 H 
ATOM     38  H15 non d ame      -8.430   3.956  67.099  0.00  0.00     0.028 H 
ENDBRANCH  33  35
BRANCH  33  39
ATOM     39  C13 non d ame      -6.080   4.349  66.136  0.00  0.00    -0.071 C 
ATOM     40  H16 non d ame      -6.930   3.890  65.632  0.00  0.00     0.028 H 
ATOM     41  H17 non d ame      -5.894   5.335  65.709  0.00  0.00     0.028 H 
ATOM     42  H18 non d ame      -5.198   3.724  66.004  0.00  0.00     0.028 H 
ENDBRANCH  33  39
ENDBRANCH   7  33
ENDBRANCH   4   7
ENDBRANCH   1   3
BRANCH   1  43
ATOM     43  C15 non d ame      -7.401   9.540  65.858  0.00  0.00     0.240 C 
ATOM     44  O5  non d ame      -7.115  10.345  66.684  0.00  0.00    -0.271 OA
ATOM     45  N6  non d ame      -8.817   9.404  65.413  0.00  0.00    -0.355 N 
ATOM     46  H46 non d ame      -9.071   8.727  64.708  0.00  0.00     0.162 HD
BRANCH  45  47
ATOM     47  C20 non d ame      -9.859  10.268  66.010  0.00  0.00     0.013 C 
ATOM     48  H30 non d ame      -9.365  11.134  66.450  0.00  0.00     0.072 H 
BRANCH  47  49
ATOM     49  C21 non d ame     -10.596   9.495  67.080  0.00  0.00    -0.038 C 
ATOM     50  H31 non d ame     -11.655   9.624  66.861  0.00  0.00     0.036 H 
ATOM     51  H32 non d ame     -10.156   8.497  67.078  0.00  0.00     0.036 H 
BRANCH  49  52
ATOM     52  C22 non d ame     -10.370  10.068  68.496  0.00  0.00     0.018 C 
ATOM     53  H33 non d ame     -10.387   9.209  69.168  0.00  0.00     0.048 H 
ATOM     54  H34 non d ame      -9.475  10.687  68.425  0.00  0.00     0.048 H 
BRANCH  52  55
ATOM     55  C23 non d ame     -11.506  11.011  68.978  0.00  0.00     0.259 C 
ATOM     56  O7  non d ame     -12.282  11.468  68.202  0.00  0.00    -0.265 OA
BRANCH  55  57
ATOM     57  O8  non d ame     -11.604  11.336  70.360  0.00  0.00    -0.317 OA
BRANCH  57  58
ATOM     58  C29 non d ame     -12.896  11.802  70.759  0.00  0.00     0.052 C 
ATOM     59  H47 non d ame     -13.503  11.797  69.854  0.00  0.00     0.082 H 
ATOM     60  H48 non d ame     -13.182  11.185  71.611  0.00  0.00     0.082 H 
BRANCH  58  61
ATOM     61  C35 non d ame     -12.747  13.269  71.244  0.00  0.00    -0.034 A 
ATOM     62  C30 non d ame     -13.230  13.642  72.494  0.00  0.00    -0.075 A 
ATOM     63  C31 non d ame     -13.097  14.959  72.929  0.00  0.00    -0.082 A 
ATOM     64  H49 non d ame     -13.713  12.902  73.133  0.00  0.00     0.084 H 
ATOM     65  C32 non d ame     -12.480  15.906  72.108  0.00  0.00    -0.083 A 
ATOM     66  H50 non d ame     -13.474  15.248  73.911  0.00  0.00     0.083 H 
ATOM     67  C33 non d ame     -12.002  15.530  70.860  0.00  0.00    -0.082 A 
ATOM     68  H51 non d ame     -12.371  16.939  72.441  0.00  0.00     0.083 H 
ATOM     69  C34 non d ame     -12.131  14.214  70.422  0.00  0.00    -0.075 A 
ATOM     70  H52 non d ame     -11.523  16.272  70.221  0.00  0.00     0.083 H 
ATOM     71  H53 non d ame     -11.753  13.926  69.440  0.00  0.00     0.084 H 
ENDBRANCH  58  61
ENDBRANCH  57  58
ENDBRANCH  55  57
ENDBRANCH  52  55
ENDBRANCH  49  52
ENDBRANCH  47  49
BRANCH  47  72
ATOM     72  C24 non d ame     -10.844  10.710  64.930  0.00  0.00    -0.039 C 
ATOM     73  H35 non d ame     -10.759   9.966  64.138  0.00  0.00     0.036 H 
ATOM     74  H36 non d ame     -11.794  10.851  65.445  0.00  0.00     0.036 H 
BRANCH  72  75
ATOM     75  C25 non d ame     -10.435  12.124  64.298  0.00  0.00    -0.001 C 
ATOM     76  C26 non d ame     -10.693  13.323  65.392  0.00  0.00    -0.035 C 
ATOM     77  C27 non d ame     -11.430  14.297  64.807  0.00  0.00     0.085 C 
ATOM     78  H38 non d ame     -11.337  12.964  66.195  0.00  0.00     0.036 H 
ATOM     79  H39 non d ame      -9.753  13.823  65.629  0.00  0.00     0.036 H 
ATOM     80  N5  non d ame     -11.975  13.725  63.520  0.00  0.00    -0.049 N 
ATOM     81  H40 non d ame     -12.259  14.486  65.490  0.00  0.00     0.075 H 
ATOM     82  H41 non d ame     -10.726  15.094  64.571  0.00  0.00     0.075 H 
ATOM     83  C28 non d ame     -11.128  12.380  63.238  0.00  0.00     0.193 C 
ATOM     84  H42 non d ame     -12.934  13.469  63.704  0.00  0.00     0.280 HD
ATOM     85  H43 non d ame     -11.761  14.396  62.796  0.00  0.00     0.280 HD
ATOM     86  H44 non d ame     -10.344  12.367  62.481  0.00  0.00     0.129 H 
ATOM     87  H37 non d ame      -9.457  12.093  63.817  0.00  0.00     0.046 H 
BRANCH  83  88
ATOM     88  O6  non d ame     -12.006  11.307  62.897  0.00  0.00    -0.369 OA
ATOM     89  H45 non d ame     -12.460  11.001  63.685  0.00  0.00     0.212 HD
ENDBRANCH  83  88
ENDBRANCH  72  75
ENDBRANCH  47  72
ENDBRANCH  45  47
ENDBRANCH   1  43
BRANCH   1  90
ATOM     90  C16 non d ame      -6.878   7.817  64.103  0.00  0.00    -0.035 C 
ATOM     91  H21 non d ame      -6.522   6.800  64.271  0.00  0.00     0.037 H 
ATOM     92  H22 non d ame      -7.947   8.028  64.115  0.00  0.00     0.037 H 
BRANCH  90  93
ATOM     93  C17 non d ame      -6.360   8.238  62.691  0.00  0.00    -0.059 C 
ATOM     94  H23 non d ame      -6.316   7.341  62.074  0.00  0.00     0.038 H 
BRANCH  93  95
ATOM     95  C18 non d ame      -7.319   9.253  61.990  0.00  0.00    -0.073 C 
ATOM     96  H24 non d ame      -7.439  10.134  62.620  0.00  0.00     0.028 H 
ATOM     97  H25 non d ame      -6.897   9.547  61.029  0.00  0.00     0.028 H 
ATOM     98  H26 non d ame      -8.290   8.784  61.832  0.00  0.00     0.028 H 
ENDBRANCH  93  95
BRANCH  93  99
ATOM     99  C19 non d ame      -4.939   8.801  62.776  0.00  0.00    -0.073 C 
ATOM    100  H27 non d ame      -4.977   9.832  63.131  0.00  0.00     0.028 H 
ATOM    101  H28 non d ame      -4.351   8.200  63.469  0.00  0.00     0.028 H 
ATOM    102  H29 non d ame      -4.477   8.773  61.789  0.00  0.00     0.028 H 
ENDBRANCH  93  99
ENDBRANCH  90  93
ENDBRANCH   1  90
TORSDOF 26
ENDMDL
