MODEL 1
REMARK VINA RESULT:      -6.9      0.000      0.000
REMARK  26 active torsions:
REMARK  status: ('A' for Active; 'I' for Inactive)
REMARK    1  A    between atoms: C2_2  and  C3_3 
REMARK    2  A    between atoms: C4_6  and  C5_7 
REMARK       I    between atoms: C5_7  and  N2_9 
REMARK    3  A    between atoms: N2_9  and  C6_10 
REMARK    4  A    between atoms: C6_10  and  C7_11 
REMARK    5  A    between atoms: C6_10  and  C8_13 
REMARK       I    between atoms: C7_11  and  N3_14 
REMARK    6  A    between atoms: N3_14  and  C9_15 
REMARK    7  A    between atoms: C9_15  and  C10_16 
REMARK    8  A    between atoms: C9_15  and  C11_18 
REMARK       I    between atoms: C10_16  and  N4_21 
REMARK    9  A    between atoms: C11_18  and  C12_19 
REMARK   10  A    between atoms: C11_18  and  C13_20 
REMARK   11  A    between atoms: N4_21  and  C14_22 
REMARK   12  A    between atoms: C14_22  and  C15_23 
REMARK   13  A    between atoms: C14_22  and  C16_25 
REMARK       I    between atoms: C15_23  and  N6_40 
REMARK   14  A    between atoms: C16_25  and  C17_26 
REMARK   15  A    between atoms: C17_26  and  C18_27 
REMARK   16  A    between atoms: C17_26  and  C19_28 
REMARK   17  A    between atoms: C20_29  and  C21_30 
REMARK   18  A    between atoms: C20_29  and  C24_33 
REMARK   19  A    between atoms: C20_29  and  N6_40 
REMARK   20  A    between atoms: C21_30  and  C22_31 
REMARK   21  A    between atoms: C22_31  and  C23_32 
REMARK   22  A    between atoms: C23_32  and  O8_43 
REMARK   23  A    between atoms: C24_33  and  C25_34 
REMARK   24  A    between atoms: C28_38  and  O6_39 
REMARK   25  A    between atoms: C29_42  and  O8_43 
REMARK   26  A    between atoms: C29_42  and  C35_49 
ROOT
ATOM      1  C14 non d ame      -7.726   9.136  67.368  0.00  0.00     0.089 C 
ATOM      2  H20 non d ame      -7.550   8.508  66.494  0.00  0.00     0.087 H 
ENDROOT
BRANCH   1   3
ATOM      3  N4  non d ame      -8.799  10.062  67.034  0.00  0.00    -0.346 N 
ATOM      4  C10 non d ame      -9.539   9.930  65.728  0.00  0.00     0.241 C 
ATOM      5  O4  non d ame      -9.252   9.073  64.959  0.00  0.00    -0.271 OA
ATOM      6  H19 non d ame      -9.026  10.785  67.701  0.00  0.00     0.163 HD
BRANCH   4   7
ATOM      7  C9  non d ame     -10.651  10.892  65.401  0.00  0.00     0.092 C 
ATOM      8  H11 non d ame     -11.577  10.536  65.851  0.00  0.00     0.088 H 
BRANCH   7   9
ATOM      9  N3  non d ame     -10.355  12.200  65.995  0.00  0.00    -0.346 N 
ATOM     10  C7  non d ame     -11.213  12.734  67.025  0.00  0.00     0.240 C 
ATOM     11  O3  non d ame     -12.145  12.125  67.387  0.00  0.00    -0.271 OA
ATOM     12  H10 non d ame      -9.556  12.737  65.692  0.00  0.00     0.163 HD
BRANCH  10  13
ATOM     13  C6  non d ame     -10.895  14.127  67.651  0.00  0.00     0.086 C 
ATOM     14  H6  non d ame     -11.370  14.948  67.115  0.00  0.00     0.086 H 
BRANCH  13  15
ATOM     15  N2  non d ame     -11.412  14.163  69.009  0.00  0.00    -0.343 N 
ATOM     16  C5  non d ame     -11.973  15.409  69.535  0.00  0.00     0.273 C 
ATOM     17  O2  non d ame     -12.001  16.378  68.858  0.00  0.00    -0.266 OA
ATOM     18  H5  non d ame     -11.382  13.331  69.581  0.00  0.00     0.163 HD
BRANCH  16  19
ATOM     19  C4  non d ame     -12.524  15.461  70.968  0.00  0.00     0.154 A 
ATOM     20  C1  non d ame     -11.775  15.608  72.178  0.00  0.00    -0.017 A 
ATOM     21  C2  non d ame     -12.742  15.597  73.208  0.00  0.00     0.077 A 
ATOM     22  H1  non d ame     -10.695  15.707  72.292  0.00  0.00     0.091 H 
ATOM     23  O1  non d ame     -13.906  15.461  72.645  0.00  0.00    -0.218 OA
ATOM     24  N1  non d ame     -13.805  15.379  71.338  0.00  0.00    -0.123 NA
BRANCH  21  25
ATOM     25  C3  non d ame     -12.470  15.723  74.701  0.00  0.00    -0.029 C 
ATOM     26  H2  non d ame     -12.410  14.729  75.145  0.00  0.00     0.036 H 
ATOM     27  H3  non d ame     -11.527  16.247  74.856  0.00  0.00     0.036 H 
ATOM     28  H4  non d ame     -13.278  16.283  75.172  0.00  0.00     0.036 H 
ENDBRANCH  21  25
ENDBRANCH  16  19
ENDBRANCH  13  15
BRANCH  13  29
ATOM     29  C8  non d ame      -9.404  14.349  67.660  0.00  0.00    -0.049 C 
ATOM     30  H7  non d ame      -9.173  15.247  68.233  0.00  0.00     0.030 H 
ATOM     31  H8  non d ame      -8.911  13.490  68.116  0.00  0.00     0.030 H 
ATOM     32  H9  non d ame      -9.049  14.471  66.637  0.00  0.00     0.030 H 
ENDBRANCH  13  29
ENDBRANCH  10  13
ENDBRANCH   7   9
BRANCH   7  33
ATOM     33  C11 non d ame     -10.770  11.043  63.856  0.00  0.00    -0.033 C 
ATOM     34  H12 non d ame     -10.832  10.040  63.432  0.00  0.00     0.042 H 
BRANCH  33  35
ATOM     35  C12 non d ame     -12.074  11.801  63.458  0.00  0.00    -0.071 C 
ATOM     36  H13 non d ame     -12.861  11.080  63.236  0.00  0.00     0.028 H 
ATOM     37  H14 non d ame     -12.390  12.439  64.283  0.00  0.00     0.028 H 
ATOM     38  H15 non d ame     -11.883  12.413  62.577  0.00  0.00     0.028 H 
ENDBRANCH  33  35
BRANCH  33  39
ATOM     39  C13 non d ame      -9.505  11.741  63.263  0.00  0.00    -0.071 C 
ATOM     40  H16 non d ame      -9.474  12.779  63.593  0.00  0.00     0.028 H 
ATOM     41  H17 non d ame      -8.609  11.224  63.607  0.00  0.00     0.028 H 
ATOM     42  H18 non d ame      -9.548  11.707  62.174  0.00  0.00     0.028 H 
ENDBRANCH  33  39
ENDBRANCH   7  33
ENDBRANCH   4   7
ENDBRANCH   1   3
BRANCH   1  43
ATOM     43  C15 non d ame      -8.156   8.306  68.611  0.00  0.00     0.240 C 
ATOM     44  O5  non d ame      -7.353   7.649  69.190  0.00  0.00    -0.271 OA
ATOM     45  N6  non d ame      -9.569   8.337  69.085  0.00  0.00    -0.355 N 
ATOM     46  H46 non d ame     -10.260   8.895  68.604  0.00  0.00     0.162 HD
BRANCH  45  47
ATOM     47  C20 non d ame      -9.962   7.543  70.269  0.00  0.00     0.013 C 
ATOM     48  H30 non d ame      -9.070   7.048  70.652  0.00  0.00     0.072 H 
BRANCH  47  49
ATOM     49  C21 non d ame     -10.990   6.512  69.861  0.00  0.00    -0.038 C 
ATOM     50  H31 non d ame     -10.719   5.599  70.392  0.00  0.00     0.036 H 
ATOM     51  H32 non d ame     -11.960   6.978  70.037  0.00  0.00     0.036 H 
BRANCH  49  52
ATOM     52  C22 non d ame     -10.934   6.174  68.355  0.00  0.00     0.018 C 
ATOM     53  H33 non d ame     -11.922   5.789  68.102  0.00  0.00     0.048 H 
ATOM     54  H34 non d ame     -10.557   7.072  67.865  0.00  0.00     0.048 H 
BRANCH  52  55
ATOM     55  C23 non d ame      -9.931   5.040  68.004  0.00  0.00     0.259 C 
ATOM     56  O7  non d ame      -9.830   4.086  68.705  0.00  0.00    -0.265 OA
BRANCH  55  57
ATOM     57  O8  non d ame      -9.122   5.161  66.841  0.00  0.00    -0.317 OA
BRANCH  57  58
ATOM     58  C29 non d ame      -7.748   4.820  67.048  0.00  0.00     0.052 C 
ATOM     59  H47 non d ame      -7.408   5.452  67.868  0.00  0.00     0.082 H 
ATOM     60  H48 non d ame      -7.726   3.735  67.150  0.00  0.00     0.082 H 
BRANCH  58  61
ATOM     61  C35 non d ame      -6.960   5.208  65.769  0.00  0.00    -0.034 A 
ATOM     62  C30 non d ame      -7.599   5.883  64.734  0.00  0.00    -0.075 A 
ATOM     63  C31 non d ame      -6.891   6.231  63.585  0.00  0.00    -0.082 A 
ATOM     64  H49 non d ame      -8.655   6.139  64.824  0.00  0.00     0.084 H 
ATOM     65  C32 non d ame      -5.538   5.900  63.472  0.00  0.00    -0.083 A 
ATOM     66  H50 non d ame      -7.395   6.762  62.777  0.00  0.00     0.083 H 
ATOM     67  C33 non d ame      -4.905   5.224  64.506  0.00  0.00    -0.082 A 
ATOM     68  H51 non d ame      -4.977   6.169  62.577  0.00  0.00     0.083 H 
ATOM     69  C34 non d ame      -5.608   4.875  65.657  0.00  0.00    -0.075 A 
ATOM     70  H52 non d ame      -3.850   4.965  64.413  0.00  0.00     0.083 H 
ATOM     71  H53 non d ame      -5.104   4.345  66.465  0.00  0.00     0.084 H 
ENDBRANCH  58  61
ENDBRANCH  57  58
ENDBRANCH  55  57
ENDBRANCH  52  55
ENDBRANCH  49  52
ENDBRANCH  47  49
BRANCH  47  72
ATOM     72  C24 non d ame     -10.557   8.463  71.333  0.00  0.00    -0.039 C 
ATOM     73  H35 non d ame     -10.752   7.822  72.194  0.00  0.00     0.036 H 
ATOM     74  H36 non d ame      -9.859   9.295  71.421  0.00  0.00     0.036 H 
BRANCH  72  75
ATOM     75  C25 non d ame     -11.964   9.072  70.870  0.00  0.00    -0.001 C 
ATOM     76  C26 non d ame     -11.803  10.679  70.558  0.00  0.00    -0.035 C 
ATOM     77  C27 non d ame     -12.761  11.354  71.237  0.00  0.00     0.085 C 
ATOM     78  H38 non d ame     -10.875  11.052  70.990  0.00  0.00     0.036 H 
ATOM     79  H39 non d ame     -12.039  10.883  69.514  0.00  0.00     0.036 H 
ATOM     80  N5  non d ame     -13.354  10.391  72.237  0.00  0.00    -0.049 N 
ATOM     81  H40 non d ame     -12.237  12.145  71.773  0.00  0.00     0.075 H 
ATOM     82  H41 non d ame     -13.519  11.607  70.496  0.00  0.00     0.075 H 
ATOM     83  C28 non d ame     -12.863   8.921  71.784  0.00  0.00     0.193 C 
ATOM     84  H42 non d ame     -12.934  10.610  73.129  0.00  0.00     0.280 HD
ATOM     85  H43 non d ame     -14.357  10.443  72.125  0.00  0.00     0.280 HD
ATOM     86  H44 non d ame     -13.548   8.240  71.278  0.00  0.00     0.129 H 
ATOM     87  H37 non d ame     -12.446   8.465  70.103  0.00  0.00     0.046 H 
BRANCH  83  88
ATOM     88  O6  non d ame     -12.369   8.197  72.912  0.00  0.00    -0.369 OA
ATOM     89  H45 non d ame     -11.432   8.025  72.795  0.00  0.00     0.212 HD
ENDBRANCH  83  88
ENDBRANCH  72  75
ENDBRANCH  47  72
ENDBRANCH  45  47
ENDBRANCH   1  43
BRANCH   1  90
ATOM     90  C16 non d ame      -6.470   9.929  67.693  0.00  0.00    -0.035 C 
ATOM     91  H21 non d ame      -6.774  10.976  67.665  0.00  0.00     0.037 H 
ATOM     92  H22 non d ame      -6.087   9.498  68.618  0.00  0.00     0.037 H 
BRANCH  90  93
ATOM     93  C17 non d ame      -5.336   9.771  66.630  0.00  0.00    -0.059 C 
ATOM     94  H23 non d ame      -4.485  10.364  66.964  0.00  0.00     0.038 H 
BRANCH  93  95
ATOM     95  C18 non d ame      -4.861   8.289  66.492  0.00  0.00    -0.073 C 
ATOM     96  H24 non d ame      -3.865   8.267  66.049  0.00  0.00     0.028 H 
ATOM     97  H25 non d ame      -4.830   7.825  67.478  0.00  0.00     0.028 H 
ATOM     98  H26 non d ame      -5.555   7.743  65.854  0.00  0.00     0.028 H 
ENDBRANCH  93  95
BRANCH  93  99
ATOM     99  C19 non d ame      -5.776  10.330  65.274  0.00  0.00    -0.073 C 
ATOM    100  H27 non d ame      -6.421   9.606  64.774  0.00  0.00     0.028 H 
ATOM    101  H28 non d ame      -6.323  11.261  65.426  0.00  0.00     0.028 H 
ATOM    102  H29 non d ame      -4.898  10.521  64.658  0.00  0.00     0.028 H 
ENDBRANCH  93  99
ENDBRANCH  90  93
ENDBRANCH   1  90
TORSDOF 26
ENDMDL
MODEL 2
REMARK VINA RESULT:      -6.8      2.552      6.244
REMARK  26 active torsions:
REMARK  status: ('A' for Active; 'I' for Inactive)
REMARK    1  A    between atoms: C2_2  and  C3_3 
REMARK    2  A    between atoms: C4_6  and  C5_7 
REMARK       I    between atoms: C5_7  and  N2_9 
REMARK    3  A    between atoms: N2_9  and  C6_10 
REMARK    4  A    between atoms: C6_10  and  C7_11 
REMARK    5  A    between atoms: C6_10  and  C8_13 
REMARK       I    between atoms: C7_11  and  N3_14 
REMARK    6  A    between atoms: N3_14  and  C9_15 
REMARK    7  A    between atoms: C9_15  and  C10_16 
REMARK    8  A    between atoms: C9_15  and  C11_18 
REMARK       I    between atoms: C10_16  and  N4_21 
REMARK    9  A    between atoms: C11_18  and  C12_19 
REMARK   10  A    between atoms: C11_18  and  C13_20 
REMARK   11  A    between atoms: N4_21  and  C14_22 
REMARK   12  A    between atoms: C14_22  and  C15_23 
REMARK   13  A    between atoms: C14_22  and  C16_25 
REMARK       I    between atoms: C15_23  and  N6_40 
REMARK   14  A    between atoms: C16_25  and  C17_26 
REMARK   15  A    between atoms: C17_26  and  C18_27 
REMARK   16  A    between atoms: C17_26  and  C19_28 
REMARK   17  A    between atoms: C20_29  and  C21_30 
REMARK   18  A    between atoms: C20_29  and  C24_33 
REMARK   19  A    between atoms: C20_29  and  N6_40 
REMARK   20  A    between atoms: C21_30  and  C22_31 
REMARK   21  A    between atoms: C22_31  and  C23_32 
REMARK   22  A    between atoms: C23_32  and  O8_43 
REMARK   23  A    between atoms: C24_33  and  C25_34 
REMARK   24  A    between atoms: C28_38  and  O6_39 
REMARK   25  A    between atoms: C29_42  and  O8_43 
REMARK   26  A    between atoms: C29_42  and  C35_49 
ROOT
ATOM      1  C14 non d ame     -11.757  10.509  70.356  0.00  0.00     0.089 C 
ATOM      2  H20 non d ame     -10.965  10.167  71.024  0.00  0.00     0.087 H 
ENDROOT
BRANCH   1   3
ATOM      3  N4  non d ame     -11.764  11.964  70.394  0.00  0.00    -0.346 N 
ATOM      4  C10 non d ame     -12.612  12.695  71.405  0.00  0.00     0.241 C 
ATOM      5  O4  non d ame     -13.282  12.091  72.175  0.00  0.00    -0.271 OA
ATOM      6  H19 non d ame     -11.189  12.459  69.728  0.00  0.00     0.163 HD
BRANCH   4   7
ATOM      7  C9  non d ame     -12.603  14.201  71.433  0.00  0.00     0.092 C 
ATOM      8  H11 non d ame     -11.655  14.546  71.848  0.00  0.00     0.088 H 
BRANCH   7   9
ATOM      9  N3  non d ame     -12.690  14.717  70.064  0.00  0.00    -0.346 N 
ATOM     10  C7  non d ame     -11.490  15.089  69.356  0.00  0.00     0.240 C 
ATOM     11  O3  non d ame     -10.446  14.981  69.874  0.00  0.00    -0.271 OA
ATOM     12  H10 non d ame     -13.584  14.817  69.605  0.00  0.00     0.163 HD
BRANCH  10  13
ATOM     13  C6  non d ame     -11.590  15.640  67.900  0.00  0.00     0.086 C 
ATOM     14  H6  non d ame     -12.316  16.447  67.803  0.00  0.00     0.086 H 
BRANCH  13  15
ATOM     15  N2  non d ame     -10.301  16.193  67.515  0.00  0.00    -0.343 N 
ATOM     16  C5  non d ame     -10.119  17.645  67.485  0.00  0.00     0.273 C 
ATOM     17  O2  non d ame     -11.016  18.361  67.768  0.00  0.00    -0.266 OA
ATOM     18  H5  non d ame      -9.541  15.573  67.272  0.00  0.00     0.163 HD
BRANCH  16  19
ATOM     19  C4  non d ame      -8.762  18.243  67.082  0.00  0.00     0.154 A 
ATOM     20  C1  non d ame      -7.549  18.225  67.842  0.00  0.00    -0.017 A 
ATOM     21  C2  non d ame      -6.605  18.899  67.035  0.00  0.00     0.077 A 
ATOM     22  H1  non d ame      -7.381  17.790  68.827  0.00  0.00     0.091 H 
ATOM     23  O1  non d ame      -7.214  19.257  65.943  0.00  0.00    -0.218 OA
ATOM     24  N1  non d ame      -8.474  18.886  65.947  0.00  0.00    -0.123 NA
BRANCH  21  25
ATOM     25  C3  non d ame      -5.145  19.158  67.382  0.00  0.00    -0.029 C 
ATOM     26  H2  non d ame      -4.675  18.226  67.697  0.00  0.00     0.036 H 
ATOM     27  H3  non d ame      -4.627  19.547  66.505  0.00  0.00     0.036 H 
ATOM     28  H4  non d ame      -5.087  19.886  68.191  0.00  0.00     0.036 H 
ENDBRANCH  21  25
ENDBRANCH  16  19
ENDBRANCH  13  15
BRANCH  13  29
ATOM     29  C8  non d ame     -11.974  14.524  66.962  0.00  0.00    -0.049 C 
ATOM     30  H7  non d ame     -11.098  14.207  66.396  0.00  0.00     0.030 H 
ATOM     31  H8  non d ame     -12.358  13.682  67.538  0.00  0.00     0.030 H 
ATOM     32  H9  non d ame     -12.742  14.876  66.274  0.00  0.00     0.030 H 
ENDBRANCH  13  29
ENDBRANCH  10  13
ENDBRANCH   7   9
BRANCH   7  33
ATOM     33  C11 non d ame     -13.822  14.711  72.256  0.00  0.00    -0.033 C 
ATOM     34  H12 non d ame     -14.159  13.890  72.888  0.00  0.00     0.042 H 
BRANCH  33  35
ATOM     35  C12 non d ame     -13.420  15.891  73.195  0.00  0.00    -0.071 C 
ATOM     36  H13 non d ame     -12.339  15.894  73.332  0.00  0.00     0.028 H 
ATOM     37  H14 non d ame     -13.732  16.834  72.746  0.00  0.00     0.028 H 
ATOM     38  H15 non d ame     -13.909  15.769  74.161  0.00  0.00     0.028 H 
ENDBRANCH  33  35
BRANCH  33  39
ATOM     39  C13 non d ame     -15.003  15.113  71.314  0.00  0.00    -0.071 C 
ATOM     40  H16 non d ame     -15.709  14.287  71.245  0.00  0.00     0.028 H 
ATOM     41  H17 non d ame     -15.508  15.990  71.720  0.00  0.00     0.028 H 
ATOM     42  H18 non d ame     -14.614  15.343  70.323  0.00  0.00     0.028 H 
ENDBRANCH  33  39
ENDBRANCH   7  33
ENDBRANCH   4   7
ENDBRANCH   1   3
BRANCH   1  43
ATOM     43  C15 non d ame     -11.525  10.053  68.887  0.00  0.00     0.240 C 
ATOM     44  O5  non d ame     -11.830  10.770  67.990  0.00  0.00    -0.271 OA
ATOM     45  N6  non d ame     -10.912   8.725  68.599  0.00  0.00    -0.355 N 
ATOM     46  H46 non d ame     -10.644   8.109  69.353  0.00  0.00     0.162 HD
BRANCH  45  47
ATOM     47  C20 non d ame     -10.696   8.306  67.197  0.00  0.00     0.013 C 
ATOM     48  H30 non d ame     -11.373   8.883  66.567  0.00  0.00     0.072 H 
BRANCH  47  49
ATOM     49  C21 non d ame     -10.999   6.831  67.064  0.00  0.00    -0.038 C 
ATOM     50  H31 non d ame     -12.028   6.772  66.709  0.00  0.00     0.036 H 
ATOM     51  H32 non d ame     -10.190   6.418  66.461  0.00  0.00     0.036 H 
BRANCH  49  52
ATOM     52  C22 non d ame     -10.960   6.086  68.416  0.00  0.00     0.018 C 
ATOM     53  H33 non d ame     -10.643   6.826  69.152  0.00  0.00     0.048 H 
ATOM     54  H34 non d ame     -11.931   5.601  68.514  0.00  0.00     0.048 H 
BRANCH  52  55
ATOM     55  C23 non d ame      -9.904   4.947  68.473  0.00  0.00     0.259 C 
ATOM     56  O7  non d ame      -9.582   4.475  69.515  0.00  0.00    -0.265 OA
BRANCH  55  57
ATOM     57  O8  non d ame      -9.316   4.481  67.265  0.00  0.00    -0.317 OA
BRANCH  57  58
ATOM     58  C29 non d ame      -7.945   4.856  67.102  0.00  0.00     0.052 C 
ATOM     59  H47 non d ame      -7.819   5.771  67.681  0.00  0.00     0.082 H 
ATOM     60  H48 non d ame      -7.365   3.969  67.352  0.00  0.00     0.082 H 
BRANCH  58  61
ATOM     61  C35 non d ame      -7.715   5.187  65.603  0.00  0.00    -0.034 A 
ATOM     62  C30 non d ame      -8.746   5.017  64.685  0.00  0.00    -0.075 A 
ATOM     63  C31 non d ame      -8.539   5.315  63.339  0.00  0.00    -0.082 A 
ATOM     64  H49 non d ame      -9.717   4.652  65.020  0.00  0.00     0.084 H 
ATOM     65  C32 non d ame      -7.293   5.781  62.911  0.00  0.00    -0.083 A 
ATOM     66  H50 non d ame      -9.350   5.183  62.623  0.00  0.00     0.083 H 
ATOM     67  C33 non d ame      -6.265   5.946  63.831  0.00  0.00    -0.082 A 
ATOM     68  H51 non d ame      -7.122   6.017  61.861  0.00  0.00     0.083 H 
ATOM     69  C34 non d ame      -6.469   5.652  65.177  0.00  0.00    -0.075 A 
ATOM     70  H52 non d ame      -5.294   6.308  63.493  0.00  0.00     0.083 H 
ATOM     71  H53 non d ame      -5.657   5.785  65.893  0.00  0.00     0.084 H 
ENDBRANCH  58  61
ENDBRANCH  57  58
ENDBRANCH  55  57
ENDBRANCH  52  55
ENDBRANCH  49  52
ENDBRANCH  47  49
BRANCH  47  72
ATOM     72  C24 non d ame      -9.246   8.567  66.798  0.00  0.00    -0.039 C 
ATOM     73  H35 non d ame      -8.774   8.997  67.682  0.00  0.00     0.036 H 
ATOM     74  H36 non d ame      -8.882   7.623  66.392  0.00  0.00     0.036 H 
BRANCH  72  75
ATOM     75  C25 non d ame      -9.140   9.657  65.628  0.00  0.00    -0.001 C 
ATOM     76  C26 non d ame      -8.510   8.967  64.275  0.00  0.00    -0.035 C 
ATOM     77  C27 non d ame      -7.476   9.725  63.839  0.00  0.00     0.085 C 
ATOM     78  H38 non d ame      -8.041   8.015  64.524  0.00  0.00     0.036 H 
ATOM     79  H39 non d ame      -9.229   9.022  63.457  0.00  0.00     0.036 H 
ATOM     80  N5  non d ame      -7.134  10.687  64.951  0.00  0.00    -0.049 N 
ATOM     81  H40 non d ame      -6.645   9.033  63.701  0.00  0.00     0.075 H 
ATOM     82  H41 non d ame      -7.864  10.287  62.991  0.00  0.00     0.075 H 
ATOM     83  C28 non d ame      -8.382  10.643  65.975  0.00  0.00     0.193 C 
ATOM     84  H42 non d ame      -6.322  10.309  65.418  0.00  0.00     0.280 HD
ATOM     85  H43 non d ame      -7.094  11.606  64.533  0.00  0.00     0.280 HD
ATOM     86  H44 non d ame      -9.110  11.454  65.996  0.00  0.00     0.129 H 
ATOM     87  H37 non d ame     -10.061  10.227  65.511  0.00  0.00     0.046 H 
BRANCH  83  88
ATOM     88  O6  non d ame      -7.913  10.516  67.318  0.00  0.00    -0.369 OA
ATOM     89  H45 non d ame      -6.957  10.599  67.333  0.00  0.00     0.212 HD
ENDBRANCH  83  88
ENDBRANCH  72  75
ENDBRANCH  47  72
ENDBRANCH  45  47
ENDBRANCH   1  43
BRANCH   1  90
ATOM     90  C16 non d ame     -13.101   9.993  70.845  0.00  0.00    -0.035 C 
ATOM     91  H21 non d ame     -13.572  10.841  71.344  0.00  0.00     0.037 H 
ATOM     92  H22 non d ame     -13.574   9.545  69.971  0.00  0.00     0.037 H 
BRANCH  90  93
ATOM     93  C17 non d ame     -12.986   8.860  71.914  0.00  0.00    -0.059 C 
ATOM     94  H23 non d ame     -13.365   9.256  72.857  0.00  0.00     0.038 H 
BRANCH  93  95
ATOM     95  C18 non d ame     -13.846   7.610  71.542  0.00  0.00    -0.073 C 
ATOM     96  H24 non d ame     -14.869   7.758  71.885  0.00  0.00     0.028 H 
ATOM     97  H25 non d ame     -13.840   7.474  70.460  0.00  0.00     0.028 H 
ATOM     98  H26 non d ame     -13.426   6.725  72.021  0.00  0.00     0.028 H 
ENDBRANCH  93  95
BRANCH  93  99
ATOM     99  C19 non d ame     -11.524   8.469  72.141  0.00  0.00    -0.073 C 
ATOM    100  H27 non d ame     -11.405   7.397  71.976  0.00  0.00     0.028 H 
ATOM    101  H28 non d ame     -10.889   9.016  71.444  0.00  0.00     0.028 H 
ATOM    102  H29 non d ame     -11.236   8.714  73.163  0.00  0.00     0.028 H 
ENDBRANCH  93  99
ENDBRANCH  90  93
ENDBRANCH   1  90
TORSDOF 26
ENDMDL
MODEL 3
REMARK VINA RESULT:      -6.7      2.916      9.928
REMARK  26 active torsions:
REMARK  status: ('A' for Active; 'I' for Inactive)
REMARK    1  A    between atoms: C2_2  and  C3_3 
REMARK    2  A    between atoms: C4_6  and  C5_7 
REMARK       I    between atoms: C5_7  and  N2_9 
REMARK    3  A    between atoms: N2_9  and  C6_10 
REMARK    4  A    between atoms: C6_10  and  C7_11 
REMARK    5  A    between atoms: C6_10  and  C8_13 
REMARK       I    between atoms: C7_11  and  N3_14 
REMARK    6  A    between atoms: N3_14  and  C9_15 
REMARK    7  A    between atoms: C9_15  and  C10_16 
REMARK    8  A    between atoms: C9_15  and  C11_18 
REMARK       I    between atoms: C10_16  and  N4_21 
REMARK    9  A    between atoms: C11_18  and  C12_19 
REMARK   10  A    between atoms: C11_18  and  C13_20 
REMARK   11  A    between atoms: N4_21  and  C14_22 
REMARK   12  A    between atoms: C14_22  and  C15_23 
REMARK   13  A    between atoms: C14_22  and  C16_25 
REMARK       I    between atoms: C15_23  and  N6_40 
REMARK   14  A    between atoms: C16_25  and  C17_26 
REMARK   15  A    between atoms: C17_26  and  C18_27 
REMARK   16  A    between atoms: C17_26  and  C19_28 
REMARK   17  A    between atoms: C20_29  and  C21_30 
REMARK   18  A    between atoms: C20_29  and  C24_33 
REMARK   19  A    between atoms: C20_29  and  N6_40 
REMARK   20  A    between atoms: C21_30  and  C22_31 
REMARK   21  A    between atoms: C22_31  and  C23_32 
REMARK   22  A    between atoms: C23_32  and  O8_43 
REMARK   23  A    between atoms: C24_33  and  C25_34 
REMARK   24  A    between atoms: C28_38  and  O6_39 
REMARK   25  A    between atoms: C29_42  and  O8_43 
REMARK   26  A    between atoms: C29_42  and  C35_49 
ROOT
ATOM      1  C14 non d ame     -10.237  10.231  68.854  0.00  0.00     0.089 C 
ATOM      2  H20 non d ame      -9.592  10.224  69.732  0.00  0.00     0.087 H 
ENDROOT
BRANCH   1   3
ATOM      3  N4  non d ame     -10.892   8.933  68.780  0.00  0.00    -0.346 N 
ATOM      4  C10 non d ame     -10.223   7.709  69.350  0.00  0.00     0.241 C 
ATOM      5  O4  non d ame      -9.155   7.792  69.862  0.00  0.00    -0.271 OA
ATOM      6  H19 non d ame     -11.800   8.883  68.339  0.00  0.00     0.163 HD
BRANCH   4   7
ATOM      7  C9  non d ame     -10.917   6.375  69.270  0.00  0.00     0.092 C 
ATOM      8  H11 non d ame     -11.920   6.516  68.866  0.00  0.00     0.088 H 
BRANCH   7   9
ATOM      9  N3  non d ame     -10.194   5.502  68.341  0.00  0.00    -0.346 N 
ATOM     10  C7  non d ame     -10.394   5.640  66.919  0.00  0.00     0.240 C 
ATOM     11  O3  non d ame     -11.134   6.447  66.506  0.00  0.00    -0.271 OA
ATOM     12  H10 non d ame      -9.554   4.799  68.682  0.00  0.00     0.163 HD
BRANCH  10  13
ATOM     13  C6  non d ame      -9.624   4.706  65.935  0.00  0.00     0.086 C 
ATOM     14  H6  non d ame     -10.199   4.472  65.039  0.00  0.00     0.086 H 
BRANCH  13  15
ATOM     15  N2  non d ame      -8.417   5.382  65.491  0.00  0.00    -0.343 N 
ATOM     16  C5  non d ame      -8.110   5.444  64.060  0.00  0.00     0.273 C 
ATOM     17  O2  non d ame      -8.839   4.944  63.275  0.00  0.00    -0.266 OA
ATOM     18  H5  non d ame      -7.798   5.804  66.168  0.00  0.00     0.163 HD
BRANCH  16  19
ATOM     19  C4  non d ame      -6.837   6.157  63.576  0.00  0.00     0.154 A 
ATOM     20  C1  non d ame      -6.592   7.567  63.552  0.00  0.00    -0.017 A 
ATOM     21  C2  non d ame      -5.288   7.700  63.024  0.00  0.00     0.077 A 
ATOM     22  H1  non d ame      -7.258   8.370  63.869  0.00  0.00     0.091 H 
ATOM     23  O1  non d ame      -4.846   6.501  62.778  0.00  0.00    -0.218 OA
ATOM     24  N1  non d ame      -5.732   5.584  63.092  0.00  0.00    -0.123 NA
BRANCH  21  25
ATOM     25  C3  non d ame      -4.541   9.005  62.787  0.00  0.00    -0.029 C 
ATOM     26  H2  non d ame      -5.200   9.846  63.001  0.00  0.00     0.036 H 
ATOM     27  H3  non d ame      -3.671   9.049  63.443  0.00  0.00     0.036 H 
ATOM     28  H4  non d ame      -4.214   9.054  61.748  0.00  0.00     0.036 H 
ENDBRANCH  21  25
ENDBRANCH  16  19
ENDBRANCH  13  15
BRANCH  13  29
ATOM     29  C8  non d ame      -9.268   3.419  66.634  0.00  0.00    -0.049 C 
ATOM     30  H7  non d ame      -9.352   3.556  67.713  0.00  0.00     0.030 H 
ATOM     31  H8  non d ame      -9.949   2.630  66.314  0.00  0.00     0.030 H 
ATOM     32  H9  non d ame      -8.245   3.140  66.383  0.00  0.00     0.030 H 
ENDBRANCH  13  29
ENDBRANCH  10  13
ENDBRANCH   7   9
BRANCH   7  33
ATOM     33  C11 non d ame     -10.943   5.718  70.682  0.00  0.00    -0.033 C 
ATOM     34  H12 non d ame     -11.733   4.967  70.681  0.00  0.00     0.042 H 
BRANCH  33  35
ATOM     35  C12 non d ame      -9.600   4.984  70.991  0.00  0.00    -0.071 C 
ATOM     36  H13 non d ame      -9.538   4.074  70.395  0.00  0.00     0.028 H 
ATOM     37  H14 non d ame      -8.764   5.638  70.744  0.00  0.00     0.028 H 
ATOM     38  H15 non d ame      -9.562   4.729  72.050  0.00  0.00     0.028 H 
ENDBRANCH  33  35
BRANCH  33  39
ATOM     39  C13 non d ame     -11.279   6.773  71.784  0.00  0.00    -0.071 C 
ATOM     40  H16 non d ame     -12.251   6.546  72.219  0.00  0.00     0.028 H 
ATOM     41  H17 non d ame     -10.516   6.741  72.562  0.00  0.00     0.028 H 
ATOM     42  H18 non d ame     -11.302   7.767  71.339  0.00  0.00     0.028 H 
ENDBRANCH  33  39
ENDBRANCH   7  33
ENDBRANCH   4   7
ENDBRANCH   1   3
BRANCH   1  43
ATOM     43  C15 non d ame     -11.331  11.334  68.937  0.00  0.00     0.240 C 
ATOM     44  O5  non d ame     -12.429  11.109  68.540  0.00  0.00    -0.271 OA
ATOM     45  N6  non d ame     -11.013  12.668  69.521  0.00  0.00    -0.355 N 
ATOM     46  H46 non d ame     -10.085  12.869  69.866  0.00  0.00     0.162 HD
BRANCH  45  47
ATOM     47  C20 non d ame     -12.064  13.705  69.595  0.00  0.00     0.013 C 
ATOM     48  H30 non d ame     -12.869  13.416  68.919  0.00  0.00     0.072 H 
BRANCH  47  49
ATOM     49  C21 non d ame     -11.485  15.035  69.169  0.00  0.00    -0.038 C 
ATOM     50  H31 non d ame     -12.260  15.518  68.574  0.00  0.00     0.036 H 
ATOM     51  H32 non d ame     -11.127  15.507  70.085  0.00  0.00     0.036 H 
BRANCH  49  52
ATOM     52  C22 non d ame     -10.256  14.886  68.246  0.00  0.00     0.018 C 
ATOM     53  H33 non d ame      -9.491  15.541  68.664  0.00  0.00     0.048 H 
ATOM     54  H34 non d ame     -10.072  13.814  68.171  0.00  0.00     0.048 H 
BRANCH  52  55
ATOM     55  C23 non d ame     -10.499  15.382  66.794  0.00  0.00     0.259 C 
ATOM     56  O7  non d ame     -11.318  14.862  66.108  0.00  0.00    -0.265 OA
BRANCH  55  57
ATOM     57  O8  non d ame      -9.722  16.460  66.287  0.00  0.00    -0.317 OA
BRANCH  57  58
ATOM     58  C29 non d ame     -10.192  17.753  66.681  0.00  0.00     0.052 C 
ATOM     59  H47 non d ame     -10.517  18.241  65.762  0.00  0.00     0.082 H 
ATOM     60  H48 non d ame     -10.904  17.575  67.486  0.00  0.00     0.082 H 
BRANCH  58  61
ATOM     61  C35 non d ame      -8.988  18.544  67.258  0.00  0.00    -0.034 A 
ATOM     62  C30 non d ame      -8.244  18.014  68.307  0.00  0.00    -0.075 A 
ATOM     63  C31 non d ame      -7.163  18.726  68.826  0.00  0.00    -0.082 A 
ATOM     64  H49 non d ame      -8.507  17.042  68.723  0.00  0.00     0.084 H 
ATOM     65  C32 non d ame      -6.828  19.973  68.292  0.00  0.00    -0.083 A 
ATOM     66  H50 non d ame      -6.580  18.307  69.646  0.00  0.00     0.083 H 
ATOM     67  C33 non d ame      -7.575  20.500  67.248  0.00  0.00    -0.082 A 
ATOM     68  H51 non d ame      -5.984  20.536  68.691  0.00  0.00     0.083 H 
ATOM     69  C34 non d ame      -8.655  19.791  66.725  0.00  0.00    -0.075 A 
ATOM     70  H52 non d ame      -7.313  21.474  66.835  0.00  0.00     0.083 H 
ATOM     71  H53 non d ame      -9.237  20.211  65.903  0.00  0.00     0.084 H 
ENDBRANCH  58  61
ENDBRANCH  57  58
ENDBRANCH  55  57
ENDBRANCH  52  55
ENDBRANCH  49  52
ENDBRANCH  47  49
BRANCH  47  72
ATOM     72  C24 non d ame     -12.586  13.811  71.026  0.00  0.00    -0.039 C 
ATOM     73  H35 non d ame     -13.561  13.323  71.017  0.00  0.00     0.036 H 
ATOM     74  H36 non d ame     -11.787  13.420  71.656  0.00  0.00     0.036 H 
BRANCH  72  75
ATOM     75  C25 non d ame     -12.825  15.335  71.459  0.00  0.00    -0.001 C 
ATOM     76  C26 non d ame     -11.772  15.750  72.652  0.00  0.00    -0.035 C 
ATOM     77  C27 non d ame     -12.468  16.299  73.677  0.00  0.00     0.085 C 
ATOM     78  H38 non d ame     -11.334  14.855  73.092  0.00  0.00     0.036 H 
ATOM     79  H39 non d ame     -11.129  16.564  72.316  0.00  0.00     0.036 H 
ATOM     80  N5  non d ame     -13.927  15.997  73.431  0.00  0.00    -0.049 N 
ATOM     81  H40 non d ame     -12.141  15.765  74.570  0.00  0.00     0.075 H 
ATOM     82  H41 non d ame     -12.309  17.373  73.594  0.00  0.00     0.075 H 
ATOM     83  C28 non d ame     -14.028  15.514  71.894  0.00  0.00     0.193 C 
ATOM     84  H42 non d ame     -14.163  15.218  74.029  0.00  0.00     0.280 HD
ATOM     85  H43 non d ame     -14.420  16.874  73.525  0.00  0.00     0.280 HD
ATOM     86  H44 non d ame     -14.418  16.184  71.127  0.00  0.00     0.129 H 
ATOM     87  H37 non d ame     -12.890  16.003  70.600  0.00  0.00     0.046 H 
BRANCH  83  88
ATOM     88  O6  non d ame     -14.817  14.327  71.801  0.00  0.00    -0.369 OA
ATOM     89  H45 non d ame     -14.834  13.887  72.654  0.00  0.00     0.212 HD
ENDBRANCH  83  88
ENDBRANCH  72  75
ENDBRANCH  47  72
ENDBRANCH  45  47
ENDBRANCH   1  43
BRANCH   1  90
ATOM     90  C16 non d ame      -9.400  10.436  67.602  0.00  0.00    -0.035 C 
ATOM     91  H21 non d ame      -9.248  11.513  67.528  0.00  0.00     0.037 H 
ATOM     92  H22 non d ame      -8.543   9.772  67.716  0.00  0.00     0.037 H 
BRANCH  90  93
ATOM     93  C17 non d ame     -10.122  10.001  66.286  0.00  0.00    -0.059 C 
ATOM     94  H23 non d ame     -11.016   9.446  66.568  0.00  0.00     0.038 H 
BRANCH  93  95
ATOM     95  C18 non d ame     -10.573  11.227  65.429  0.00  0.00    -0.073 C 
ATOM     96  H24 non d ame     -10.618  12.115  66.060  0.00  0.00     0.028 H 
ATOM     97  H25 non d ame      -9.856  11.390  64.624  0.00  0.00     0.028 H 
ATOM     98  H26 non d ame     -11.558  11.032  65.005  0.00  0.00     0.028 H 
ENDBRANCH  93  95
BRANCH  93  99
ATOM     99  C19 non d ame      -9.240   9.057  65.465  0.00  0.00    -0.073 C 
ATOM    100  H27 non d ame      -9.694   8.895  64.487  0.00  0.00     0.028 H 
ATOM    101  H28 non d ame      -8.252   9.501  65.339  0.00  0.00     0.028 H 
ATOM    102  H29 non d ame      -9.146   8.104  65.985  0.00  0.00     0.028 H 
ENDBRANCH  93  99
ENDBRANCH  90  93
ENDBRANCH   1  90
TORSDOF 26
ENDMDL
MODEL 4
REMARK VINA RESULT:      -6.7      2.576      7.233
REMARK  26 active torsions:
REMARK  status: ('A' for Active; 'I' for Inactive)
REMARK    1  A    between atoms: C2_2  and  C3_3 
REMARK    2  A    between atoms: C4_6  and  C5_7 
REMARK       I    between atoms: C5_7  and  N2_9 
REMARK    3  A    between atoms: N2_9  and  C6_10 
REMARK    4  A    between atoms: C6_10  and  C7_11 
REMARK    5  A    between atoms: C6_10  and  C8_13 
REMARK       I    between atoms: C7_11  and  N3_14 
REMARK    6  A    between atoms: N3_14  and  C9_15 
REMARK    7  A    between atoms: C9_15  and  C10_16 
REMARK    8  A    between atoms: C9_15  and  C11_18 
REMARK       I    between atoms: C10_16  and  N4_21 
REMARK    9  A    between atoms: C11_18  and  C12_19 
REMARK   10  A    between atoms: C11_18  and  C13_20 
REMARK   11  A    between atoms: N4_21  and  C14_22 
REMARK   12  A    between atoms: C14_22  and  C15_23 
REMARK   13  A    between atoms: C14_22  and  C16_25 
REMARK       I    between atoms: C15_23  and  N6_40 
REMARK   14  A    between atoms: C16_25  and  C17_26 
REMARK   15  A    between atoms: C17_26  and  C18_27 
REMARK   16  A    between atoms: C17_26  and  C19_28 
REMARK   17  A    between atoms: C20_29  and  C21_30 
REMARK   18  A    between atoms: C20_29  and  C24_33 
REMARK   19  A    between atoms: C20_29  and  N6_40 
REMARK   20  A    between atoms: C21_30  and  C22_31 
REMARK   21  A    between atoms: C22_31  and  C23_32 
REMARK   22  A    between atoms: C23_32  and  O8_43 
REMARK   23  A    between atoms: C24_33  and  C25_34 
REMARK   24  A    between atoms: C28_38  and  O6_39 
REMARK   25  A    between atoms: C29_42  and  O8_43 
REMARK   26  A    between atoms: C29_42  and  C35_49 
ROOT
ATOM      1  C14 non d ame     -10.734   9.607  68.831  0.00  0.00     0.089 C 
ATOM      2  H20 non d ame     -11.411   8.772  68.650  0.00  0.00     0.087 H 
ENDROOT
BRANCH   1   3
ATOM      3  N4  non d ame      -9.713   9.576  67.795  0.00  0.00    -0.346 N 
ATOM      4  C10 non d ame      -9.712   8.481  66.758  0.00  0.00     0.241 C 
ATOM      5  O4  non d ame     -10.542   7.633  66.781  0.00  0.00    -0.271 OA
ATOM      6  H19 non d ame      -9.014  10.306  67.795  0.00  0.00     0.163 HD
BRANCH   4   7
ATOM      7  C9  non d ame      -8.651   8.468  65.690  0.00  0.00     0.092 C 
ATOM      8  H11 non d ame      -9.030   8.975  64.802  0.00  0.00     0.088 H 
BRANCH   7   9
ATOM      9  N3  non d ame      -7.481   9.222  66.152  0.00  0.00    -0.346 N 
ATOM     10  C7  non d ame      -6.756  10.063  65.232  0.00  0.00     0.240 C 
ATOM     11  O3  non d ame      -7.099  10.145  64.116  0.00  0.00    -0.271 OA
ATOM     12  H10 non d ame      -7.172   9.160  67.112  0.00  0.00     0.163 HD
BRANCH  10  13
ATOM     13  C6  non d ame      -5.510  10.860  65.730  0.00  0.00     0.086 C 
ATOM     14  H6  non d ame      -5.468  11.872  65.327  0.00  0.00     0.086 H 
BRANCH  13  15
ATOM     15  N2  non d ame      -5.581  10.991  67.176  0.00  0.00    -0.343 N 
ATOM     16  C5  non d ame      -5.354  12.299  67.794  0.00  0.00     0.273 C 
ATOM     17  O2  non d ame      -5.111  13.239  67.119  0.00  0.00    -0.266 OA
ATOM     18  H5  non d ame      -5.786  10.182  67.745  0.00  0.00     0.163 HD
BRANCH  16  19
ATOM     19  C4  non d ame      -5.427  12.453  69.321  0.00  0.00     0.154 A 
ATOM     20  C1  non d ame      -5.215  13.646  70.081  0.00  0.00    -0.017 A 
ATOM     21  C2  non d ame      -5.397  13.257  71.427  0.00  0.00     0.077 A 
ATOM     22  H1  non d ame      -4.967  14.642  69.713  0.00  0.00     0.091 H 
ATOM     23  O1  non d ame      -5.681  11.988  71.428  0.00  0.00    -0.218 OA
ATOM     24  N1  non d ame      -5.704  11.496  70.211  0.00  0.00    -0.123 NA
BRANCH  21  25
ATOM     25  C3  non d ame      -5.282  14.158  72.649  0.00  0.00    -0.029 C 
ATOM     26  H2  non d ame      -6.029  14.951  72.589  0.00  0.00     0.036 H 
ATOM     27  H3  non d ame      -5.450  13.569  73.551  0.00  0.00     0.036 H 
ATOM     28  H4  non d ame      -4.286  14.599  72.684  0.00  0.00     0.036 H 
ENDBRANCH  21  25
ENDBRANCH  16  19
ENDBRANCH  13  15
BRANCH  13  29
ATOM     29  C8  non d ame      -4.252  10.127  65.339  0.00  0.00    -0.049 C 
ATOM     30  H7  non d ame      -3.658  10.754  64.674  0.00  0.00     0.030 H 
ATOM     31  H8  non d ame      -3.674   9.895  66.233  0.00  0.00     0.030 H 
ATOM     32  H9  non d ame      -4.516   9.203  64.825  0.00  0.00     0.030 H 
ENDBRANCH  13  29
ENDBRANCH  10  13
ENDBRANCH   7   9
BRANCH   7  33
ATOM     33  C11 non d ame      -8.233   6.999  65.391  0.00  0.00    -0.033 C 
ATOM     34  H12 non d ame      -9.072   6.357  65.659  0.00  0.00     0.042 H 
BRANCH  33  35
ATOM     35  C12 non d ame      -7.946   6.786  63.872  0.00  0.00    -0.071 C 
ATOM     36  H13 non d ame      -6.935   7.124  63.643  0.00  0.00     0.028 H 
ATOM     37  H14 non d ame      -8.038   5.728  63.630  0.00  0.00     0.028 H 
ATOM     38  H15 non d ame      -8.663   7.358  63.284  0.00  0.00     0.028 H 
ENDBRANCH  33  35
BRANCH  33  39
ATOM     39  C13 non d ame      -7.006   6.578  66.263  0.00  0.00    -0.071 C 
ATOM     40  H16 non d ame      -7.148   6.931  67.284  0.00  0.00     0.028 H 
ATOM     41  H17 non d ame      -6.917   5.491  66.264  0.00  0.00     0.028 H 
ATOM     42  H18 non d ame      -6.099   7.017  65.849  0.00  0.00     0.028 H 
ENDBRANCH  33  39
ENDBRANCH   7  33
ENDBRANCH   4   7
ENDBRANCH   1   3
BRANCH   1  43
ATOM     43  C15 non d ame     -11.464  10.979  68.767  0.00  0.00     0.240 C 
ATOM     44  O5  non d ame     -12.057  11.288  67.785  0.00  0.00    -0.271 OA
ATOM     45  N6  non d ame     -11.430  11.905  69.935  0.00  0.00    -0.355 N 
ATOM     46  H46 non d ame     -10.933  11.652  70.777  0.00  0.00     0.162 HD
BRANCH  45  47
ATOM     47  C20 non d ame     -12.130  13.206  69.859  0.00  0.00     0.013 C 
ATOM     48  H30 non d ame     -12.899  13.129  69.090  0.00  0.00     0.072 H 
BRANCH  47  49
ATOM     49  C21 non d ame     -11.138  14.286  69.492  0.00  0.00    -0.038 C 
ATOM     50  H31 non d ame     -11.234  15.049  70.265  0.00  0.00     0.036 H 
ATOM     51  H32 non d ame     -10.187  13.775  69.345  0.00  0.00     0.036 H 
BRANCH  49  52
ATOM     52  C22 non d ame     -11.474  14.978  68.153  0.00  0.00     0.018 C 
ATOM     53  H33 non d ame     -11.751  14.176  67.468  0.00  0.00     0.048 H 
ATOM     54  H34 non d ame     -12.194  15.760  68.397  0.00  0.00     0.048 H 
BRANCH  52  55
ATOM     55  C23 non d ame     -10.263  15.700  67.500  0.00  0.00     0.259 C 
ATOM     56  O7  non d ame      -9.574  16.424  68.143  0.00  0.00    -0.265 OA
BRANCH  55  57
ATOM     57  O8  non d ame      -9.992  15.496  66.118  0.00  0.00    -0.317 OA
BRANCH  57  58
ATOM     58  C29 non d ame     -11.161  15.288  65.321  0.00  0.00     0.052 C 
ATOM     59  H47 non d ame     -12.005  15.387  66.003  0.00  0.00     0.082 H 
ATOM     60  H48 non d ame     -11.063  15.966  64.473  0.00  0.00     0.082 H 
BRANCH  58  61
ATOM     61  C35 non d ame     -11.126  13.830  64.790  0.00  0.00    -0.034 A 
ATOM     62  C30 non d ame     -10.155  12.946  65.247  0.00  0.00    -0.075 A 
ATOM     63  C31 non d ame     -10.123  11.636  64.771  0.00  0.00    -0.082 A 
ATOM     64  H49 non d ame      -9.418  13.278  65.979  0.00  0.00     0.084 H 
ATOM     65  C32 non d ame     -11.067  11.212  63.831  0.00  0.00    -0.083 A 
ATOM     66  H50 non d ame      -9.362  10.944  65.133  0.00  0.00     0.083 H 
ATOM     67  C33 non d ame     -12.033  12.100  63.376  0.00  0.00    -0.082 A 
ATOM     68  H51 non d ame     -11.050  10.190  63.454  0.00  0.00     0.083 H 
ATOM     69  C34 non d ame     -12.069  13.409  63.851  0.00  0.00    -0.075 A 
ATOM     70  H52 non d ame     -12.766  11.767  62.641  0.00  0.00     0.083 H 
ATOM     71  H53 non d ame     -12.831  14.099  63.489  0.00  0.00     0.084 H 
ENDBRANCH  58  61
ENDBRANCH  57  58
ENDBRANCH  55  57
ENDBRANCH  52  55
ENDBRANCH  49  52
ENDBRANCH  47  49
BRANCH  47  72
ATOM     72  C24 non d ame     -12.763  13.532  71.211  0.00  0.00    -0.039 C 
ATOM     73  H35 non d ame     -13.800  13.204  71.132  0.00  0.00     0.036 H 
ATOM     74  H36 non d ame     -12.105  13.083  71.955  0.00  0.00     0.036 H 
BRANCH  72  75
ATOM     75  C25 non d ame     -12.786  15.109  71.489  0.00  0.00    -0.001 C 
ATOM     76  C26 non d ame     -11.830  15.463  72.780  0.00  0.00    -0.035 C 
ATOM     77  C27 non d ame     -12.540  16.215  73.655  0.00  0.00     0.085 C 
ATOM     78  H38 non d ame     -11.610  14.556  73.342  0.00  0.00     0.036 H 
ATOM     79  H39 non d ame     -11.019  16.126  72.474  0.00  0.00     0.036 H 
ATOM     80  N5  non d ame     -13.988  16.130  73.237  0.00  0.00    -0.049 N 
ATOM     81  H40 non d ame     -12.420  15.726  74.623  0.00  0.00     0.075 H 
ATOM     82  H41 non d ame     -12.188  17.236  73.514  0.00  0.00     0.075 H 
ATOM     83  C28 non d ame     -13.983  15.522  71.741  0.00  0.00     0.193 C 
ATOM     84  H42 non d ame     -14.426  15.462  73.854  0.00  0.00     0.280 HD
ATOM     85  H43 non d ame     -14.329  17.080  73.196  0.00  0.00     0.280 HD
ATOM     86  H44 non d ame     -14.155  16.168  70.880  0.00  0.00     0.129 H 
ATOM     87  H37 non d ame     -12.629  15.691  70.581  0.00  0.00     0.046 H 
BRANCH  83  88
ATOM     88  O6  non d ame     -14.948  14.474  71.632  0.00  0.00    -0.369 OA
ATOM     89  H45 non d ame     -15.616  14.583  72.313  0.00  0.00     0.212 HD
ENDBRANCH  83  88
ENDBRANCH  72  75
ENDBRANCH  47  72
ENDBRANCH  45  47
ENDBRANCH   1  43
BRANCH   1  90
ATOM     90  C16 non d ame     -10.068   9.445  70.188  0.00  0.00    -0.035 C 
ATOM     91  H21 non d ame      -9.055   9.103  69.974  0.00  0.00     0.037 H 
ATOM     92  H22 non d ame     -10.226  10.393  70.703  0.00  0.00     0.037 H 
BRANCH  90  93
ATOM     93  C17 non d ame     -10.725   8.344  71.081  0.00  0.00    -0.059 C 
ATOM     94  H23 non d ame      -9.982   8.024  71.812  0.00  0.00     0.038 H 
BRANCH  93  95
ATOM     95  C18 non d ame     -11.964   8.883  71.865  0.00  0.00    -0.073 C 
ATOM     96  H24 non d ame     -11.627   9.406  72.760  0.00  0.00     0.028 H 
ATOM     97  H25 non d ame     -12.524   9.571  71.231  0.00  0.00     0.028 H 
ATOM     98  H26 non d ame     -12.605   8.048  72.150  0.00  0.00     0.028 H 
ENDBRANCH  93  95
BRANCH  93  99
ATOM     99  C19 non d ame     -11.101   7.116  70.247  0.00  0.00    -0.073 C 
ATOM    100  H27 non d ame     -11.229   7.410  69.205  0.00  0.00     0.028 H 
ATOM    101  H28 non d ame     -10.308   6.371  70.320  0.00  0.00     0.028 H 
ATOM    102  H29 non d ame     -12.032   6.693  70.623  0.00  0.00     0.028 H 
ENDBRANCH  93  99
ENDBRANCH  90  93
ENDBRANCH   1  90
TORSDOF 26
ENDMDL
MODEL 5
REMARK VINA RESULT:      -6.7      2.376      7.101
REMARK  26 active torsions:
REMARK  status: ('A' for Active; 'I' for Inactive)
REMARK    1  A    between atoms: C2_2  and  C3_3 
REMARK    2  A    between atoms: C4_6  and  C5_7 
REMARK       I    between atoms: C5_7  and  N2_9 
REMARK    3  A    between atoms: N2_9  and  C6_10 
REMARK    4  A    between atoms: C6_10  and  C7_11 
REMARK    5  A    between atoms: C6_10  and  C8_13 
REMARK       I    between atoms: C7_11  and  N3_14 
REMARK    6  A    between atoms: N3_14  and  C9_15 
REMARK    7  A    between atoms: C9_15  and  C10_16 
REMARK    8  A    between atoms: C9_15  and  C11_18 
REMARK       I    between atoms: C10_16  and  N4_21 
REMARK    9  A    between atoms: C11_18  and  C12_19 
REMARK   10  A    between atoms: C11_18  and  C13_20 
REMARK   11  A    between atoms: N4_21  and  C14_22 
REMARK   12  A    between atoms: C14_22  and  C15_23 
REMARK   13  A    between atoms: C14_22  and  C16_25 
REMARK       I    between atoms: C15_23  and  N6_40 
REMARK   14  A    between atoms: C16_25  and  C17_26 
REMARK   15  A    between atoms: C17_26  and  C18_27 
REMARK   16  A    between atoms: C17_26  and  C19_28 
REMARK   17  A    between atoms: C20_29  and  C21_30 
REMARK   18  A    between atoms: C20_29  and  C24_33 
REMARK   19  A    between atoms: C20_29  and  N6_40 
REMARK   20  A    between atoms: C21_30  and  C22_31 
REMARK   21  A    between atoms: C22_31  and  C23_32 
REMARK   22  A    between atoms: C23_32  and  O8_43 
REMARK   23  A    between atoms: C24_33  and  C25_34 
REMARK   24  A    between atoms: C28_38  and  O6_39 
REMARK   25  A    between atoms: C29_42  and  O8_43 
REMARK   26  A    between atoms: C29_42  and  C35_49 
ROOT
ATOM      1  C14 non d ame     -10.886   9.247  69.438  0.00  0.00     0.089 C 
ATOM      2  H20 non d ame     -11.501   8.399  69.133  0.00  0.00     0.087 H 
ENDROOT
BRANCH   1   3
ATOM      3  N4  non d ame      -9.703   9.257  68.591  0.00  0.00    -0.346 N 
ATOM      4  C10 non d ame      -9.689   8.491  67.292  0.00  0.00     0.241 C 
ATOM      5  O4  non d ame     -10.641   7.870  66.951  0.00  0.00    -0.271 OA
ATOM      6  H19 non d ame      -8.902   9.790  68.900  0.00  0.00     0.163 HD
BRANCH   4   7
ATOM      7  C9  non d ame      -8.458   8.517  66.425  0.00  0.00     0.092 C 
ATOM      8  H11 non d ame      -8.736   8.824  65.417  0.00  0.00     0.088 H 
BRANCH   7   9
ATOM      9  N3  non d ame      -7.519   9.520  66.939  0.00  0.00    -0.346 N 
ATOM     10  C7  non d ame      -6.842  10.407  66.026  0.00  0.00     0.240 C 
ATOM     11  O3  non d ame      -7.040  10.328  64.875  0.00  0.00    -0.271 OA
ATOM     12  H10 non d ame      -7.338   9.599  67.929  0.00  0.00     0.163 HD
BRANCH  10  13
ATOM     13  C6  non d ame      -5.842  11.470  66.578  0.00  0.00     0.086 C 
ATOM     14  H6  non d ame      -5.196  11.883  65.804  0.00  0.00     0.086 H 
BRANCH  13  15
ATOM     15  N2  non d ame      -6.595  12.584  67.130  0.00  0.00    -0.343 N 
ATOM     16  C5  non d ame      -5.895  13.816  67.500  0.00  0.00     0.273 C 
ATOM     17  O2  non d ame      -4.725  13.899  67.353  0.00  0.00    -0.266 OA
ATOM     18  H5  non d ame      -7.595  12.504  67.254  0.00  0.00     0.163 HD
BRANCH  16  19
ATOM     19  C4  non d ame      -6.678  15.002  68.082  0.00  0.00     0.154 A 
ATOM     20  C1  non d ame      -6.748  16.333  67.560  0.00  0.00    -0.017 A 
ATOM     21  C2  non d ame      -7.590  17.031  68.454  0.00  0.00     0.077 A 
ATOM     22  H1  non d ame      -6.263  16.730  66.668  0.00  0.00     0.091 H 
ATOM     23  O1  non d ame      -7.956  16.191  69.377  0.00  0.00    -0.218 OA
ATOM     24  N1  non d ame      -7.437  15.001  69.182  0.00  0.00    -0.123 NA
BRANCH  21  25
ATOM     25  C3  non d ame      -7.994  18.496  68.354  0.00  0.00    -0.029 C 
ATOM     26  H2  non d ame      -7.119  19.126  68.513  0.00  0.00     0.036 H 
ATOM     27  H3  non d ame      -8.408  18.692  67.365  0.00  0.00     0.036 H 
ATOM     28  H4  non d ame      -8.745  18.719  69.113  0.00  0.00     0.036 H 
ENDBRANCH  21  25
ENDBRANCH  16  19
ENDBRANCH  13  15
BRANCH  13  29
ATOM     29  C8  non d ame      -4.984  10.847  67.649  0.00  0.00    -0.049 C 
ATOM     30  H7  non d ame      -4.573  11.630  68.287  0.00  0.00     0.030 H 
ATOM     31  H8  non d ame      -5.588  10.168  68.250  0.00  0.00     0.030 H 
ATOM     32  H9  non d ame      -4.168  10.294  67.184  0.00  0.00     0.030 H 
ENDBRANCH  13  29
ENDBRANCH  10  13
ENDBRANCH   7   9
BRANCH   7  33
ATOM     33  C11 non d ame      -7.779   7.117  66.445  0.00  0.00    -0.033 C 
ATOM     34  H12 non d ame      -8.500   6.408  66.853  0.00  0.00     0.042 H 
BRANCH  33  35
ATOM     35  C12 non d ame      -7.416   6.640  65.004  0.00  0.00    -0.071 C 
ATOM     36  H13 non d ame      -6.449   6.137  65.021  0.00  0.00     0.028 H 
ATOM     37  H14 non d ame      -8.178   5.948  64.648  0.00  0.00     0.028 H 
ATOM     38  H15 non d ame      -7.366   7.501  64.339  0.00  0.00     0.028 H 
ENDBRANCH  33  35
BRANCH  33  39
ATOM     39  C13 non d ame      -6.523   7.117  67.375  0.00  0.00    -0.071 C 
ATOM     40  H16 non d ame      -6.439   8.083  67.872  0.00  0.00     0.028 H 
ATOM     41  H17 non d ame      -6.625   6.331  68.124  0.00  0.00     0.028 H 
ATOM     42  H18 non d ame      -5.629   6.936  66.778  0.00  0.00     0.028 H 
ENDBRANCH  33  39
ENDBRANCH   7  33
ENDBRANCH   4   7
ENDBRANCH   1   3
BRANCH   1  43
ATOM     43  C15 non d ame     -11.630  10.603  69.268  0.00  0.00     0.240 C 
ATOM     44  O5  non d ame     -12.149  10.866  68.232  0.00  0.00    -0.271 OA
ATOM     45  N6  non d ame     -11.701  11.570  70.400  0.00  0.00    -0.355 N 
ATOM     46  H46 non d ame     -11.267  11.355  71.286  0.00  0.00     0.162 HD
BRANCH  45  47
ATOM     47  C20 non d ame     -12.412  12.854  70.223  0.00  0.00     0.013 C 
ATOM     48  H30 non d ame     -13.234  12.689  69.526  0.00  0.00     0.072 H 
BRANCH  47  49
ATOM     49  C21 non d ame     -11.456  13.882  69.661  0.00  0.00    -0.038 C 
ATOM     50  H31 non d ame     -11.455  14.705  70.376  0.00  0.00     0.036 H 
ATOM     51  H32 non d ame     -10.534  13.341  69.450  0.00  0.00     0.036 H 
BRANCH  49  52
ATOM     52  C22 non d ame     -11.933  14.472  68.316  0.00  0.00     0.018 C 
ATOM     53  H33 non d ame     -11.794  13.680  67.580  0.00  0.00     0.048 H 
ATOM     54  H34 non d ame     -12.930  14.870  68.506  0.00  0.00     0.048 H 
BRANCH  52  55
ATOM     55  C23 non d ame     -11.080  15.672  67.822  0.00  0.00     0.259 C 
ATOM     56  O7  non d ame     -11.197  16.743  68.323  0.00  0.00    -0.265 OA
BRANCH  55  57
ATOM     57  O8  non d ame     -10.163  15.481  66.751  0.00  0.00    -0.317 OA
BRANCH  57  58
ATOM     58  C29 non d ame     -10.769  15.506  65.455  0.00  0.00     0.052 C 
ATOM     59  H47 non d ame     -11.766  15.921  65.603  0.00  0.00     0.082 H 
ATOM     60  H48 non d ame     -10.057  16.016  64.806  0.00  0.00     0.082 H 
BRANCH  58  61
ATOM     61  C35 non d ame     -10.914  14.040  64.966  0.00  0.00    -0.034 A 
ATOM     62  C30 non d ame     -10.071  13.053  65.465  0.00  0.00    -0.075 A 
ATOM     63  C31 non d ame     -10.201  11.736  65.026  0.00  0.00    -0.082 A 
ATOM     64  H49 non d ame      -9.308  13.310  66.200  0.00  0.00     0.084 H 
ATOM     65  C32 non d ame     -11.178  11.409  64.082  0.00  0.00    -0.083 A 
ATOM     66  H50 non d ame      -9.540  10.964  65.420  0.00  0.00     0.083 H 
ATOM     67  C33 non d ame     -12.015  12.398  63.584  0.00  0.00    -0.082 A 
ATOM     68  H51 non d ame     -11.287  10.382  63.733  0.00  0.00     0.083 H 
ATOM     69  C34 non d ame     -11.890  13.715  64.022  0.00  0.00    -0.075 A 
ATOM     70  H52 non d ame     -12.775  12.140  62.846  0.00  0.00     0.083 H 
ATOM     71  H53 non d ame     -12.552  14.486  63.628  0.00  0.00     0.084 H 
ENDBRANCH  58  61
ENDBRANCH  57  58
ENDBRANCH  55  57
ENDBRANCH  52  55
ENDBRANCH  49  52
ENDBRANCH  47  49
BRANCH  47  72
ATOM     72  C24 non d ame     -12.948  13.338  71.569  0.00  0.00    -0.039 C 
ATOM     73  H35 non d ame     -14.015  13.114  71.554  0.00  0.00     0.036 H 
ATOM     74  H36 non d ame     -12.305  12.877  72.319  0.00  0.00     0.036 H 
BRANCH  72  75
ATOM     75  C25 non d ame     -12.800  14.925  71.730  0.00  0.00    -0.001 C 
ATOM     76  C26 non d ame     -11.921  15.272  73.076  0.00  0.00    -0.035 C 
ATOM     77  C27 non d ame     -12.604  16.170  73.824  0.00  0.00     0.085 C 
ATOM     78  H38 non d ame     -11.862  14.395  73.720  0.00  0.00     0.036 H 
ATOM     79  H39 non d ame     -11.012  15.808  72.801  0.00  0.00     0.036 H 
ATOM     80  N5  non d ame     -14.011  16.220  73.278  0.00  0.00    -0.049 N 
ATOM     81  H40 non d ame     -12.629  15.752  74.831  0.00  0.00     0.075 H 
ATOM     82  H41 non d ame     -12.119  17.129  73.643  0.00  0.00     0.075 H 
ATOM     83  C28 non d ame     -13.954  15.493  71.838  0.00  0.00     0.193 C 
ATOM     84  H42 non d ame     -14.579  15.661  73.898  0.00  0.00     0.280 HD
ATOM     85  H43 non d ame     -14.229  17.196  73.137  0.00  0.00     0.280 HD
ATOM     86  H44 non d ame     -13.972  16.081  70.920  0.00  0.00     0.129 H 
ATOM     87  H37 non d ame     -12.496  15.407  70.801  0.00  0.00     0.046 H 
BRANCH  83  88
ATOM     88  O6  non d ame     -15.029  14.560  71.714  0.00  0.00    -0.369 OA
ATOM     89  H45 non d ame     -15.766  14.847  72.256  0.00  0.00     0.212 HD
ENDBRANCH  83  88
ENDBRANCH  72  75
ENDBRANCH  47  72
ENDBRANCH  45  47
ENDBRANCH   1  43
BRANCH   1  90
ATOM     90  C16 non d ame     -10.458   9.077  70.886  0.00  0.00    -0.035 C 
ATOM     91  H21 non d ame      -9.474   8.609  70.844  0.00  0.00     0.037 H 
ATOM     92  H22 non d ame     -10.573  10.062  71.339  0.00  0.00     0.037 H 
BRANCH  90  93
ATOM     93  C17 non d ame     -11.372   8.107  71.701  0.00  0.00    -0.059 C 
ATOM     94  H23 non d ame     -12.260   8.663  72.001  0.00  0.00     0.038 H 
BRANCH  93  95
ATOM     95  C18 non d ame     -11.842   6.885  70.848  0.00  0.00    -0.073 C 
ATOM     96  H24 non d ame     -12.685   6.401  71.341  0.00  0.00     0.028 H 
ATOM     97  H25 non d ame     -12.146   7.227  69.859  0.00  0.00     0.028 H 
ATOM     98  H26 non d ame     -11.021   6.174  70.750  0.00  0.00     0.028 H 
ENDBRANCH  93  95
BRANCH  93  99
ATOM     99  C19 non d ame     -10.673   7.641  72.980  0.00  0.00    -0.073 C 
ATOM    100  H27 non d ame      -9.592   7.702  72.847  0.00  0.00     0.028 H 
ATOM    101  H28 non d ame     -10.973   8.281  73.811  0.00  0.00     0.028 H 
ATOM    102  H29 non d ame     -10.955   6.611  73.195  0.00  0.00     0.028 H 
ENDBRANCH  93  99
ENDBRANCH  90  93
ENDBRANCH   1  90
TORSDOF 26
ENDMDL
MODEL 6
REMARK VINA RESULT:      -6.7      2.623      8.451
REMARK  26 active torsions:
REMARK  status: ('A' for Active; 'I' for Inactive)
REMARK    1  A    between atoms: C2_2  and  C3_3 
REMARK    2  A    between atoms: C4_6  and  C5_7 
REMARK       I    between atoms: C5_7  and  N2_9 
REMARK    3  A    between atoms: N2_9  and  C6_10 
REMARK    4  A    between atoms: C6_10  and  C7_11 
REMARK    5  A    between atoms: C6_10  and  C8_13 
REMARK       I    between atoms: C7_11  and  N3_14 
REMARK    6  A    between atoms: N3_14  and  C9_15 
REMARK    7  A    between atoms: C9_15  and  C10_16 
REMARK    8  A    between atoms: C9_15  and  C11_18 
REMARK       I    between atoms: C10_16  and  N4_21 
REMARK    9  A    between atoms: C11_18  and  C12_19 
REMARK   10  A    between atoms: C11_18  and  C13_20 
REMARK   11  A    between atoms: N4_21  and  C14_22 
REMARK   12  A    between atoms: C14_22  and  C15_23 
REMARK   13  A    between atoms: C14_22  and  C16_25 
REMARK       I    between atoms: C15_23  and  N6_40 
REMARK   14  A    between atoms: C16_25  and  C17_26 
REMARK   15  A    between atoms: C17_26  and  C18_27 
REMARK   16  A    between atoms: C17_26  and  C19_28 
REMARK   17  A    between atoms: C20_29  and  C21_30 
REMARK   18  A    between atoms: C20_29  and  C24_33 
REMARK   19  A    between atoms: C20_29  and  N6_40 
REMARK   20  A    between atoms: C21_30  and  C22_31 
REMARK   21  A    between atoms: C22_31  and  C23_32 
REMARK   22  A    between atoms: C23_32  and  O8_43 
REMARK   23  A    between atoms: C24_33  and  C25_34 
REMARK   24  A    between atoms: C28_38  and  O6_39 
REMARK   25  A    between atoms: C29_42  and  O8_43 
REMARK   26  A    between atoms: C29_42  and  C35_49 
ROOT
ATOM      1  C14 non d ame     -10.753   9.451  69.064  0.00  0.00     0.089 C 
ATOM      2  H20 non d ame     -11.469   8.667  68.817  0.00  0.00     0.087 H 
ENDROOT
BRANCH   1   3
ATOM      3  N4  non d ame      -9.464   9.055  68.515  0.00  0.00    -0.346 N 
ATOM      4  C10 non d ame      -9.237   7.639  68.048  0.00  0.00     0.241 C 
ATOM      5  O4  non d ame     -10.107   6.835  68.126  0.00  0.00    -0.271 OA
ATOM      6  H19 non d ame      -8.737   9.754  68.460  0.00  0.00     0.163 HD
BRANCH   4   7
ATOM      7  C9  non d ame      -7.899   7.249  67.477  0.00  0.00     0.092 C 
ATOM      8  H11 non d ame      -8.016   6.349  66.873  0.00  0.00     0.088 H 
BRANCH   7   9
ATOM      9  N3  non d ame      -7.419   8.310  66.587  0.00  0.00    -0.346 N 
ATOM     10  C7  non d ame      -7.674   8.231  65.170  0.00  0.00     0.240 C 
ATOM     11  O3  non d ame      -8.264   7.321  64.729  0.00  0.00    -0.271 OA
ATOM     12  H10 non d ame      -6.908   9.100  66.953  0.00  0.00     0.163 HD
BRANCH  10  13
ATOM     13  C6  non d ame      -7.158   9.362  64.227  0.00  0.00     0.086 C 
ATOM     14  H6  non d ame      -7.220   9.093  63.172  0.00  0.00     0.086 H 
BRANCH  13  15
ATOM     15  N2  non d ame      -7.989  10.541  64.405  0.00  0.00    -0.343 N 
ATOM     16  C5  non d ame      -9.265  10.638  63.693  0.00  0.00     0.273 C 
ATOM     17  O2  non d ame      -9.613   9.764  62.977  0.00  0.00    -0.266 OA
ATOM     18  H5  non d ame      -7.683  11.284  65.016  0.00  0.00     0.163 HD
BRANCH  16  19
ATOM     19  C4  non d ame     -10.155  11.878  63.873  0.00  0.00     0.154 A 
ATOM     20  C1  non d ame      -9.946  12.968  64.775  0.00  0.00    -0.017 A 
ATOM     21  C2  non d ame     -11.036  13.839  64.552  0.00  0.00     0.077 A 
ATOM     22  H1  non d ame      -9.129  13.107  65.484  0.00  0.00     0.091 H 
ATOM     23  O1  non d ame     -11.777  13.303  63.627  0.00  0.00    -0.218 OA
ATOM     24  N1  non d ame     -11.284  12.158  63.215  0.00  0.00    -0.123 NA
BRANCH  21  25
ATOM     25  C3  non d ame     -11.294  15.161  65.263  0.00  0.00    -0.029 C 
ATOM     26  H2  non d ame     -10.389  15.770  65.239  0.00  0.00     0.036 H 
ATOM     27  H3  non d ame     -12.102  15.692  64.760  0.00  0.00     0.036 H 
ATOM     28  H4  non d ame     -11.574  14.969  66.299  0.00  0.00     0.036 H 
ENDBRANCH  21  25
ENDBRANCH  16  19
ENDBRANCH  13  15
BRANCH  13  29
ATOM     29  C8  non d ame      -5.724   9.685  64.563  0.00  0.00    -0.049 C 
ATOM     30  H7  non d ame      -5.684  10.207  65.519  0.00  0.00     0.030 H 
ATOM     31  H8  non d ame      -5.149   8.761  64.629  0.00  0.00     0.030 H 
ATOM     32  H9  non d ame      -5.303  10.321  63.785  0.00  0.00     0.030 H 
ENDBRANCH  13  29
ENDBRANCH  10  13
ENDBRANCH   7   9
BRANCH   7  33
ATOM     33  C11 non d ame      -6.880   7.047  68.637  0.00  0.00    -0.033 C 
ATOM     34  H12 non d ame      -6.191   6.258  68.336  0.00  0.00     0.042 H 
BRANCH  33  35
ATOM     35  C12 non d ame      -6.037   8.337  68.883  0.00  0.00    -0.071 C 
ATOM     36  H13 non d ame      -6.678   9.214  68.787  0.00  0.00     0.028 H 
ATOM     37  H14 non d ame      -5.612   8.307  69.886  0.00  0.00     0.028 H 
ATOM     38  H15 non d ame      -5.234   8.392  68.149  0.00  0.00     0.028 H 
ENDBRANCH  33  35
BRANCH  33  39
ATOM     39  C13 non d ame      -7.603   6.585  69.943  0.00  0.00    -0.071 C 
ATOM     40  H16 non d ame      -8.675   6.521  69.762  0.00  0.00     0.028 H 
ATOM     41  H17 non d ame      -7.225   5.607  70.241  0.00  0.00     0.028 H 
ATOM     42  H18 non d ame      -7.411   7.306  70.738  0.00  0.00     0.028 H 
ENDBRANCH  33  39
ENDBRANCH   7  33
ENDBRANCH   4   7
ENDBRANCH   1   3
BRANCH   1  43
ATOM     43  C15 non d ame     -11.150  10.825  68.453  0.00  0.00     0.240 C 
ATOM     44  O5  non d ame     -11.927  10.870  67.555  0.00  0.00    -0.271 OA
ATOM     45  N6  non d ame     -10.569  12.086  68.994  0.00  0.00    -0.355 N 
ATOM     46  H46 non d ame      -9.912  12.061  69.760  0.00  0.00     0.162 HD
BRANCH  45  47
ATOM     47  C20 non d ame     -10.958  13.385  68.403  0.00  0.00     0.013 C 
ATOM     48  H30 non d ame     -11.139  13.229  67.340  0.00  0.00     0.072 H 
BRANCH  47  49
ATOM     49  C21 non d ame      -9.835  14.379  68.597  0.00  0.00    -0.038 C 
ATOM     50  H31 non d ame      -9.906  15.071  67.757  0.00  0.00     0.036 H 
ATOM     51  H32 non d ame      -9.941  14.747  69.617  0.00  0.00     0.036 H 
BRANCH  49  52
ATOM     52  C22 non d ame      -8.438  13.728  68.509  0.00  0.00     0.018 C 
ATOM     53  H33 non d ame      -7.963  13.917  69.472  0.00  0.00     0.048 H 
ATOM     54  H34 non d ame      -8.609  12.703  68.178  0.00  0.00     0.048 H 
BRANCH  52  55
ATOM     55  C23 non d ame      -7.512  14.373  67.441  0.00  0.00     0.259 C 
ATOM     56  O7  non d ame      -6.388  14.009  67.317  0.00  0.00    -0.265 OA
BRANCH  55  57
ATOM     57  O8  non d ame      -8.020  15.417  66.618  0.00  0.00    -0.317 OA
BRANCH  57  58
ATOM     58  C29 non d ame      -7.337  16.664  66.772  0.00  0.00     0.052 C 
ATOM     59  H47 non d ame      -6.826  16.604  67.733  0.00  0.00     0.082 H 
ATOM     60  H48 non d ame      -6.762  16.801  65.856  0.00  0.00     0.082 H 
BRANCH  58  61
ATOM     61  C35 non d ame      -8.405  17.787  66.852  0.00  0.00    -0.034 A 
ATOM     62  C30 non d ame      -8.196  18.996  66.195  0.00  0.00    -0.075 A 
ATOM     63  C31 non d ame      -9.155  20.005  66.268  0.00  0.00    -0.082 A 
ATOM     64  H49 non d ame      -7.282  19.152  65.623  0.00  0.00     0.084 H 
ATOM     65  C32 non d ame     -10.326  19.803  67.004  0.00  0.00    -0.083 A 
ATOM     66  H50 non d ame      -8.990  20.950  65.750  0.00  0.00     0.083 H 
ATOM     67  C33 non d ame     -10.529  18.597  67.660  0.00  0.00    -0.082 A 
ATOM     68  H51 non d ame     -11.082  20.587  67.065  0.00  0.00     0.083 H 
ATOM     69  C34 non d ame      -9.574  17.585  67.589  0.00  0.00    -0.075 A 
ATOM     70  H52 non d ame     -11.442  18.444  68.235  0.00  0.00     0.083 H 
ATOM     71  H53 non d ame      -9.741  16.640  68.107  0.00  0.00     0.084 H 
ENDBRANCH  58  61
ENDBRANCH  57  58
ENDBRANCH  55  57
ENDBRANCH  52  55
ENDBRANCH  49  52
ENDBRANCH  47  49
BRANCH  47  72
ATOM     72  C24 non d ame     -12.222  13.905  69.085  0.00  0.00    -0.039 C 
ATOM     73  H35 non d ame     -12.528  14.775  68.505  0.00  0.00     0.036 H 
ATOM     74  H36 non d ame     -12.885  13.043  69.164  0.00  0.00     0.036 H 
BRANCH  72  75
ATOM     75  C25 non d ame     -11.926  14.411  70.576  0.00  0.00    -0.001 C 
ATOM     76  C26 non d ame     -12.836  13.559  71.648  0.00  0.00    -0.035 C 
ATOM     77  C27 non d ame     -13.491  14.429  72.453  0.00  0.00     0.085 C 
ATOM     78  H38 non d ame     -13.639  13.039  71.127  0.00  0.00     0.036 H 
ATOM     79  H39 non d ame     -12.190  13.013  72.336  0.00  0.00     0.036 H 
ATOM     80  N5  non d ame     -13.368  15.794  71.819  0.00  0.00    -0.049 N 
ATOM     81  H40 non d ame     -14.537  14.119  72.428  0.00  0.00     0.075 H 
ATOM     82  H41 non d ame     -12.944  14.424  73.395  0.00  0.00     0.075 H 
ATOM     83  C28 non d ame     -12.204  15.665  70.708  0.00  0.00     0.193 C 
ATOM     84  H42 non d ame     -14.244  15.971  71.349  0.00  0.00     0.280 HD
ATOM     85  H43 non d ame     -13.050  16.419  72.546  0.00  0.00     0.280 HD
ATOM     86  H44 non d ame     -11.210  16.070  70.898  0.00  0.00     0.129 H 
ATOM     87  H37 non d ame     -10.858  14.486  70.782  0.00  0.00     0.046 H 
BRANCH  83  88
ATOM     88  O6  non d ame     -12.629  16.255  69.478  0.00  0.00    -0.369 OA
ATOM     89  H45 non d ame     -12.196  15.813  68.745  0.00  0.00     0.212 HD
ENDBRANCH  83  88
ENDBRANCH  72  75
ENDBRANCH  47  72
ENDBRANCH  45  47
ENDBRANCH   1  43
BRANCH   1  90
ATOM     90  C16 non d ame     -10.631   9.578  70.574  0.00  0.00    -0.035 C 
ATOM     91  H21 non d ame      -9.702   9.069  70.833  0.00  0.00     0.037 H 
ATOM     92  H22 non d ame     -10.745  10.642  70.784  0.00  0.00     0.037 H 
BRANCH  90  93
ATOM     93  C17 non d ame     -11.768   8.849  71.359  0.00  0.00    -0.059 C 
ATOM     94  H23 non d ame     -12.225   8.127  70.683  0.00  0.00     0.038 H 
BRANCH  93  95
ATOM     95  C18 non d ame     -11.222   8.066  72.595  0.00  0.00    -0.073 C 
ATOM     96  H24 non d ame     -11.399   7.000  72.457  0.00  0.00     0.028 H 
ATOM     97  H25 non d ame     -10.151   8.247  72.696  0.00  0.00     0.028 H 
ATOM     98  H26 non d ame     -11.734   8.407  73.496  0.00  0.00     0.028 H 
ENDBRANCH  93  95
BRANCH  93  99
ATOM     99  C19 non d ame     -12.862   9.835  71.777  0.00  0.00    -0.073 C 
ATOM    100  H27 non d ame     -13.679   9.291  72.251  0.00  0.00     0.028 H 
ATOM    101  H28 non d ame     -12.449  10.557  72.482  0.00  0.00     0.028 H 
ATOM    102  H29 non d ame     -13.235  10.359  70.898  0.00  0.00     0.028 H 
ENDBRANCH  93  99
ENDBRANCH  90  93
ENDBRANCH   1  90
TORSDOF 26
ENDMDL
MODEL 7
REMARK VINA RESULT:      -6.5      2.438      9.269
REMARK  26 active torsions:
REMARK  status: ('A' for Active; 'I' for Inactive)
REMARK    1  A    between atoms: C2_2  and  C3_3 
REMARK    2  A    between atoms: C4_6  and  C5_7 
REMARK       I    between atoms: C5_7  and  N2_9 
REMARK    3  A    between atoms: N2_9  and  C6_10 
REMARK    4  A    between atoms: C6_10  and  C7_11 
REMARK    5  A    between atoms: C6_10  and  C8_13 
REMARK       I    between atoms: C7_11  and  N3_14 
REMARK    6  A    between atoms: N3_14  and  C9_15 
REMARK    7  A    between atoms: C9_15  and  C10_16 
REMARK    8  A    between atoms: C9_15  and  C11_18 
REMARK       I    between atoms: C10_16  and  N4_21 
REMARK    9  A    between atoms: C11_18  and  C12_19 
REMARK   10  A    between atoms: C11_18  and  C13_20 
REMARK   11  A    between atoms: N4_21  and  C14_22 
REMARK   12  A    between atoms: C14_22  and  C15_23 
REMARK   13  A    between atoms: C14_22  and  C16_25 
REMARK       I    between atoms: C15_23  and  N6_40 
REMARK   14  A    between atoms: C16_25  and  C17_26 
REMARK   15  A    between atoms: C17_26  and  C18_27 
REMARK   16  A    between atoms: C17_26  and  C19_28 
REMARK   17  A    between atoms: C20_29  and  C21_30 
REMARK   18  A    between atoms: C20_29  and  C24_33 
REMARK   19  A    between atoms: C20_29  and  N6_40 
REMARK   20  A    between atoms: C21_30  and  C22_31 
REMARK   21  A    between atoms: C22_31  and  C23_32 
REMARK   22  A    between atoms: C23_32  and  O8_43 
REMARK   23  A    between atoms: C24_33  and  C25_34 
REMARK   24  A    between atoms: C28_38  and  O6_39 
REMARK   25  A    between atoms: C29_42  and  O8_43 
REMARK   26  A    between atoms: C29_42  and  C35_49 
ROOT
ATOM      1  C14 non d ame      -9.937   8.445  69.271  0.00  0.00     0.089 C 
ATOM      2  H20 non d ame     -10.994   8.422  69.006  0.00  0.00     0.087 H 
ENDROOT
BRANCH   1   3
ATOM      3  N4  non d ame      -9.254   7.471  68.431  0.00  0.00    -0.346 N 
ATOM      4  C10 non d ame      -9.922   6.934  67.191  0.00  0.00     0.241 C 
ATOM      5  O4  non d ame     -11.011   7.298  66.890  0.00  0.00    -0.271 OA
ATOM      6  H19 non d ame      -8.329   7.173  68.706  0.00  0.00     0.163 HD
BRANCH   4   7
ATOM      7  C9  non d ame      -9.198   5.931  66.331  0.00  0.00     0.092 C 
ATOM      8  H11 non d ame      -9.856   5.612  65.522  0.00  0.00     0.088 H 
BRANCH   7   9
ATOM      9  N3  non d ame      -8.031   6.568  65.713  0.00  0.00    -0.346 N 
ATOM     10  C7  non d ame      -7.734   6.334  64.322  0.00  0.00     0.240 C 
ATOM     11  O3  non d ame      -8.423   5.634  63.684  0.00  0.00    -0.271 OA
ATOM     12  H10 non d ame      -7.427   7.173  66.251  0.00  0.00     0.163 HD
BRANCH  10  13
ATOM     13  C6  non d ame      -6.489   7.012  63.671  0.00  0.00     0.086 C 
ATOM     14  H6  non d ame      -6.729   7.537  62.747  0.00  0.00     0.086 H 
BRANCH  13  15
ATOM     15  N2  non d ame      -5.961   8.008  64.589  0.00  0.00    -0.343 N 
ATOM     16  C5  non d ame      -5.985   9.422  64.211  0.00  0.00     0.273 C 
ATOM     17  O2  non d ame      -6.428   9.749  63.165  0.00  0.00    -0.266 OA
ATOM     18  H5  non d ame      -5.582   7.720  65.480  0.00  0.00     0.163 HD
BRANCH  16  19
ATOM     19  C4  non d ame      -5.432  10.486  65.172  0.00  0.00     0.154 A 
ATOM     20  C1  non d ame      -5.907  10.794  66.486  0.00  0.00    -0.017 A 
ATOM     21  C2  non d ame      -5.067  11.835  66.941  0.00  0.00     0.077 A 
ATOM     22  H1  non d ame      -6.735  10.334  67.026  0.00  0.00     0.091 H 
ATOM     23  O1  non d ame      -4.212  12.086  65.993  0.00  0.00    -0.218 OA
ATOM     24  N1  non d ame      -4.406  11.312  64.950  0.00  0.00    -0.123 NA
BRANCH  21  25
ATOM     25  C3  non d ame      -5.147  12.533  68.293  0.00  0.00    -0.029 C 
ATOM     26  H2  non d ame      -6.127  12.997  68.405  0.00  0.00     0.036 H 
ATOM     27  H3  non d ame      -4.999  11.802  69.088  0.00  0.00     0.036 H 
ATOM     28  H4  non d ame      -4.373  13.298  68.354  0.00  0.00     0.036 H 
ENDBRANCH  21  25
ENDBRANCH  16  19
ENDBRANCH  13  15
BRANCH  13  29
ATOM     29  C8  non d ame      -5.439   5.969  63.381  0.00  0.00    -0.049 C 
ATOM     30  H7  non d ame      -5.121   6.053  62.342  0.00  0.00     0.030 H 
ATOM     31  H8  non d ame      -4.583   6.123  64.037  0.00  0.00     0.030 H 
ATOM     32  H9  non d ame      -5.856   4.977  63.553  0.00  0.00     0.030 H 
ENDBRANCH  13  29
ENDBRANCH  10  13
ENDBRANCH   7   9
BRANCH   7  33
ATOM     33  C11 non d ame      -8.729   4.736  67.211  0.00  0.00    -0.033 C 
ATOM     34  H12 non d ame      -9.089   4.913  68.224  0.00  0.00     0.042 H 
BRANCH  33  35
ATOM     35  C12 non d ame      -9.349   3.391  66.721  0.00  0.00    -0.071 C 
ATOM     36  H13 non d ame     -10.044   3.588  65.904  0.00  0.00     0.028 H 
ATOM     37  H14 non d ame      -8.556   2.731  66.370  0.00  0.00     0.028 H 
ATOM     38  H15 non d ame      -9.881   2.915  67.544  0.00  0.00     0.028 H 
ENDBRANCH  33  35
BRANCH  33  39
ATOM     39  C13 non d ame      -7.169   4.656  67.259  0.00  0.00    -0.071 C 
ATOM     40  H16 non d ame      -6.746   5.610  66.946  0.00  0.00     0.028 H 
ATOM     41  H17 non d ame      -6.848   4.432  68.277  0.00  0.00     0.028 H 
ATOM     42  H18 non d ame      -6.825   3.868  66.589  0.00  0.00     0.028 H 
ENDBRANCH  33  39
ENDBRANCH   7  33
ENDBRANCH   4   7
ENDBRANCH   1   3
BRANCH   1  43
ATOM     43  C15 non d ame      -9.299   9.843  69.027  0.00  0.00     0.240 C 
ATOM     44  O5  non d ame      -8.280  10.130  69.566  0.00  0.00    -0.271 OA
ATOM     45  N6  non d ame      -9.956  10.821  68.113  0.00  0.00    -0.355 N 
ATOM     46  H46 non d ame     -10.819  10.586  67.645  0.00  0.00     0.162 HD
BRANCH  45  47
ATOM     47  C20 non d ame      -9.337  12.145  67.890  0.00  0.00     0.013 C 
ATOM     48  H30 non d ame      -8.406  12.180  68.456  0.00  0.00     0.072 H 
BRANCH  47  49
ATOM     49  C21 non d ame     -10.277  13.225  68.377  0.00  0.00    -0.038 C 
ATOM     50  H31 non d ame     -11.169  13.140  67.756  0.00  0.00     0.036 H 
ATOM     51  H32 non d ame     -10.348  13.088  69.456  0.00  0.00     0.036 H 
BRANCH  49  52
ATOM     52  C22 non d ame      -9.723  14.648  68.152  0.00  0.00     0.018 C 
ATOM     53  H33 non d ame      -9.391  14.994  69.131  0.00  0.00     0.048 H 
ATOM     54  H34 non d ame      -9.007  14.561  67.334  0.00  0.00     0.048 H 
BRANCH  52  55
ATOM     55  C23 non d ame     -10.794  15.669  67.677  0.00  0.00     0.259 C 
ATOM     56  O7  non d ame     -10.886  15.956  66.528  0.00  0.00    -0.265 OA
BRANCH  55  57
ATOM     57  O8  non d ame     -11.657  16.270  68.635  0.00  0.00    -0.317 OA
BRANCH  57  58
ATOM     58  C29 non d ame     -11.049  16.485  69.912  0.00  0.00     0.052 C 
ATOM     59  H47 non d ame     -10.069  16.011  69.856  0.00  0.00     0.082 H 
ATOM     60  H48 non d ame     -11.127  17.555  70.100  0.00  0.00     0.082 H 
BRANCH  58  61
ATOM     61  C35 non d ame     -11.896  15.737  70.977  0.00  0.00    -0.034 A 
ATOM     62  C30 non d ame     -12.643  14.621  70.615  0.00  0.00    -0.075 A 
ATOM     63  C31 non d ame     -13.404  13.950  71.571  0.00  0.00    -0.082 A 
ATOM     64  H49 non d ame     -12.632  14.272  69.582  0.00  0.00     0.084 H 
ATOM     65  C32 non d ame     -13.418  14.401  72.893  0.00  0.00    -0.083 A 
ATOM     66  H50 non d ame     -13.986  13.074  71.284  0.00  0.00     0.083 H 
ATOM     67  C33 non d ame     -12.673  15.517  73.249  0.00  0.00    -0.082 A 
ATOM     68  H51 non d ame     -14.009  13.881  73.647  0.00  0.00     0.083 H 
ATOM     69  C34 non d ame     -11.910  16.190  72.298  0.00  0.00    -0.075 A 
ATOM     70  H52 non d ame     -12.688  15.868  74.282  0.00  0.00     0.083 H 
ATOM     71  H53 non d ame     -11.327  17.065  72.585  0.00  0.00     0.084 H 
ENDBRANCH  58  61
ENDBRANCH  57  58
ENDBRANCH  55  57
ENDBRANCH  52  55
ENDBRANCH  49  52
ENDBRANCH  47  49
BRANCH  47  72
ATOM     72  C24 non d ame      -9.060  12.342  66.401  0.00  0.00    -0.039 C 
ATOM     73  H35 non d ame      -9.112  13.419  66.237  0.00  0.00     0.036 H 
ATOM     74  H36 non d ame      -8.133  11.805  66.204  0.00  0.00     0.036 H 
BRANCH  72  75
ATOM     75  C25 non d ame     -10.197  11.671  65.493  0.00  0.00    -0.001 C 
ATOM     76  C26 non d ame      -9.602  10.330  64.751  0.00  0.00    -0.035 C 
ATOM     77  C27 non d ame      -9.863  10.413  63.425  0.00  0.00     0.085 C 
ATOM     78  H38 non d ame      -8.513  10.330  64.797  0.00  0.00     0.036 H 
ATOM     79  H39 non d ame     -10.161   9.449  65.066  0.00  0.00     0.036 H 
ATOM     80  N5  non d ame     -10.290  11.834  63.147  0.00  0.00    -0.049 N 
ATOM     81  H40 non d ame      -8.911  10.225  62.927  0.00  0.00     0.075 H 
ATOM     82  H41 non d ame     -10.709   9.749  63.252  0.00  0.00     0.075 H 
ATOM     83  C28 non d ame     -10.615  12.490  64.586  0.00  0.00     0.193 C 
ATOM     84  H42 non d ame      -9.486  12.303  62.754  0.00  0.00     0.280 HD
ATOM     85  H43 non d ame     -11.149  11.777  62.619  0.00  0.00     0.280 HD
ATOM     86  H44 non d ame     -11.646  12.634  64.909  0.00  0.00     0.129 H 
ATOM     87  H37 non d ame     -11.142  11.565  66.027  0.00  0.00     0.046 H 
BRANCH  83  88
ATOM     88  O6  non d ame      -9.998  13.774  64.694  0.00  0.00    -0.369 OA
ATOM     89  H45 non d ame     -10.186  14.148  65.557  0.00  0.00     0.212 HD
ENDBRANCH  83  88
ENDBRANCH  72  75
ENDBRANCH  47  72
ENDBRANCH  45  47
ENDBRANCH   1  43
BRANCH   1  90
ATOM     90  C16 non d ame      -9.763   8.051  70.729  0.00  0.00    -0.035 C 
ATOM     91  H21 non d ame      -9.266   7.081  70.709  0.00  0.00     0.037 H 
ATOM     92  H22 non d ame      -9.274   8.903  71.201  0.00  0.00     0.037 H 
BRANCH  90  93
ATOM     93  C17 non d ame     -11.112   7.841  71.486  0.00  0.00    -0.059 C 
ATOM     94  H23 non d ame     -11.674   8.773  71.427  0.00  0.00     0.038 H 
BRANCH  93  95
ATOM     95  C18 non d ame     -11.984   6.718  70.837  0.00  0.00    -0.073 C 
ATOM     96  H24 non d ame     -11.740   6.636  69.778  0.00  0.00     0.028 H 
ATOM     97  H25 non d ame     -11.780   5.768  71.332  0.00  0.00     0.028 H 
ATOM     98  H26 non d ame     -13.039   6.967  70.949  0.00  0.00     0.028 H 
ENDBRANCH  93  95
BRANCH  93  99
ATOM     99  C19 non d ame     -10.868   7.551  72.969  0.00  0.00    -0.073 C 
ATOM    100  H27 non d ame     -10.227   8.327  73.390  0.00  0.00     0.028 H 
ATOM    101  H28 non d ame     -11.821   7.539  73.499  0.00  0.00     0.028 H 
ATOM    102  H29 non d ame     -10.382   6.582  73.075  0.00  0.00     0.028 H 
ENDBRANCH  93  99
ENDBRANCH  90  93
ENDBRANCH   1  90
TORSDOF 26
ENDMDL
MODEL 8
REMARK VINA RESULT:      -6.5      3.917      8.169
REMARK  26 active torsions:
REMARK  status: ('A' for Active; 'I' for Inactive)
REMARK    1  A    between atoms: C2_2  and  C3_3 
REMARK    2  A    between atoms: C4_6  and  C5_7 
REMARK       I    between atoms: C5_7  and  N2_9 
REMARK    3  A    between atoms: N2_9  and  C6_10 
REMARK    4  A    between atoms: C6_10  and  C7_11 
REMARK    5  A    between atoms: C6_10  and  C8_13 
REMARK       I    between atoms: C7_11  and  N3_14 
REMARK    6  A    between atoms: N3_14  and  C9_15 
REMARK    7  A    between atoms: C9_15  and  C10_16 
REMARK    8  A    between atoms: C9_15  and  C11_18 
REMARK       I    between atoms: C10_16  and  N4_21 
REMARK    9  A    between atoms: C11_18  and  C12_19 
REMARK   10  A    between atoms: C11_18  and  C13_20 
REMARK   11  A    between atoms: N4_21  and  C14_22 
REMARK   12  A    between atoms: C14_22  and  C15_23 
REMARK   13  A    between atoms: C14_22  and  C16_25 
REMARK       I    between atoms: C15_23  and  N6_40 
REMARK   14  A    between atoms: C16_25  and  C17_26 
REMARK   15  A    between atoms: C17_26  and  C18_27 
REMARK   16  A    between atoms: C17_26  and  C19_28 
REMARK   17  A    between atoms: C20_29  and  C21_30 
REMARK   18  A    between atoms: C20_29  and  C24_33 
REMARK   19  A    between atoms: C20_29  and  N6_40 
REMARK   20  A    between atoms: C21_30  and  C22_31 
REMARK   21  A    between atoms: C22_31  and  C23_32 
REMARK   22  A    between atoms: C23_32  and  O8_43 
REMARK   23  A    between atoms: C24_33  and  C25_34 
REMARK   24  A    between atoms: C28_38  and  O6_39 
REMARK   25  A    between atoms: C29_42  and  O8_43 
REMARK   26  A    between atoms: C29_42  and  C35_49 
ROOT
ATOM      1  C14 non d ame      -6.825  10.253  62.959  0.00  0.00     0.089 C 
ATOM      2  H20 non d ame      -6.182  10.986  62.472  0.00  0.00     0.087 H 
ENDROOT
BRANCH   1   3
ATOM      3  N4  non d ame      -6.421  10.174  64.355  0.00  0.00    -0.346 N 
ATOM      4  C10 non d ame      -5.121  10.790  64.808  0.00  0.00     0.241 C 
ATOM      5  O4  non d ame      -4.415  11.342  64.029  0.00  0.00    -0.271 OA
ATOM      6  H19 non d ame      -7.035   9.698  65.001  0.00  0.00     0.163 HD
BRANCH   4   7
ATOM      7  C9  non d ame      -4.721  10.704  66.257  0.00  0.00     0.092 C 
ATOM      8  H11 non d ame      -3.818  11.292  66.415  0.00  0.00     0.088 H 
BRANCH   7   9
ATOM      9  N3  non d ame      -5.774  11.293  67.091  0.00  0.00    -0.346 N 
ATOM     10  C7  non d ame      -5.641  12.647  67.568  0.00  0.00     0.240 C 
ATOM     11  O3  non d ame      -4.694  13.277  67.292  0.00  0.00    -0.271 OA
ATOM     12  H10 non d ame      -6.596  10.761  67.338  0.00  0.00     0.163 HD
BRANCH  10  13
ATOM     13  C6  non d ame      -6.763  13.268  68.457  0.00  0.00     0.086 C 
ATOM     14  H6  non d ame      -6.827  12.803  69.441  0.00  0.00     0.086 H 
BRANCH  13  15
ATOM     15  N2  non d ame      -6.465  14.673  68.680  0.00  0.00    -0.343 N 
ATOM     16  C5  non d ame      -6.014  15.113  70.002  0.00  0.00     0.273 C 
ATOM     17  O2  non d ame      -5.898  14.330  70.880  0.00  0.00    -0.266 OA
ATOM     18  H5  non d ame      -6.570  15.335  67.925  0.00  0.00     0.163 HD
BRANCH  16  19
ATOM     19  C4  non d ame      -5.694  16.595  70.252  0.00  0.00     0.154 A 
ATOM     20  C1  non d ame      -6.146  17.718  69.489  0.00  0.00    -0.017 A 
ATOM     21  C2  non d ame      -5.577  18.843  70.126  0.00  0.00     0.077 A 
ATOM     22  H1  non d ame      -6.788  17.717  68.608  0.00  0.00     0.091 H 
ATOM     23  O1  non d ame      -4.883  18.407  71.136  0.00  0.00    -0.218 OA
ATOM     24  N1  non d ame      -4.935  17.098  71.230  0.00  0.00    -0.123 NA
BRANCH  21  25
ATOM     25  C3  non d ame      -5.746  20.298  69.708  0.00  0.00    -0.029 C 
ATOM     26  H2  non d ame      -6.764  20.623  69.925  0.00  0.00     0.036 H 
ATOM     27  H3  non d ame      -5.041  20.919  70.259  0.00  0.00     0.036 H 
ATOM     28  H4  non d ame      -5.555  20.394  68.638  0.00  0.00     0.036 H 
ENDBRANCH  21  25
ENDBRANCH  16  19
ENDBRANCH  13  15
BRANCH  13  29
ATOM     29  C8  non d ame      -8.094  13.126  67.764  0.00  0.00    -0.049 C 
ATOM     30  H7  non d ame      -8.309  12.070  67.602  0.00  0.00     0.030 H 
ATOM     31  H8  non d ame      -8.875  13.566  68.383  0.00  0.00     0.030 H 
ATOM     32  H9  non d ame      -8.059  13.640  66.803  0.00  0.00     0.030 H 
ENDBRANCH  13  29
ENDBRANCH  10  13
ENDBRANCH   7   9
BRANCH   7  33
ATOM     33  C11 non d ame      -4.525   9.211  66.653  0.00  0.00    -0.033 C 
ATOM     34  H12 non d ame      -5.448   8.683  66.414  0.00  0.00     0.042 H 
BRANCH  33  35
ATOM     35  C12 non d ame      -3.379   8.549  65.825  0.00  0.00    -0.071 C 
ATOM     36  H13 non d ame      -2.448   8.598  66.390  0.00  0.00     0.028 H 
ATOM     37  H14 non d ame      -3.629   7.507  65.628  0.00  0.00     0.028 H 
ATOM     38  H15 non d ame      -3.260   9.081  64.881  0.00  0.00     0.028 H 
ENDBRANCH  33  35
BRANCH  33  39
ATOM     39  C13 non d ame      -4.270   9.068  68.188  0.00  0.00    -0.071 C 
ATOM     40  H16 non d ame      -4.660   8.111  68.534  0.00  0.00     0.028 H 
ATOM     41  H17 non d ame      -3.198   9.115  68.384  0.00  0.00     0.028 H 
ATOM     42  H18 non d ame      -4.772   9.878  68.716  0.00  0.00     0.028 H 
ENDBRANCH  33  39
ENDBRANCH   7  33
ENDBRANCH   4   7
ENDBRANCH   1   3
BRANCH   1  43
ATOM     43  C15 non d ame      -8.326  10.657  62.900  0.00  0.00     0.240 C 
ATOM     44  O5  non d ame      -8.933  10.530  61.886  0.00  0.00    -0.271 OA
ATOM     45  N6  non d ame      -9.010  11.194  64.111  0.00  0.00    -0.355 N 
ATOM     46  H46 non d ame      -8.506  11.302  64.979  0.00  0.00     0.162 HD
BRANCH  45  47
ATOM     47  C20 non d ame     -10.438  11.572  64.039  0.00  0.00     0.013 C 
ATOM     48  H30 non d ame     -10.836  11.202  63.094  0.00  0.00     0.072 H 
BRANCH  47  49
ATOM     49  C21 non d ame     -10.559  13.079  64.096  0.00  0.00    -0.038 C 
ATOM     50  H31 non d ame      -9.637  13.431  64.558  0.00  0.00     0.036 H 
ATOM     51  H32 non d ame     -10.816  13.391  63.083  0.00  0.00     0.036 H 
BRANCH  49  52
ATOM     52  C22 non d ame     -11.713  13.553  65.006  0.00  0.00     0.018 C 
ATOM     53  H33 non d ame     -12.396  14.099  64.355  0.00  0.00     0.048 H 
ATOM     54  H34 non d ame     -12.057  12.664  65.534  0.00  0.00     0.048 H 
BRANCH  52  55
ATOM     55  C23 non d ame     -11.271  14.560  66.104  0.00  0.00     0.259 C 
ATOM     56  O7  non d ame     -11.349  14.271  67.254  0.00  0.00    -0.265 OA
BRANCH  55  57
ATOM     57  O8  non d ame     -10.782  15.839  65.720  0.00  0.00    -0.317 OA
BRANCH  57  58
ATOM     58  C29 non d ame      -9.437  16.097  66.134  0.00  0.00     0.052 C 
ATOM     59  H47 non d ame      -9.270  15.465  67.006  0.00  0.00     0.082 H 
ATOM     60  H48 non d ame      -8.824  15.967  65.242  0.00  0.00     0.082 H 
BRANCH  58  61
ATOM     61  C35 non d ame      -9.348  17.581  66.578  0.00  0.00    -0.034 A 
ATOM     62  C30 non d ame      -8.164  18.290  66.406  0.00  0.00    -0.075 A 
ATOM     63  C31 non d ame      -8.084  19.623  66.806  0.00  0.00    -0.082 A 
ATOM     64  H49 non d ame      -7.298  17.802  65.958  0.00  0.00     0.084 H 
ATOM     65  C32 non d ame      -9.194  20.247  67.382  0.00  0.00    -0.083 A 
ATOM     66  H50 non d ame      -7.155  20.177  66.667  0.00  0.00     0.083 H 
ATOM     67  C33 non d ame     -10.373  19.534  67.554  0.00  0.00    -0.082 A 
ATOM     68  H51 non d ame      -9.141  21.289  67.696  0.00  0.00     0.083 H 
ATOM     69  C34 non d ame     -10.458  18.202  67.154  0.00  0.00    -0.075 A 
ATOM     70  H52 non d ame     -11.237  20.023  68.006  0.00  0.00     0.083 H 
ATOM     71  H53 non d ame     -11.388  17.650  67.292  0.00  0.00     0.084 H 
ENDBRANCH  58  61
ENDBRANCH  57  58
ENDBRANCH  55  57
ENDBRANCH  52  55
ENDBRANCH  49  52
ENDBRANCH  47  49
BRANCH  47  72
ATOM     72  C24 non d ame     -11.195  10.955  65.213  0.00  0.00    -0.039 C 
ATOM     73  H35 non d ame     -11.738  11.781  65.674  0.00  0.00     0.036 H 
ATOM     74  H36 non d ame     -11.743  10.111  64.793  0.00  0.00     0.036 H 
BRANCH  72  75
ATOM     75  C25 non d ame     -10.197  10.369  66.320  0.00  0.00    -0.001 C 
ATOM     76  C26 non d ame      -9.962   8.761  66.066  0.00  0.00    -0.035 C 
ATOM     77  C27 non d ame     -10.190   8.098  67.225  0.00  0.00     0.085 C 
ATOM     78  H38 non d ame     -10.729   8.372  65.396  0.00  0.00     0.036 H 
ATOM     79  H39 non d ame      -8.909   8.564  65.863  0.00  0.00     0.036 H 
ATOM     80  N5  non d ame     -10.874   9.066  68.160  0.00  0.00    -0.049 N 
ATOM     81  H40 non d ame     -10.885   7.297  66.972  0.00  0.00     0.075 H 
ATOM     82  H41 non d ame      -9.204   7.859  67.622  0.00  0.00     0.075 H 
ATOM     83  C28 non d ame     -10.672  10.530  67.510  0.00  0.00     0.193 C 
ATOM     84  H42 non d ame     -11.858   8.838  68.139  0.00  0.00     0.280 HD
ATOM     85  H43 non d ame     -10.366   9.029  69.033  0.00  0.00     0.280 HD
ATOM     86  H44 non d ame      -9.939  11.223  67.923  0.00  0.00     0.129 H 
ATOM     87  H37 non d ame      -9.307  10.986  66.443  0.00  0.00     0.046 H 
BRANCH  83  88
ATOM     88  O6  non d ame     -11.910  11.242  67.504  0.00  0.00    -0.369 OA
ATOM     89  H45 non d ame     -11.763  12.138  67.191  0.00  0.00     0.212 HD
ENDBRANCH  83  88
ENDBRANCH  72  75
ENDBRANCH  47  72
ENDBRANCH  45  47
ENDBRANCH   1  43
BRANCH   1  90
ATOM     90  C16 non d ame      -6.636   8.891  62.310  0.00  0.00    -0.035 C 
ATOM     91  H21 non d ame      -7.512   8.749  61.677  0.00  0.00     0.037 H 
ATOM     92  H22 non d ame      -5.641   8.918  61.865  0.00  0.00     0.037 H 
BRANCH  90  93
ATOM     93  C17 non d ame      -6.632   7.707  63.329  0.00  0.00    -0.059 C 
ATOM     94  H23 non d ame      -6.601   8.133  64.331  0.00  0.00     0.038 H 
BRANCH  93  95
ATOM     95  C18 non d ame      -7.923   6.833  63.222  0.00  0.00    -0.073 C 
ATOM     96  H24 non d ame      -7.995   6.412  62.220  0.00  0.00     0.028 H 
ATOM     97  H25 non d ame      -7.877   6.026  63.953  0.00  0.00     0.028 H 
ATOM     98  H26 non d ame      -8.798   7.453  63.421  0.00  0.00     0.028 H 
ENDBRANCH  93  95
BRANCH  93  99
ATOM     99  C19 non d ame      -5.377   6.846  63.161  0.00  0.00    -0.073 C 
ATOM    100  H27 non d ame      -5.666   5.803  63.032  0.00  0.00     0.028 H 
ATOM    101  H28 non d ame      -4.822   7.180  62.284  0.00  0.00     0.028 H 
ATOM    102  H29 non d ame      -4.749   6.943  64.046  0.00  0.00     0.028 H 
ENDBRANCH  93  99
ENDBRANCH  90  93
ENDBRANCH   1  90
TORSDOF 26
ENDMDL
MODEL 9
REMARK VINA RESULT:      -6.4      2.266      3.450
REMARK  26 active torsions:
REMARK  status: ('A' for Active; 'I' for Inactive)
REMARK    1  A    between atoms: C2_2  and  C3_3 
REMARK    2  A    between atoms: C4_6  and  C5_7 
REMARK       I    between atoms: C5_7  and  N2_9 
REMARK    3  A    between atoms: N2_9  and  C6_10 
REMARK    4  A    between atoms: C6_10  and  C7_11 
REMARK    5  A    between atoms: C6_10  and  C8_13 
REMARK       I    between atoms: C7_11  and  N3_14 
REMARK    6  A    between atoms: N3_14  and  C9_15 
REMARK    7  A    between atoms: C9_15  and  C10_16 
REMARK    8  A    between atoms: C9_15  and  C11_18 
REMARK       I    between atoms: C10_16  and  N4_21 
REMARK    9  A    between atoms: C11_18  and  C12_19 
REMARK   10  A    between atoms: C11_18  and  C13_20 
REMARK   11  A    between atoms: N4_21  and  C14_22 
REMARK   12  A    between atoms: C14_22  and  C15_23 
REMARK   13  A    between atoms: C14_22  and  C16_25 
REMARK       I    between atoms: C15_23  and  N6_40 
REMARK   14  A    between atoms: C16_25  and  C17_26 
REMARK   15  A    between atoms: C17_26  and  C18_27 
REMARK   16  A    between atoms: C17_26  and  C19_28 
REMARK   17  A    between atoms: C20_29  and  C21_30 
REMARK   18  A    between atoms: C20_29  and  C24_33 
REMARK   19  A    between atoms: C20_29  and  N6_40 
REMARK   20  A    between atoms: C21_30  and  C22_31 
REMARK   21  A    between atoms: C22_31  and  C23_32 
REMARK   22  A    between atoms: C23_32  and  O8_43 
REMARK   23  A    between atoms: C24_33  and  C25_34 
REMARK   24  A    between atoms: C28_38  and  O6_39 
REMARK   25  A    between atoms: C29_42  and  O8_43 
REMARK   26  A    between atoms: C29_42  and  C35_49 
ROOT
ATOM      1  C14 non d ame      -7.421   9.629  66.919  0.00  0.00     0.089 C 
ATOM      2  H20 non d ame      -7.241   9.226  65.922  0.00  0.00     0.087 H 
ENDROOT
BRANCH   1   3
ATOM      3  N4  non d ame      -8.478  10.623  66.805  0.00  0.00    -0.346 N 
ATOM      4  C10 non d ame      -9.687  10.354  65.945  0.00  0.00     0.241 C 
ATOM      5  O4  non d ame      -9.786   9.331  65.351  0.00  0.00    -0.271 OA
ATOM      6  H19 non d ame      -8.374  11.487  67.317  0.00  0.00     0.163 HD
BRANCH   4   7
ATOM      7  C9  non d ame     -10.775  11.391  65.844  0.00  0.00     0.092 C 
ATOM      8  H11 non d ame     -11.741  10.914  66.003  0.00  0.00     0.088 H 
BRANCH   7   9
ATOM      9  N3  non d ame     -10.602  12.386  66.906  0.00  0.00    -0.346 N 
ATOM     10  C7  non d ame     -11.427  12.329  68.088  0.00  0.00     0.240 C 
ATOM     11  O3  non d ame     -12.236  11.490  68.199  0.00  0.00    -0.271 OA
ATOM     12  H10 non d ame      -9.909  13.117  66.824  0.00  0.00     0.163 HD
BRANCH  10  13
ATOM     13  C6  non d ame     -11.241  13.393  69.214  0.00  0.00     0.086 C 
ATOM     14  H6  non d ame     -10.266  13.329  69.697  0.00  0.00     0.086 H 
BRANCH  13  15
ATOM     15  N2  non d ame     -11.329  14.720  68.628  0.00  0.00    -0.343 N 
ATOM     16  C5  non d ame     -10.112  15.381  68.153  0.00  0.00     0.273 C 
ATOM     17  O2  non d ame      -9.066  14.837  68.248  0.00  0.00    -0.266 OA
ATOM     18  H5  non d ame     -12.226  15.178  68.553  0.00  0.00     0.163 HD
BRANCH  16  19
ATOM     19  C4  non d ame     -10.190  16.783  67.530  0.00  0.00     0.154 A 
ATOM     20  C1  non d ame      -9.937  18.033  68.179  0.00  0.00    -0.017 A 
ATOM     21  C2  non d ame     -10.143  19.010  67.179  0.00  0.00     0.077 A 
ATOM     22  H1  non d ame      -9.648  18.205  69.216  0.00  0.00     0.091 H 
ATOM     23  O1  non d ame     -10.474  18.384  66.088  0.00  0.00    -0.218 OA
ATOM     24  N1  non d ame     -10.509  17.084  66.268  0.00  0.00    -0.123 NA
BRANCH  21  25
ATOM     25  C3  non d ame     -10.003  20.517  67.349  0.00  0.00    -0.029 C 
ATOM     26  H2  non d ame     -10.964  20.942  67.639  0.00  0.00     0.036 H 
ATOM     27  H3  non d ame      -9.264  20.728  68.122  0.00  0.00     0.036 H 
ATOM     28  H4  non d ame      -9.679  20.961  66.407  0.00  0.00     0.036 H 
ENDBRANCH  21  25
ENDBRANCH  16  19
ENDBRANCH  13  15
BRANCH  13  29
ATOM     29  C8  non d ame     -12.314  13.216  70.258  0.00  0.00    -0.049 C 
ATOM     30  H7  non d ame     -12.297  14.064  70.944  0.00  0.00     0.030 H 
ATOM     31  H8  non d ame     -13.288  13.161  69.772  0.00  0.00     0.030 H 
ATOM     32  H9  non d ame     -12.132  12.297  70.814  0.00  0.00     0.030 H 
ENDBRANCH  13  29
ENDBRANCH  10  13
ENDBRANCH   7   9
BRANCH   7  33
ATOM     33  C11 non d ame     -10.691  12.096  64.458  0.00  0.00    -0.033 C 
ATOM     34  H12 non d ame      -9.827  11.689  63.934  0.00  0.00     0.042 H 
BRANCH  33  35
ATOM     35  C12 non d ame     -11.952  11.794  63.590  0.00  0.00    -0.071 C 
ATOM     36  H13 non d ame     -11.641  11.388  62.627  0.00  0.00     0.028 H 
ATOM     37  H14 non d ame     -12.580  11.066  64.103  0.00  0.00     0.028 H 
ATOM     38  H15 non d ame     -12.514  12.714  63.432  0.00  0.00     0.028 H 
ENDBRANCH  33  35
BRANCH  33  39
ATOM     39  C13 non d ame     -10.475  13.634  64.626  0.00  0.00    -0.071 C 
ATOM     40  H16 non d ame      -9.412  13.862  64.548  0.00  0.00     0.028 H 
ATOM     41  H17 non d ame     -11.018  14.165  63.843  0.00  0.00     0.028 H 
ATOM     42  H18 non d ame     -10.844  13.949  65.602  0.00  0.00     0.028 H 
ENDBRANCH  33  39
ENDBRANCH   7  33
ENDBRANCH   4   7
ENDBRANCH   1   3
BRANCH   1  43
ATOM     43  C15 non d ame      -7.878   8.532  67.922  0.00  0.00     0.240 C 
ATOM     44  O5  non d ame      -7.661   8.665  69.083  0.00  0.00    -0.271 OA
ATOM     45  N6  non d ame      -8.595   7.318  67.437  0.00  0.00    -0.355 N 
ATOM     46  H46 non d ame      -8.790   7.196  66.454  0.00  0.00     0.162 HD
BRANCH  45  47
ATOM     47  C20 non d ame      -9.024   6.285  68.404  0.00  0.00     0.013 C 
ATOM     48  H30 non d ame      -8.409   6.386  69.298  0.00  0.00     0.072 H 
BRANCH  47  49
ATOM     49  C21 non d ame      -8.828   4.916  67.793  0.00  0.00    -0.038 C 
ATOM     50  H31 non d ame      -7.937   4.997  67.169  0.00  0.00     0.036 H 
ATOM     51  H32 non d ame      -8.847   4.216  68.628  0.00  0.00     0.036 H 
BRANCH  49  52
ATOM     52  C22 non d ame      -9.983   4.507  66.854  0.00  0.00     0.018 C 
ATOM     53  H33 non d ame     -10.161   3.449  67.048  0.00  0.00     0.048 H 
ATOM     54  H34 non d ame     -10.777   5.234  67.029  0.00  0.00     0.048 H 
BRANCH  52  55
ATOM     55  C23 non d ame      -9.631   4.613  65.344  0.00  0.00     0.259 C 
ATOM     56  O7  non d ame     -10.187   3.931  64.546  0.00  0.00    -0.265 OA
BRANCH  55  57
ATOM     57  O8  non d ame      -8.624   5.526  64.926  0.00  0.00    -0.317 OA
BRANCH  57  58
ATOM     58  C29 non d ame      -8.259   5.400  63.549  0.00  0.00     0.052 C 
ATOM     59  H47 non d ame      -7.658   4.494  63.485  0.00  0.00     0.082 H 
ATOM     60  H48 non d ame      -9.191   5.477  62.989  0.00  0.00     0.082 H 
BRANCH  58  61
ATOM     61  C35 non d ame      -7.363   6.612  63.178  0.00  0.00    -0.034 A 
ATOM     62  C30 non d ame      -7.943   7.815  62.789  0.00  0.00    -0.075 A 
ATOM     63  C31 non d ame      -7.138   8.903  62.456  0.00  0.00    -0.082 A 
ATOM     64  H49 non d ame      -9.028   7.905  62.746  0.00  0.00     0.084 H 
ATOM     65  C32 non d ame      -5.746   8.784  62.510  0.00  0.00    -0.083 A 
ATOM     66  H50 non d ame      -7.596   9.845  62.154  0.00  0.00     0.083 H 
ATOM     67  C33 non d ame      -5.172   7.581  62.896  0.00  0.00    -0.082 A 
ATOM     68  H51 non d ame      -5.110   9.630  62.252  0.00  0.00     0.083 H 
ATOM     69  C34 non d ame      -5.973   6.491  63.232  0.00  0.00    -0.075 A 
ATOM     70  H52 non d ame      -4.086   7.490  62.935  0.00  0.00     0.083 H 
ATOM     71  H53 non d ame      -5.514   5.550  63.535  0.00  0.00     0.084 H 
ENDBRANCH  58  61
ENDBRANCH  57  58
ENDBRANCH  55  57
ENDBRANCH  52  55
ENDBRANCH  49  52
ENDBRANCH  47  49
BRANCH  47  72
ATOM     72  C24 non d ame     -10.499   6.482  68.750  0.00  0.00    -0.039 C 
ATOM     73  H35 non d ame     -10.893   7.140  67.975  0.00  0.00     0.036 H 
ATOM     74  H36 non d ame     -10.905   5.478  68.871  0.00  0.00     0.036 H 
BRANCH  72  75
ATOM     75  C25 non d ame     -10.683   7.238  70.150  0.00  0.00    -0.001 C 
ATOM     76  C26 non d ame     -11.757   6.422  71.091  0.00  0.00    -0.035 C 
ATOM     77  C27 non d ame     -12.700   7.290  71.531  0.00  0.00     0.085 C 
ATOM     78  H38 non d ame     -12.323   5.716  70.485  0.00  0.00     0.036 H 
ATOM     79  H39 non d ame     -11.271   6.087  72.008  0.00  0.00     0.036 H 
ATOM     80  N5  non d ame     -12.554   8.551  70.714  0.00  0.00    -0.049 N 
ATOM     81  H40 non d ame     -13.657   6.823  71.297  0.00  0.00     0.075 H 
ATOM     82  H41 non d ame     -12.437   7.505  72.566  0.00  0.00     0.075 H 
ATOM     83  C28 non d ame     -11.121   8.441  69.978  0.00  0.00     0.193 C 
ATOM     84  H42 non d ame     -13.280   8.522  70.011  0.00  0.00     0.280 HD
ATOM     85  H43 non d ame     -12.519   9.316  71.372  0.00  0.00     0.280 HD
ATOM     86  H44 non d ame     -10.269   9.016  70.338  0.00  0.00     0.129 H 
ATOM     87  H37 non d ame      -9.728   7.505  70.604  0.00  0.00     0.046 H 
BRANCH  83  88
ATOM     88  O6  non d ame     -11.251   8.774  68.595  0.00  0.00    -0.369 OA
ATOM     89  H45 non d ame     -10.914   9.661  68.447  0.00  0.00     0.212 HD
ENDBRANCH  83  88
ENDBRANCH  72  75
ENDBRANCH  47  72
ENDBRANCH  45  47
ENDBRANCH   1  43
BRANCH   1  90
ATOM     90  C16 non d ame      -6.161  10.303  67.437  0.00  0.00    -0.035 C 
ATOM     91  H21 non d ame      -5.869   9.731  68.318  0.00  0.00     0.037 H 
ATOM     92  H22 non d ame      -5.490  10.359  66.579  0.00  0.00     0.037 H 
BRANCH  90  93
ATOM     93  C17 non d ame      -6.387  11.771  67.917  0.00  0.00    -0.059 C 
ATOM     94  H23 non d ame      -7.364  12.091  67.555  0.00  0.00     0.038 H 
BRANCH  93  95
ATOM     95  C18 non d ame      -6.396  11.887  69.476  0.00  0.00    -0.073 C 
ATOM     96  H24 non d ame      -5.503  12.418  69.805  0.00  0.00     0.028 H 
ATOM     97  H25 non d ame      -7.283  12.434  69.794  0.00  0.00     0.028 H 
ATOM     98  H26 non d ame      -6.408  10.888  69.913  0.00  0.00     0.028 H 
ENDBRANCH  93  95
BRANCH  93  99
ATOM     99  C19 non d ame      -5.346  12.713  67.307  0.00  0.00    -0.073 C 
ATOM    100  H27 non d ame      -5.702  13.071  66.341  0.00  0.00     0.028 H 
ATOM    101  H28 non d ame      -5.189  13.562  67.974  0.00  0.00     0.028 H 
ATOM    102  H29 non d ame      -4.406  12.178  67.173  0.00  0.00     0.028 H 
ENDBRANCH  93  99
ENDBRANCH  90  93
ENDBRANCH   1  90
TORSDOF 26
ENDMDL
MODEL 10
REMARK VINA RESULT:      -6.4      2.690      7.351
REMARK  26 active torsions:
REMARK  status: ('A' for Active; 'I' for Inactive)
REMARK    1  A    between atoms: C2_2  and  C3_3 
REMARK    2  A    between atoms: C4_6  and  C5_7 
REMARK       I    between atoms: C5_7  and  N2_9 
REMARK    3  A    between atoms: N2_9  and  C6_10 
REMARK    4  A    between atoms: C6_10  and  C7_11 
REMARK    5  A    between atoms: C6_10  and  C8_13 
REMARK       I    between atoms: C7_11  and  N3_14 
REMARK    6  A    between atoms: N3_14  and  C9_15 
REMARK    7  A    between atoms: C9_15  and  C10_16 
REMARK    8  A    between atoms: C9_15  and  C11_18 
REMARK       I    between atoms: C10_16  and  N4_21 
REMARK    9  A    between atoms: C11_18  and  C12_19 
REMARK   10  A    between atoms: C11_18  and  C13_20 
REMARK   11  A    between atoms: N4_21  and  C14_22 
REMARK   12  A    between atoms: C14_22  and  C15_23 
REMARK   13  A    between atoms: C14_22  and  C16_25 
REMARK       I    between atoms: C15_23  and  N6_40 
REMARK   14  A    between atoms: C16_25  and  C17_26 
REMARK   15  A    between atoms: C17_26  and  C18_27 
REMARK   16  A    between atoms: C17_26  and  C19_28 
REMARK   17  A    between atoms: C20_29  and  C21_30 
REMARK   18  A    between atoms: C20_29  and  C24_33 
REMARK   19  A    between atoms: C20_29  and  N6_40 
REMARK   20  A    between atoms: C21_30  and  C22_31 
REMARK   21  A    between atoms: C22_31  and  C23_32 
REMARK   22  A    between atoms: C23_32  and  O8_43 
REMARK   23  A    between atoms: C24_33  and  C25_34 
REMARK   24  A    between atoms: C28_38  and  O6_39 
REMARK   25  A    between atoms: C29_42  and  O8_43 
REMARK   26  A    between atoms: C29_42  and  C35_49 
ROOT
ATOM      1  C14 non d ame      -7.531  12.074  67.927  0.00  0.00     0.089 C 
ATOM      2  H20 non d ame      -6.793  11.772  68.671  0.00  0.00     0.087 H 
ENDROOT
BRANCH   1   3
ATOM      3  N4  non d ame      -6.991  11.748  66.616  0.00  0.00    -0.346 N 
ATOM      4  C10 non d ame      -6.170  10.498  66.420  0.00  0.00     0.241 C 
ATOM      5  O4  non d ame      -5.954   9.772  67.334  0.00  0.00    -0.271 OA
ATOM      6  H19 non d ame      -7.183  12.380  65.852  0.00  0.00     0.163 HD
BRANCH   4   7
ATOM      7  C9  non d ame      -5.623  10.172  65.055  0.00  0.00     0.092 C 
ATOM      8  H11 non d ame      -5.554   9.090  64.945  0.00  0.00     0.088 H 
BRANCH   7   9
ATOM      9  N3  non d ame      -6.553  10.654  64.029  0.00  0.00    -0.346 N 
ATOM     10  C7  non d ame      -7.602   9.791  63.545  0.00  0.00     0.240 C 
ATOM     11  O3  non d ame      -7.712   8.706  63.970  0.00  0.00    -0.271 OA
ATOM     12  H10 non d ame      -6.469  11.587  63.651  0.00  0.00     0.163 HD
BRANCH  10  13
ATOM     13  C6  non d ame      -8.586  10.308  62.450  0.00  0.00     0.086 C 
ATOM     14  H6  non d ame      -9.444   9.650  62.310  0.00  0.00     0.086 H 
BRANCH  13  15
ATOM     15  N2  non d ame      -9.114  11.598  62.862  0.00  0.00    -0.343 N 
ATOM     16  C5  non d ame     -10.198  11.653  63.846  0.00  0.00     0.273 C 
ATOM     17  O2  non d ame     -10.641  10.654  64.297  0.00  0.00    -0.266 OA
ATOM     18  H5  non d ame      -8.732  12.446  62.470  0.00  0.00     0.163 HD
BRANCH  16  19
ATOM     19  C4  non d ame     -10.765  13.010  64.291  0.00  0.00     0.154 A 
ATOM     20  C1  non d ame     -10.107  14.004  65.083  0.00  0.00    -0.017 A 
ATOM     21  C2  non d ame     -11.047  15.051  65.208  0.00  0.00     0.077 A 
ATOM     22  H1  non d ame      -9.101  13.971  65.502  0.00  0.00     0.091 H 
ATOM     23  O1  non d ame     -12.116  14.691  64.560  0.00  0.00    -0.218 OA
ATOM     24  N1  non d ame     -11.976  13.503  64.016  0.00  0.00    -0.123 NA
BRANCH  21  25
ATOM     25  C3  non d ame     -10.846  16.358  65.962  0.00  0.00    -0.029 C 
ATOM     26  H2  non d ame     -10.941  16.179  67.033  0.00  0.00     0.036 H 
ATOM     27  H3  non d ame      -9.853  16.753  65.746  0.00  0.00     0.036 H 
ATOM     28  H4  non d ame     -11.600  17.080  65.646  0.00  0.00     0.036 H 
ENDBRANCH  21  25
ENDBRANCH  16  19
ENDBRANCH  13  15
BRANCH  13  29
ATOM     29  C8  non d ame      -7.857  10.443  61.138  0.00  0.00    -0.049 C 
ATOM     30  H7  non d ame      -7.560   9.456  60.784  0.00  0.00     0.030 H 
ATOM     31  H8  non d ame      -8.513  10.911  60.404  0.00  0.00     0.030 H 
ATOM     32  H9  non d ame      -6.970  11.060  61.279  0.00  0.00     0.030 H 
ENDBRANCH  13  29
ENDBRANCH  10  13
ENDBRANCH   7   9
BRANCH   7  33
ATOM     33  C11 non d ame      -4.243  10.869  64.869  0.00  0.00    -0.033 C 
ATOM     34  H12 non d ame      -4.275  11.812  65.414  0.00  0.00     0.042 H 
BRANCH  33  35
ATOM     35  C12 non d ame      -3.088  10.014  65.478  0.00  0.00    -0.071 C 
ATOM     36  H13 non d ame      -3.477   9.040  65.779  0.00  0.00     0.028 H 
ATOM     37  H14 non d ame      -2.305   9.878  64.733  0.00  0.00     0.028 H 
ATOM     38  H15 non d ame      -2.678  10.526  66.348  0.00  0.00     0.028 H 
ENDBRANCH  33  35
BRANCH  33  39
ATOM     39  C13 non d ame      -3.977  11.189  63.363  0.00  0.00    -0.071 C 
ATOM     40  H16 non d ame      -4.346  12.188  63.133  0.00  0.00     0.028 H 
ATOM     41  H17 non d ame      -2.905  11.144  63.166  0.00  0.00     0.028 H 
ATOM     42  H18 non d ame      -4.492  10.459  62.740  0.00  0.00     0.028 H 
ENDBRANCH  33  39
ENDBRANCH   7  33
ENDBRANCH   4   7
ENDBRANCH   1   3
BRANCH   1  43
ATOM     43  C15 non d ame      -8.884  11.328  68.106  0.00  0.00     0.240 C 
ATOM     44  O5  non d ame      -9.901  11.871  67.817  0.00  0.00    -0.271 OA
ATOM     45  N6  non d ame      -8.911   9.932  68.629  0.00  0.00    -0.355 N 
ATOM     46  H46 non d ame      -8.053   9.459  68.873  0.00  0.00     0.162 HD
BRANCH  45  47
ATOM     47  C20 non d ame     -10.206   9.236  68.791  0.00  0.00     0.013 C 
ATOM     48  H30 non d ame     -10.986   9.992  68.872  0.00  0.00     0.072 H 
BRANCH  47  49
ATOM     49  C21 non d ame     -10.167   8.397  70.049  0.00  0.00    -0.038 C 
ATOM     50  H31 non d ame     -10.828   7.551  69.859  0.00  0.00     0.036 H 
ATOM     51  H32 non d ame      -9.111   8.228  70.257  0.00  0.00     0.036 H 
BRANCH  49  52
ATOM     52  C22 non d ame     -10.743   9.134  71.278  0.00  0.00     0.018 C 
ATOM     53  H33 non d ame     -10.562   8.475  72.128  0.00  0.00     0.048 H 
ATOM     54  H34 non d ame     -10.303  10.131  71.257  0.00  0.00     0.048 H 
BRANCH  52  55
ATOM     55  C23 non d ame     -12.281   9.344  71.218  0.00  0.00     0.259 C 
ATOM     56  O7  non d ame     -13.022   8.469  71.531  0.00  0.00    -0.265 OA
BRANCH  55  57
ATOM     57  O8  non d ame     -12.797  10.592  70.773  0.00  0.00    -0.317 OA
BRANCH  57  58
ATOM     58  C29 non d ame     -13.107  11.505  71.830  0.00  0.00     0.052 C 
ATOM     59  H47 non d ame     -14.176  11.395  72.011  0.00  0.00     0.082 H 
ATOM     60  H48 non d ame     -12.395  11.288  72.625  0.00  0.00     0.082 H 
BRANCH  58  61
ATOM     61  C35 non d ame     -12.842  12.944  71.313  0.00  0.00    -0.034 A 
ATOM     62  C30 non d ame     -13.465  14.029  71.922  0.00  0.00    -0.075 A 
ATOM     63  C31 non d ame     -13.227  15.322  71.458  0.00  0.00    -0.082 A 
ATOM     64  H49 non d ame     -14.138  13.866  72.764  0.00  0.00     0.084 H 
ATOM     65  C32 non d ame     -12.365  15.528  70.377  0.00  0.00    -0.083 A 
ATOM     66  H50 non d ame     -13.714  16.170  71.939  0.00  0.00     0.083 H 
ATOM     67  C33 non d ame     -11.749  14.442  69.770  0.00  0.00    -0.082 A 
ATOM     68  H51 non d ame     -12.173  16.535  70.008  0.00  0.00     0.083 H 
ATOM     69  C34 non d ame     -11.982  13.148  70.232  0.00  0.00    -0.075 A 
ATOM     70  H52 non d ame     -11.079  14.606  68.926  0.00  0.00     0.083 H 
ATOM     71  H53 non d ame     -11.493  12.301  69.751  0.00  0.00     0.084 H 
ENDBRANCH  58  61
ENDBRANCH  57  58
ENDBRANCH  55  57
ENDBRANCH  52  55
ENDBRANCH  49  52
ENDBRANCH  47  49
BRANCH  47  72
ATOM     72  C24 non d ame     -10.462   8.335  67.585  0.00  0.00    -0.039 C 
ATOM     73  H35 non d ame     -11.535   8.137  67.594  0.00  0.00     0.036 H 
ATOM     74  H36 non d ame     -10.010   8.849  66.737  0.00  0.00     0.036 H 
BRANCH  72  75
ATOM     75  C25 non d ame      -9.720   6.923  67.731  0.00  0.00    -0.001 C 
ATOM     76  C26 non d ame      -8.219   7.008  67.066  0.00  0.00    -0.035 C 
ATOM     77  C27 non d ame      -8.065   5.975  66.203  0.00  0.00     0.085 C 
ATOM     78  H38 non d ame      -8.142   7.887  66.428  0.00  0.00     0.036 H 
ATOM     79  H39 non d ame      -7.461   6.818  67.827  0.00  0.00     0.036 H 
ATOM     80  N5  non d ame      -9.435   5.385  65.972  0.00  0.00    -0.049 N 
ATOM     81  H40 non d ame      -7.710   6.423  65.274  0.00  0.00     0.075 H 
ATOM     82  H41 non d ame      -7.448   5.247  66.727  0.00  0.00     0.075 H 
ATOM     83  C28 non d ame     -10.379   5.985  67.137  0.00  0.00     0.193 C 
ATOM     84  H42 non d ame      -9.755   5.742  65.083  0.00  0.00     0.280 HD
ATOM     85  H43 non d ame      -9.345   4.389  66.113  0.00  0.00     0.280 HD
ATOM     86  H44 non d ame     -10.663   5.370  67.991  0.00  0.00     0.129 H 
ATOM     87  H37 non d ame      -9.793   6.521  68.742  0.00  0.00     0.046 H 
BRANCH  83  88
ATOM     88  O6  non d ame     -11.607   6.457  66.581  0.00  0.00    -0.369 OA
ATOM     89  H45 non d ame     -12.155   6.822  67.279  0.00  0.00     0.212 HD
ENDBRANCH  83  88
ENDBRANCH  72  75
ENDBRANCH  47  72
ENDBRANCH  45  47
ENDBRANCH   1  43
BRANCH   1  90
ATOM     90  C16 non d ame      -7.760  13.575  68.009  0.00  0.00    -0.035 C 
ATOM     91  H21 non d ame      -8.476  13.801  67.219  0.00  0.00     0.037 H 
ATOM     92  H22 non d ame      -8.018  13.771  69.050  0.00  0.00     0.037 H 
BRANCH  90  93
ATOM     93  C17 non d ame      -6.484  14.422  67.704  0.00  0.00    -0.059 C 
ATOM     94  H23 non d ame      -6.024  14.013  66.804  0.00  0.00     0.038 H 
BRANCH  93  95
ATOM     95  C18 non d ame      -6.823  15.921  67.427  0.00  0.00    -0.073 C 
ATOM     96  H24 non d ame      -7.405  15.998  66.508  0.00  0.00     0.028 H 
ATOM     97  H25 non d ame      -7.403  16.322  68.259  0.00  0.00     0.028 H 
ATOM     98  H26 non d ame      -5.899  16.489  67.321  0.00  0.00     0.028 H 
ENDBRANCH  93  95
BRANCH  93  99
ATOM     99  C19 non d ame      -5.460  14.295  68.835  0.00  0.00    -0.073 C 
ATOM    100  H27 non d ame      -4.478  14.079  68.414  0.00  0.00     0.028 H 
ATOM    101  H28 non d ame      -5.418  15.231  69.393  0.00  0.00     0.028 H 
ATOM    102  H29 non d ame      -5.755  13.486  69.503  0.00  0.00     0.028 H 
ENDBRANCH  93  99
ENDBRANCH  90  93
ENDBRANCH   1  90
TORSDOF 26
ENDMDL
MODEL 11
REMARK VINA RESULT:      -6.4      2.963      9.884
REMARK  26 active torsions:
REMARK  status: ('A' for Active; 'I' for Inactive)
REMARK    1  A    between atoms: C2_2  and  C3_3 
REMARK    2  A    between atoms: C4_6  and  C5_7 
REMARK       I    between atoms: C5_7  and  N2_9 
REMARK    3  A    between atoms: N2_9  and  C6_10 
REMARK    4  A    between atoms: C6_10  and  C7_11 
REMARK    5  A    between atoms: C6_10  and  C8_13 
REMARK       I    between atoms: C7_11  and  N3_14 
REMARK    6  A    between atoms: N3_14  and  C9_15 
REMARK    7  A    between atoms: C9_15  and  C10_16 
REMARK    8  A    between atoms: C9_15  and  C11_18 
REMARK       I    between atoms: C10_16  and  N4_21 
REMARK    9  A    between atoms: C11_18  and  C12_19 
REMARK   10  A    between atoms: C11_18  and  C13_20 
REMARK   11  A    between atoms: N4_21  and  C14_22 
REMARK   12  A    between atoms: C14_22  and  C15_23 
REMARK   13  A    between atoms: C14_22  and  C16_25 
REMARK       I    between atoms: C15_23  and  N6_40 
REMARK   14  A    between atoms: C16_25  and  C17_26 
REMARK   15  A    between atoms: C17_26  and  C18_27 
REMARK   16  A    between atoms: C17_26  and  C19_28 
REMARK   17  A    between atoms: C20_29  and  C21_30 
REMARK   18  A    between atoms: C20_29  and  C24_33 
REMARK   19  A    between atoms: C20_29  and  N6_40 
REMARK   20  A    between atoms: C21_30  and  C22_31 
REMARK   21  A    between atoms: C22_31  and  C23_32 
REMARK   22  A    between atoms: C23_32  and  O8_43 
REMARK   23  A    between atoms: C24_33  and  C25_34 
REMARK   24  A    between atoms: C28_38  and  O6_39 
REMARK   25  A    between atoms: C29_42  and  O8_43 
REMARK   26  A    between atoms: C29_42  and  C35_49 
ROOT
ATOM      1  C14 non d ame     -11.627   7.827  70.615  0.00  0.00     0.089 C 
ATOM      2  H20 non d ame     -12.559   7.605  70.095  0.00  0.00     0.087 H 
ENDROOT
BRANCH   1   3
ATOM      3  N4  non d ame     -10.791   6.638  70.541  0.00  0.00    -0.346 N 
ATOM      4  C10 non d ame     -10.656   5.881  69.244  0.00  0.00     0.241 C 
ATOM      5  O4  non d ame     -11.233   6.245  68.274  0.00  0.00    -0.271 OA
ATOM      6  H19 non d ame     -10.310   6.343  71.379  0.00  0.00     0.163 HD
BRANCH   4   7
ATOM      7  C9  non d ame      -9.782   4.656  69.185  0.00  0.00     0.092 C 
ATOM      8  H11 non d ame     -10.359   3.822  68.785  0.00  0.00     0.088 H 
BRANCH   7   9
ATOM      9  N3  non d ame      -8.668   4.894  68.262  0.00  0.00    -0.346 N 
ATOM     10  C7  non d ame      -8.737   4.402  66.908  0.00  0.00     0.240 C 
ATOM     11  O3  non d ame      -9.680   3.811  66.545  0.00  0.00    -0.271 OA
ATOM     12  H10 non d ame      -7.847   5.401  68.561  0.00  0.00     0.163 HD
BRANCH  10  13
ATOM     13  C6  non d ame      -7.547   4.656  65.931  0.00  0.00     0.086 C 
ATOM     14  H6  non d ame      -7.586   4.022  65.045  0.00  0.00     0.086 H 
BRANCH  13  15
ATOM     15  N2  non d ame      -7.607   6.030  65.462  0.00  0.00    -0.343 N 
ATOM     16  C5  non d ame      -7.162   6.349  64.104  0.00  0.00     0.273 C 
ATOM     17  O2  non d ame      -6.754   5.494  63.398  0.00  0.00    -0.266 OA
ATOM     18  H5  non d ame      -7.955   6.756  66.073  0.00  0.00     0.163 HD
BRANCH  16  19
ATOM     19  C4  non d ame      -7.222   7.798  63.594  0.00  0.00     0.154 A 
ATOM     20  C1  non d ame      -7.856   8.269  62.402  0.00  0.00    -0.017 A 
ATOM     21  C2  non d ame      -7.626   9.663  62.394  0.00  0.00     0.077 A 
ATOM     22  H1  non d ame      -8.401   7.689  61.656  0.00  0.00     0.091 H 
ATOM     23  O1  non d ame      -6.939   9.948  63.461  0.00  0.00    -0.218 OA
ATOM     24  N1  non d ame      -6.691   8.876  64.178  0.00  0.00    -0.123 NA
BRANCH  21  25
ATOM     25  C3  non d ame      -8.095  10.649  61.332  0.00  0.00    -0.029 C 
ATOM     26  H2  non d ame      -8.175  11.644  61.769  0.00  0.00     0.036 H 
ATOM     27  H3  non d ame      -7.376  10.669  60.512  0.00  0.00     0.036 H 
ATOM     28  H4  non d ame      -9.069  10.339  60.953  0.00  0.00     0.036 H 
ENDBRANCH  21  25
ENDBRANCH  16  19
ENDBRANCH  13  15
BRANCH  13  29
ATOM     29  C8  non d ame      -6.243   4.412  66.648  0.00  0.00    -0.049 C 
ATOM     30  H7  non d ame      -6.434   3.870  67.575  0.00  0.00     0.030 H 
ATOM     31  H8  non d ame      -5.584   3.822  66.011  0.00  0.00     0.030 H 
ATOM     32  H9  non d ame      -5.771   5.366  66.877  0.00  0.00     0.030 H 
ENDBRANCH  13  29
ENDBRANCH  10  13
ENDBRANCH   7   9
BRANCH   7  33
ATOM     33  C11 non d ame      -9.219   4.350  70.604  0.00  0.00    -0.033 C 
ATOM     34  H12 non d ame      -9.592   5.122  71.278  0.00  0.00     0.042 H 
BRANCH  33  35
ATOM     35  C12 non d ame      -9.732   2.975  71.135  0.00  0.00    -0.071 C 
ATOM     36  H13 non d ame     -10.597   2.660  70.552  0.00  0.00     0.028 H 
ATOM     37  H14 non d ame      -8.941   2.232  71.041  0.00  0.00     0.028 H 
ATOM     38  H15 non d ame     -10.016   3.074  72.182  0.00  0.00     0.028 H 
ENDBRANCH  33  35
BRANCH  33  39
ATOM     39  C13 non d ame      -7.658   4.415  70.613  0.00  0.00    -0.071 C 
ATOM     40  H16 non d ame      -7.338   5.454  70.683  0.00  0.00     0.028 H 
ATOM     41  H17 non d ame      -7.276   3.858  71.469  0.00  0.00     0.028 H 
ATOM     42  H18 non d ame      -7.272   3.976  69.693  0.00  0.00     0.028 H 
ENDBRANCH  33  39
ENDBRANCH   7  33
ENDBRANCH   4   7
ENDBRANCH   1   3
BRANCH   1  43
ATOM     43  C15 non d ame     -10.860   9.013  69.965  0.00  0.00     0.240 C 
ATOM     44  O5  non d ame      -9.967   9.534  70.553  0.00  0.00    -0.271 OA
ATOM     45  N6  non d ame     -11.231   9.496  68.604  0.00  0.00    -0.355 N 
ATOM     46  H46 non d ame     -11.984   9.059  68.093  0.00  0.00     0.162 HD
BRANCH  45  47
ATOM     47  C20 non d ame     -10.491  10.624  67.999  0.00  0.00     0.013 C 
ATOM     48  H30 non d ame     -10.099  11.240  68.808  0.00  0.00     0.072 H 
BRANCH  47  49
ATOM     49  C21 non d ame     -11.434  11.437  67.141  0.00  0.00    -0.038 C 
ATOM     50  H31 non d ame     -10.973  11.477  66.153  0.00  0.00     0.036 H 
ATOM     51  H32 non d ame     -12.415  10.980  67.267  0.00  0.00     0.036 H 
BRANCH  49  52
ATOM     52  C22 non d ame     -11.569  12.899  67.619  0.00  0.00     0.018 C 
ATOM     53  H33 non d ame     -12.637  13.118  67.602  0.00  0.00     0.048 H 
ATOM     54  H34 non d ame     -11.016  12.956  68.557  0.00  0.00     0.048 H 
BRANCH  52  55
ATOM     55  C23 non d ame     -10.905  13.933  66.668  0.00  0.00     0.259 C 
ATOM     56  O7  non d ame     -10.234  13.571  65.756  0.00  0.00    -0.265 OA
BRANCH  55  57
ATOM     57  O8  non d ame     -11.097  15.322  66.906  0.00  0.00    -0.317 OA
BRANCH  57  58
ATOM     58  C29 non d ame     -10.177  15.885  67.846  0.00  0.00     0.052 C 
ATOM     59  H47 non d ame     -10.604  15.690  68.829  0.00  0.00     0.082 H 
ATOM     60  H48 non d ame      -9.201  15.475  67.585  0.00  0.00     0.082 H 
BRANCH  58  61
ATOM     61  C35 non d ame     -10.141  17.420  67.621  0.00  0.00    -0.034 A 
ATOM     62  C30 non d ame     -10.482  17.951  66.381  0.00  0.00    -0.075 A 
ATOM     63  C31 non d ame     -10.449  19.330  66.179  0.00  0.00    -0.082 A 
ATOM     64  H49 non d ame     -10.775  17.286  65.568  0.00  0.00     0.084 H 
ATOM     65  C32 non d ame     -10.071  20.179  67.222  0.00  0.00    -0.083 A 
ATOM     66  H50 non d ame     -10.720  19.743  65.207  0.00  0.00     0.083 H 
ATOM     67  C33 non d ame      -9.728  19.645  68.456  0.00  0.00    -0.082 A 
ATOM     68  H51 non d ame     -10.043  21.258  67.072  0.00  0.00     0.083 H 
ATOM     69  C34 non d ame      -9.761  18.267  68.663  0.00  0.00    -0.075 A 
ATOM     70  H52 non d ame      -9.431  20.310  69.268  0.00  0.00     0.083 H 
ATOM     71  H53 non d ame      -9.491  17.855  69.636  0.00  0.00     0.084 H 
ENDBRANCH  58  61
ENDBRANCH  57  58
ENDBRANCH  55  57
ENDBRANCH  52  55
ENDBRANCH  49  52
ENDBRANCH  47  49
BRANCH  47  72
ATOM     72  C24 non d ame      -9.349  10.090  67.137  0.00  0.00    -0.039 C 
ATOM     73  H35 non d ame      -9.253   9.037  67.403  0.00  0.00     0.036 H 
ATOM     74  H36 non d ame      -9.601  10.372  66.115  0.00  0.00     0.036 H 
BRANCH  72  75
ATOM     75  C25 non d ame      -7.956  10.796  67.494  0.00  0.00    -0.001 C 
ATOM     76  C26 non d ame      -8.155  11.812  68.772  0.00  0.00    -0.035 C 
ATOM     77  C27 non d ame      -7.650  13.026  68.447  0.00  0.00     0.085 C 
ATOM     78  H38 non d ame      -9.215  12.010  68.930  0.00  0.00     0.036 H 
ATOM     79  H39 non d ame      -7.530  11.491  69.606  0.00  0.00     0.036 H 
ATOM     80  N5  non d ame      -7.423  13.025  66.955  0.00  0.00    -0.049 N 
ATOM     81  H40 non d ame      -8.437  13.742  68.686  0.00  0.00     0.075 H 
ATOM     82  H41 non d ame      -6.687  13.086  68.953  0.00  0.00     0.075 H 
ATOM     83  C28 non d ame      -7.509  11.480  66.494  0.00  0.00     0.193 C 
ATOM     84  H42 non d ame      -8.199  13.526  66.547  0.00  0.00     0.280 HD
ATOM     85  H43 non d ame      -6.478  13.351  66.809  0.00  0.00     0.280 HD
ATOM     86  H44 non d ame      -6.604  10.920  66.260  0.00  0.00     0.129 H 
ATOM     87  H37 non d ame      -7.134  10.083  67.550  0.00  0.00     0.046 H 
BRANCH  83  88
ATOM     88  O6  non d ame      -8.343  11.356  65.340  0.00  0.00    -0.369 OA
ATOM     89  H45 non d ame      -7.949  10.733  64.726  0.00  0.00     0.212 HD
ENDBRANCH  83  88
ENDBRANCH  72  75
ENDBRANCH  47  72
ENDBRANCH  45  47
ENDBRANCH   1  43
BRANCH   1  90
ATOM     90  C16 non d ame     -11.914   8.142  72.074  0.00  0.00    -0.035 C 
ATOM     91  H21 non d ame     -11.972   7.174  72.573  0.00  0.00     0.037 H 
ATOM     92  H22 non d ame     -11.150   8.861  72.370  0.00  0.00     0.037 H 
BRANCH  90  93
ATOM     93  C17 non d ame     -13.291   8.841  72.305  0.00  0.00    -0.059 C 
ATOM     94  H23 non d ame     -13.490   8.835  73.377  0.00  0.00     0.038 H 
BRANCH  93  95
ATOM     95  C18 non d ame     -13.284  10.329  71.830  0.00  0.00    -0.073 C 
ATOM     96  H24 non d ame     -13.914  10.431  70.947  0.00  0.00     0.028 H 
ATOM     97  H25 non d ame     -13.668  10.967  72.627  0.00  0.00     0.028 H 
ATOM     98  H26 non d ame     -12.264  10.628  71.586  0.00  0.00     0.028 H 
ENDBRANCH  93  95
BRANCH  93  99
ATOM     99  C19 non d ame     -14.421   8.059  71.630  0.00  0.00    -0.073 C 
ATOM    100  H27 non d ame     -15.378   8.526  71.865  0.00  0.00     0.028 H 
ATOM    101  H28 non d ame     -14.271   8.064  70.550  0.00  0.00     0.028 H 
ATOM    102  H29 non d ame     -14.419   7.032  71.992  0.00  0.00     0.028 H 
ENDBRANCH  93  99
ENDBRANCH  90  93
ENDBRANCH   1  90
TORSDOF 26
ENDMDL
MODEL 12
REMARK VINA RESULT:      -6.4      2.264      5.585
REMARK  26 active torsions:
REMARK  status: ('A' for Active; 'I' for Inactive)
REMARK    1  A    between atoms: C2_2  and  C3_3 
REMARK    2  A    between atoms: C4_6  and  C5_7 
REMARK       I    between atoms: C5_7  and  N2_9 
REMARK    3  A    between atoms: N2_9  and  C6_10 
REMARK    4  A    between atoms: C6_10  and  C7_11 
REMARK    5  A    between atoms: C6_10  and  C8_13 
REMARK       I    between atoms: C7_11  and  N3_14 
REMARK    6  A    between atoms: N3_14  and  C9_15 
REMARK    7  A    between atoms: C9_15  and  C10_16 
REMARK    8  A    between atoms: C9_15  and  C11_18 
REMARK       I    between atoms: C10_16  and  N4_21 
REMARK    9  A    between atoms: C11_18  and  C12_19 
REMARK   10  A    between atoms: C11_18  and  C13_20 
REMARK   11  A    between atoms: N4_21  and  C14_22 
REMARK   12  A    between atoms: C14_22  and  C15_23 
REMARK   13  A    between atoms: C14_22  and  C16_25 
REMARK       I    between atoms: C15_23  and  N6_40 
REMARK   14  A    between atoms: C16_25  and  C17_26 
REMARK   15  A    between atoms: C17_26  and  C18_27 
REMARK   16  A    between atoms: C17_26  and  C19_28 
REMARK   17  A    between atoms: C20_29  and  C21_30 
REMARK   18  A    between atoms: C20_29  and  C24_33 
REMARK   19  A    between atoms: C20_29  and  N6_40 
REMARK   20  A    between atoms: C21_30  and  C22_31 
REMARK   21  A    between atoms: C22_31  and  C23_32 
REMARK   22  A    between atoms: C23_32  and  O8_43 
REMARK   23  A    between atoms: C24_33  and  C25_34 
REMARK   24  A    between atoms: C28_38  and  O6_39 
REMARK   25  A    between atoms: C29_42  and  O8_43 
REMARK   26  A    between atoms: C29_42  and  C35_49 
ROOT
ATOM      1  C14 non d ame      -9.500   9.719  69.345  0.00  0.00     0.089 C 
ATOM      2  H20 non d ame      -8.964   8.817  69.642  0.00  0.00     0.087 H 
ENDROOT
BRANCH   1   3
ATOM      3  N4  non d ame      -8.569  10.834  69.440  0.00  0.00    -0.346 N 
ATOM      4  C10 non d ame      -7.092  10.611  69.237  0.00  0.00     0.241 C 
ATOM      5  O4  non d ame      -6.675   9.525  69.001  0.00  0.00    -0.271 OA
ATOM      6  H19 non d ame      -8.944  11.750  69.644  0.00  0.00     0.163 HD
BRANCH   4   7
ATOM      7  C9  non d ame      -6.143  11.777  69.334  0.00  0.00     0.092 C 
ATOM      8  H11 non d ame      -5.555  11.838  68.417  0.00  0.00     0.088 H 
BRANCH   7   9
ATOM      9  N3  non d ame      -6.908  13.023  69.441  0.00  0.00    -0.346 N 
ATOM     10  C7  non d ame      -6.945  13.944  68.331  0.00  0.00     0.240 C 
ATOM     11  O3  non d ame      -6.363  13.699  67.346  0.00  0.00    -0.271 OA
ATOM     12  H10 non d ame      -7.414  13.249  70.285  0.00  0.00     0.163 HD
BRANCH  10  13
ATOM     13  C6  non d ame      -7.759  15.270  68.452  0.00  0.00     0.086 C 
ATOM     14  H6  non d ame      -8.208  15.576  67.508  0.00  0.00     0.086 H 
BRANCH  13  15
ATOM     15  N2  non d ame      -8.853  15.067  69.388  0.00  0.00    -0.343 N 
ATOM     16  C5  non d ame     -10.219  15.411  68.985  0.00  0.00     0.273 C 
ATOM     17  O2  non d ame     -10.426  15.852  67.908  0.00  0.00    -0.266 OA
ATOM     18  H5  non d ame      -8.666  14.692  70.307  0.00  0.00     0.163 HD
BRANCH  16  19
ATOM     19  C4  non d ame     -11.385  15.200  69.963  0.00  0.00     0.154 A 
ATOM     20  C1  non d ame     -11.663  15.948  71.151  0.00  0.00    -0.017 A 
ATOM     21  C2  non d ame     -12.833  15.363  71.684  0.00  0.00     0.077 A 
ATOM     22  H1  non d ame     -11.101  16.787  71.564  0.00  0.00     0.091 H 
ATOM     23  O1  non d ame     -13.180  14.395  70.887  0.00  0.00    -0.218 OA
ATOM     24  N1  non d ame     -12.350  14.280  69.876  0.00  0.00    -0.123 NA
BRANCH  21  25
ATOM     25  C3  non d ame     -13.556  15.789  72.955  0.00  0.00    -0.029 C 
ATOM     26  H2  non d ame     -14.011  14.916  73.424  0.00  0.00     0.036 H 
ATOM     27  H3  non d ame     -12.843  16.241  73.644  0.00  0.00     0.036 H 
ATOM     28  H4  non d ame     -14.332  16.514  72.707  0.00  0.00     0.036 H 
ENDBRANCH  21  25
ENDBRANCH  16  19
ENDBRANCH  13  15
BRANCH  13  29
ATOM     29  C8  non d ame      -6.857  16.373  68.944  0.00  0.00    -0.049 C 
ATOM     30  H7  non d ame      -6.266  16.757  68.112  0.00  0.00     0.030 H 
ATOM     31  H8  non d ame      -7.462  17.178  69.362  0.00  0.00     0.030 H 
ATOM     32  H9  non d ame      -6.190  15.982  69.712  0.00  0.00     0.030 H 
ENDBRANCH  13  29
ENDBRANCH  10  13
ENDBRANCH   7   9
BRANCH   7  33
ATOM     33  C11 non d ame      -5.246  11.613  70.595  0.00  0.00    -0.033 C 
ATOM     34  H12 non d ame      -5.678  10.820  71.205  0.00  0.00     0.042 H 
BRANCH  33  35
ATOM     35  C12 non d ame      -3.799  11.173  70.210  0.00  0.00    -0.071 C 
ATOM     36  H13 non d ame      -3.540  11.589  69.236  0.00  0.00     0.028 H 
ATOM     37  H14 non d ame      -3.097  11.540  70.958  0.00  0.00     0.028 H 
ATOM     38  H15 non d ame      -3.749  10.086  70.166  0.00  0.00     0.028 H 
ENDBRANCH  33  35
BRANCH  33  39
ATOM     39  C13 non d ame      -5.232  12.923  71.446  0.00  0.00    -0.071 C 
ATOM     40  H16 non d ame      -4.460  12.851  72.212  0.00  0.00     0.028 H 
ATOM     41  H17 non d ame      -5.023  13.775  70.798  0.00  0.00     0.028 H 
ATOM     42  H18 non d ame      -6.203  13.058  71.921  0.00  0.00     0.028 H 
ENDBRANCH  33  39
ENDBRANCH   7  33
ENDBRANCH   4   7
ENDBRANCH   1   3
BRANCH   1  43
ATOM     43  C15 non d ame     -10.026   9.636  67.884  0.00  0.00     0.240 C 
ATOM     44  O5  non d ame     -11.191   9.515  67.681  0.00  0.00    -0.271 OA
ATOM     45  N6  non d ame      -9.078   9.717  66.736  0.00  0.00    -0.355 N 
ATOM     46  H46 non d ame      -8.087   9.825  66.896  0.00  0.00     0.162 HD
BRANCH  45  47
ATOM     47  C20 non d ame      -9.594   9.638  65.352  0.00  0.00     0.013 C 
ATOM     48  H30 non d ame     -10.591   9.200  65.391  0.00  0.00     0.072 H 
BRANCH  47  49
ATOM     49  C21 non d ame      -8.678   8.764  64.526  0.00  0.00    -0.038 C 
ATOM     50  H31 non d ame      -9.312   7.979  64.114  0.00  0.00     0.036 H 
ATOM     51  H32 non d ame      -8.147   9.443  63.859  0.00  0.00     0.036 H 
BRANCH  49  52
ATOM     52  C22 non d ame      -7.600   8.055  65.375  0.00  0.00     0.018 C 
ATOM     53  H33 non d ame      -6.647   8.294  64.903  0.00  0.00     0.048 H 
ATOM     54  H34 non d ame      -7.789   8.358  66.405  0.00  0.00     0.048 H 
BRANCH  52  55
ATOM     55  C23 non d ame      -7.710   6.505  65.359  0.00  0.00     0.259 C 
ATOM     56  O7  non d ame      -6.742   5.830  65.500  0.00  0.00    -0.265 OA
BRANCH  55  57
ATOM     57  O8  non d ame      -8.981   5.898  65.159  0.00  0.00    -0.317 OA
BRANCH  57  58
ATOM     58  C29 non d ame      -9.137   4.641  65.824  0.00  0.00     0.052 C 
ATOM     59  H47 non d ame      -9.895   4.100  65.257  0.00  0.00     0.082 H 
ATOM     60  H48 non d ame      -8.132   4.231  65.919  0.00  0.00     0.082 H 
BRANCH  58  61
ATOM     61  C35 non d ame      -9.692   4.918  67.247  0.00  0.00    -0.034 A 
ATOM     62  C30 non d ame      -9.233   4.175  68.330  0.00  0.00    -0.075 A 
ATOM     63  C31 non d ame      -9.731   4.424  69.608  0.00  0.00    -0.082 A 
ATOM     64  H49 non d ame      -8.483   3.399  68.177  0.00  0.00     0.084 H 
ATOM     65  C32 non d ame     -10.694   5.418  69.801  0.00  0.00    -0.083 A 
ATOM     66  H50 non d ame      -9.368   3.842  70.455  0.00  0.00     0.083 H 
ATOM     67  C33 non d ame     -11.152   6.154  68.716  0.00  0.00    -0.082 A 
ATOM     68  H51 non d ame     -11.089   5.618  70.797  0.00  0.00     0.083 H 
ATOM     69  C34 non d ame     -10.655   5.911  67.437  0.00  0.00    -0.075 A 
ATOM     70  H52 non d ame     -11.905   6.927  68.869  0.00  0.00     0.083 H 
ATOM     71  H53 non d ame     -11.019   6.494  66.591  0.00  0.00     0.084 H 
ENDBRANCH  58  61
ENDBRANCH  57  58
ENDBRANCH  55  57
ENDBRANCH  52  55
ENDBRANCH  49  52
ENDBRANCH  47  49
BRANCH  47  72
ATOM     72  C24 non d ame      -9.652  11.037  64.742  0.00  0.00    -0.039 C 
ATOM     73  H35 non d ame      -8.758  11.547  65.101  0.00  0.00     0.036 H 
ATOM     74  H36 non d ame      -9.798  10.881  63.673  0.00  0.00     0.036 H 
BRANCH  72  75
ATOM     75  C25 non d ame     -10.915  11.865  65.276  0.00  0.00    -0.001 C 
ATOM     76  C26 non d ame     -11.783  12.444  64.005  0.00  0.00    -0.035 C 
ATOM     77  C27 non d ame     -11.982  13.772  64.182  0.00  0.00     0.085 C 
ATOM     78  H38 non d ame     -11.189  12.394  63.093  0.00  0.00     0.036 H 
ATOM     79  H39 non d ame     -12.792  12.030  64.022  0.00  0.00     0.036 H 
ATOM     80  N5  non d ame     -11.053  14.215  65.286  0.00  0.00    -0.049 N 
ATOM     81  H40 non d ame     -11.671  14.240  63.247  0.00  0.00     0.075 H 
ATOM     82  H41 non d ame     -13.012  13.869  64.523  0.00  0.00     0.075 H 
ATOM     83  C28 non d ame     -10.545  12.863  66.007  0.00  0.00     0.193 C 
ATOM     84  H42 non d ame     -10.264  14.656  64.837  0.00  0.00     0.280 HD
ATOM     85  H43 non d ame     -11.617  14.736  65.942  0.00  0.00     0.280 HD
ATOM     86  H44 non d ame     -10.952  12.563  66.973  0.00  0.00     0.129 H 
ATOM     87  H37 non d ame     -11.465  11.326  66.048  0.00  0.00     0.046 H 
BRANCH  83  88
ATOM     88  O6  non d ame      -9.128  12.903  66.186  0.00  0.00    -0.369 OA
ATOM     89  H45 non d ame      -8.918  12.755  67.111  0.00  0.00     0.212 HD
ENDBRANCH  83  88
ENDBRANCH  72  75
ENDBRANCH  47  72
ENDBRANCH  45  47
ENDBRANCH   1  43
BRANCH   1  90
ATOM     90  C16 non d ame     -10.663   9.962  70.294  0.00  0.00    -0.035 C 
ATOM     91  H21 non d ame     -10.327  10.751  70.967  0.00  0.00     0.037 H 
ATOM     92  H22 non d ame     -11.529  10.125  69.653  0.00  0.00     0.037 H 
BRANCH  90  93
ATOM     93  C17 non d ame     -11.005   8.732  71.194  0.00  0.00    -0.059 C 
ATOM     94  H23 non d ame     -11.129   7.868  70.540  0.00  0.00     0.038 H 
BRANCH  93  95
ATOM     95  C18 non d ame      -9.859   8.403  72.204  0.00  0.00    -0.073 C 
ATOM     96  H24 non d ame     -10.262   7.823  73.033  0.00  0.00     0.028 H 
ATOM     97  H25 non d ame      -9.084   7.826  71.698  0.00  0.00     0.028 H 
ATOM     98  H26 non d ame      -9.432   9.332  72.583  0.00  0.00     0.028 H 
ENDBRANCH  93  95
BRANCH  93  99
ATOM     99  C19 non d ame     -12.333   8.942  71.926  0.00  0.00    -0.073 C 
ATOM    100  H27 non d ame     -12.930   8.032  71.865  0.00  0.00     0.028 H 
ATOM    101  H28 non d ame     -12.136   9.180  72.972  0.00  0.00     0.028 H 
ATOM    102  H29 non d ame     -12.876   9.766  71.463  0.00  0.00     0.028 H 
ENDBRANCH  93  99
ENDBRANCH  90  93
ENDBRANCH   1  90
TORSDOF 26
ENDMDL
MODEL 13
REMARK VINA RESULT:      -6.3      2.419      5.907
REMARK  26 active torsions:
REMARK  status: ('A' for Active; 'I' for Inactive)
REMARK    1  A    between atoms: C2_2  and  C3_3 
REMARK    2  A    between atoms: C4_6  and  C5_7 
REMARK       I    between atoms: C5_7  and  N2_9 
REMARK    3  A    between atoms: N2_9  and  C6_10 
REMARK    4  A    between atoms: C6_10  and  C7_11 
REMARK    5  A    between atoms: C6_10  and  C8_13 
REMARK       I    between atoms: C7_11  and  N3_14 
REMARK    6  A    between atoms: N3_14  and  C9_15 
REMARK    7  A    between atoms: C9_15  and  C10_16 
REMARK    8  A    between atoms: C9_15  and  C11_18 
REMARK       I    between atoms: C10_16  and  N4_21 
REMARK    9  A    between atoms: C11_18  and  C12_19 
REMARK   10  A    between atoms: C11_18  and  C13_20 
REMARK   11  A    between atoms: N4_21  and  C14_22 
REMARK   12  A    between atoms: C14_22  and  C15_23 
REMARK   13  A    between atoms: C14_22  and  C16_25 
REMARK       I    between atoms: C15_23  and  N6_40 
REMARK   14  A    between atoms: C16_25  and  C17_26 
REMARK   15  A    between atoms: C17_26  and  C18_27 
REMARK   16  A    between atoms: C17_26  and  C19_28 
REMARK   17  A    between atoms: C20_29  and  C21_30 
REMARK   18  A    between atoms: C20_29  and  C24_33 
REMARK   19  A    between atoms: C20_29  and  N6_40 
REMARK   20  A    between atoms: C21_30  and  C22_31 
REMARK   21  A    between atoms: C22_31  and  C23_32 
REMARK   22  A    between atoms: C23_32  and  O8_43 
REMARK   23  A    between atoms: C24_33  and  C25_34 
REMARK   24  A    between atoms: C28_38  and  O6_39 
REMARK   25  A    between atoms: C29_42  and  O8_43 
REMARK   26  A    between atoms: C29_42  and  C35_49 
ROOT
ATOM      1  C14 non d ame      -6.753  12.683  68.082  0.00  0.00     0.089 C 
ATOM      2  H20 non d ame      -6.027  13.327  67.585  0.00  0.00     0.087 H 
ENDROOT
BRANCH   1   3
ATOM      3  N4  non d ame      -7.988  13.440  68.221  0.00  0.00    -0.346 N 
ATOM      4  C10 non d ame      -8.186  14.722  67.451  0.00  0.00     0.241 C 
ATOM      5  O4  non d ame      -7.336  15.125  66.728  0.00  0.00    -0.271 OA
ATOM      6  H19 non d ame      -8.698  13.081  68.843  0.00  0.00     0.163 HD
BRANCH   4   7
ATOM      7  C9  non d ame      -9.473  15.489  67.602  0.00  0.00     0.092 C 
ATOM      8  H11 non d ame     -10.134  15.249  66.769  0.00  0.00     0.088 H 
BRANCH   7   9
ATOM      9  N3  non d ame     -10.153  15.067  68.830  0.00  0.00    -0.346 N 
ATOM     10  C7  non d ame     -11.489  14.527  68.765  0.00  0.00     0.240 C 
ATOM     11  O3  non d ame     -12.032  14.426  67.733  0.00  0.00    -0.271 OA
ATOM     12  H10 non d ame      -9.699  15.149  69.728  0.00  0.00     0.163 HD
BRANCH  10  13
ATOM     13  C6  non d ame     -12.209  14.081  70.076  0.00  0.00     0.086 C 
ATOM     14  H6  non d ame     -13.282  14.274  70.054  0.00  0.00     0.086 H 
BRANCH  13  15
ATOM     15  N2  non d ame     -12.048  12.646  70.238  0.00  0.00    -0.343 N 
ATOM     16  C5  non d ame     -12.772  11.955  71.307  0.00  0.00     0.273 C 
ATOM     17  O2  non d ame     -13.479  12.563  72.033  0.00  0.00    -0.266 OA
ATOM     18  H5  non d ame     -11.439  12.135  69.615  0.00  0.00     0.163 HD
BRANCH  16  19
ATOM     19  C4  non d ame     -12.611  10.438  71.489  0.00  0.00     0.154 A 
ATOM     20  C1  non d ame     -11.500   9.631  71.087  0.00  0.00    -0.017 A 
ATOM     21  C2  non d ame     -11.843   8.318  71.479  0.00  0.00     0.077 A 
ATOM     22  H1  non d ame     -10.586   9.949  70.586  0.00  0.00     0.091 H 
ATOM     23  O1  non d ame     -13.015   8.375  72.042  0.00  0.00    -0.218 OA
ATOM     24  N1  non d ame     -13.484   9.602  72.059  0.00  0.00    -0.123 NA
BRANCH  21  25
ATOM     25  C3  non d ame     -10.997   7.068  71.282  0.00  0.00    -0.029 C 
ATOM     26  H2  non d ame     -10.547   7.086  70.288  0.00  0.00     0.036 H 
ATOM     27  H3  non d ame     -10.210   7.039  72.036  0.00  0.00     0.036 H 
ATOM     28  H4  non d ame     -11.626   6.183  71.380  0.00  0.00     0.036 H 
ENDBRANCH  21  25
ENDBRANCH  16  19
ENDBRANCH  13  15
BRANCH  13  29
ATOM     29  C8  non d ame     -11.608  14.805  71.253  0.00  0.00    -0.049 C 
ATOM     30  H7  non d ame     -11.239  15.780  70.932  0.00  0.00     0.030 H 
ATOM     31  H8  non d ame     -12.367  14.940  72.024  0.00  0.00     0.030 H 
ATOM     32  H9  non d ame     -10.781  14.220  71.655  0.00  0.00     0.030 H 
ENDBRANCH  13  29
ENDBRANCH  10  13
ENDBRANCH   7   9
BRANCH   7  33
ATOM     33  C11 non d ame      -9.162  17.013  67.683  0.00  0.00    -0.033 C 
ATOM     34  H12 non d ame      -8.641  17.291  66.767  0.00  0.00     0.042 H 
BRANCH  33  35
ATOM     35  C12 non d ame     -10.472  17.858  67.753  0.00  0.00    -0.071 C 
ATOM     36  H13 non d ame     -10.291  18.845  67.327  0.00  0.00     0.028 H 
ATOM     37  H14 non d ame     -11.258  17.357  67.187  0.00  0.00     0.028 H 
ATOM     38  H15 non d ame     -10.782  17.962  68.792  0.00  0.00     0.028 H 
ENDBRANCH  33  35
BRANCH  33  39
ATOM     39  C13 non d ame      -8.220  17.328  68.889  0.00  0.00    -0.071 C 
ATOM     40  H16 non d ame      -8.586  16.818  69.779  0.00  0.00     0.028 H 
ATOM     41  H17 non d ame      -7.211  16.983  68.662  0.00  0.00     0.028 H 
ATOM     42  H18 non d ame      -8.205  18.403  69.066  0.00  0.00     0.028 H 
ENDBRANCH  33  39
ENDBRANCH   7  33
ENDBRANCH   4   7
ENDBRANCH   1   3
BRANCH   1  43
ATOM     43  C15 non d ame      -7.051  11.394  67.264  0.00  0.00     0.240 C 
ATOM     44  O5  non d ame      -6.630  10.347  67.636  0.00  0.00    -0.271 OA
ATOM     45  N6  non d ame      -7.870  11.464  66.020  0.00  0.00    -0.355 N 
ATOM     46  H46 non d ame      -8.238  12.347  65.696  0.00  0.00     0.162 HD
BRANCH  45  47
ATOM     47  C20 non d ame      -8.146  10.229  65.254  0.00  0.00     0.013 C 
ATOM     48  H30 non d ame      -7.972   9.379  65.914  0.00  0.00     0.072 H 
BRANCH  47  49
ATOM     49  C21 non d ame      -7.215  10.160  64.065  0.00  0.00    -0.038 C 
ATOM     50  H31 non d ame      -7.787  10.543  63.220  0.00  0.00     0.036 H 
ATOM     51  H32 non d ame      -6.300  10.663  64.378  0.00  0.00     0.036 H 
BRANCH  49  52
ATOM     52  C22 non d ame      -6.814   8.713  63.701  0.00  0.00     0.018 C 
ATOM     53  H33 non d ame      -5.840   8.789  63.218  0.00  0.00     0.048 H 
ATOM     54  H34 non d ame      -6.923   8.137  64.620  0.00  0.00     0.048 H 
BRANCH  52  55
ATOM     55  C23 non d ame      -7.757   8.045  62.662  0.00  0.00     0.259 C 
ATOM     56  O7  non d ame      -8.226   8.682  61.776  0.00  0.00    -0.265 OA
BRANCH  55  57
ATOM     57  O8  non d ame      -8.065   6.662  62.789  0.00  0.00    -0.317 OA
BRANCH  57  58
ATOM     58  C29 non d ame      -7.435   6.025  63.904  0.00  0.00     0.052 C 
ATOM     59  H47 non d ame      -7.087   5.060  63.535  0.00  0.00     0.082 H 
ATOM     60  H48 non d ame      -6.719   6.750  64.292  0.00  0.00     0.082 H 
BRANCH  58  61
ATOM     61  C35 non d ame      -8.517   5.776  64.988  0.00  0.00    -0.034 A 
ATOM     62  C30 non d ame      -9.336   4.655  64.909  0.00  0.00    -0.075 A 
ATOM     63  C31 non d ame     -10.309   4.431  65.883  0.00  0.00    -0.082 A 
ATOM     64  H49 non d ame      -9.216   3.951  64.086  0.00  0.00     0.084 H 
ATOM     65  C32 non d ame     -10.462   5.335  66.937  0.00  0.00    -0.083 A 
ATOM     66  H50 non d ame     -10.948   3.550  65.820  0.00  0.00     0.083 H 
ATOM     67  C33 non d ame      -9.645   6.455  67.009  0.00  0.00    -0.082 A 
ATOM     68  H51 non d ame     -11.220   5.168  67.702  0.00  0.00     0.083 H 
ATOM     69  C34 non d ame      -8.670   6.681  66.040  0.00  0.00    -0.075 A 
ATOM     70  H52 non d ame      -9.768   7.160  67.832  0.00  0.00     0.083 H 
ATOM     71  H53 non d ame      -8.031   7.562  66.104  0.00  0.00     0.084 H 
ENDBRANCH  58  61
ENDBRANCH  57  58
ENDBRANCH  55  57
ENDBRANCH  52  55
ENDBRANCH  49  52
ENDBRANCH  47  49
BRANCH  47  72
ATOM     72  C24 non d ame      -9.594  10.235  64.769  0.00  0.00    -0.039 C 
ATOM     73  H35 non d ame      -9.584   9.698  63.820  0.00  0.00     0.036 H 
ATOM     74  H36 non d ame     -10.182   9.854  65.604  0.00  0.00     0.036 H 
BRANCH  72  75
ATOM     75  C25 non d ame     -10.111  11.721  64.465  0.00  0.00    -0.001 C 
ATOM     76  C26 non d ame     -11.400  12.072  65.424  0.00  0.00    -0.035 C 
ATOM     77  C27 non d ame     -12.408  12.535  64.647  0.00  0.00     0.085 C 
ATOM     78  H38 non d ame     -11.808  11.156  65.851  0.00  0.00     0.036 H 
ATOM     79  H39 non d ame     -11.167  12.918  66.070  0.00  0.00     0.036 H 
ATOM     80  N5  non d ame     -12.041  12.225  63.216  0.00  0.00    -0.049 N 
ATOM     81  H40 non d ame     -13.284  11.947  64.924  0.00  0.00     0.075 H 
ATOM     82  H41 non d ame     -12.411  13.615  64.787  0.00  0.00     0.075 H 
ATOM     83  C28 non d ame     -10.472  11.848  63.232  0.00  0.00     0.193 C 
ATOM     84  H42 non d ame     -12.567  11.402  62.957  0.00  0.00     0.280 HD
ATOM     85  H43 non d ame     -12.160  13.084  62.697  0.00  0.00     0.280 HD
ATOM     86  H44 non d ame      -9.727  12.562  62.880  0.00  0.00     0.129 H 
ATOM     87  H37 non d ame      -9.297  12.445  64.445  0.00  0.00     0.046 H 
BRANCH  83  88
ATOM     88  O6  non d ame     -10.244  10.655  62.478  0.00  0.00    -0.369 OA
ATOM     89  H45 non d ame     -11.022  10.096  62.521  0.00  0.00     0.212 HD
ENDBRANCH  83  88
ENDBRANCH  72  75
ENDBRANCH  47  72
ENDBRANCH  45  47
ENDBRANCH   1  43
BRANCH   1  90
ATOM     90  C16 non d ame      -6.245  12.305  69.464  0.00  0.00    -0.035 C 
ATOM     91  H21 non d ame      -7.069  12.522  70.144  0.00  0.00     0.037 H 
ATOM     92  H22 non d ame      -5.873  11.285  69.366  0.00  0.00     0.037 H 
BRANCH  90  93
ATOM     93  C17 non d ame      -5.037  13.171  69.946  0.00  0.00    -0.059 C 
ATOM     94  H23 non d ame      -4.515  12.608  70.719  0.00  0.00     0.038 H 
BRANCH  93  95
ATOM     95  C18 non d ame      -4.019  13.455  68.794  0.00  0.00    -0.073 C 
ATOM     96  H24 non d ame      -3.685  12.511  68.364  0.00  0.00     0.028 H 
ATOM     97  H25 non d ame      -4.502  14.056  68.023  0.00  0.00     0.028 H 
ATOM     98  H26 non d ame      -3.162  13.997  69.194  0.00  0.00     0.028 H 
ENDBRANCH  93  95
BRANCH  93  99
ATOM     99  C19 non d ame      -5.520  14.477  70.581  0.00  0.00    -0.073 C 
ATOM    100  H27 non d ame      -6.017  15.087  69.826  0.00  0.00     0.028 H 
ATOM    101  H28 non d ame      -6.220  14.252  71.386  0.00  0.00     0.028 H 
ATOM    102  H29 non d ame      -4.666  15.022  70.984  0.00  0.00     0.028 H 
ENDBRANCH  93  99
ENDBRANCH  90  93
ENDBRANCH   1  90
TORSDOF 26
ENDMDL
MODEL 14
REMARK VINA RESULT:      -6.3      2.718      9.144
REMARK  26 active torsions:
REMARK  status: ('A' for Active; 'I' for Inactive)
REMARK    1  A    between atoms: C2_2  and  C3_3 
REMARK    2  A    between atoms: C4_6  and  C5_7 
REMARK       I    between atoms: C5_7  and  N2_9 
REMARK    3  A    between atoms: N2_9  and  C6_10 
REMARK    4  A    between atoms: C6_10  and  C7_11 
REMARK    5  A    between atoms: C6_10  and  C8_13 
REMARK       I    between atoms: C7_11  and  N3_14 
REMARK    6  A    between atoms: N3_14  and  C9_15 
REMARK    7  A    between atoms: C9_15  and  C10_16 
REMARK    8  A    between atoms: C9_15  and  C11_18 
REMARK       I    between atoms: C10_16  and  N4_21 
REMARK    9  A    between atoms: C11_18  and  C12_19 
REMARK   10  A    between atoms: C11_18  and  C13_20 
REMARK   11  A    between atoms: N4_21  and  C14_22 
REMARK   12  A    between atoms: C14_22  and  C15_23 
REMARK   13  A    between atoms: C14_22  and  C16_25 
REMARK       I    between atoms: C15_23  and  N6_40 
REMARK   14  A    between atoms: C16_25  and  C17_26 
REMARK   15  A    between atoms: C17_26  and  C18_27 
REMARK   16  A    between atoms: C17_26  and  C19_28 
REMARK   17  A    between atoms: C20_29  and  C21_30 
REMARK   18  A    between atoms: C20_29  and  C24_33 
REMARK   19  A    between atoms: C20_29  and  N6_40 
REMARK   20  A    between atoms: C21_30  and  C22_31 
REMARK   21  A    between atoms: C22_31  and  C23_32 
REMARK   22  A    between atoms: C23_32  and  O8_43 
REMARK   23  A    between atoms: C24_33  and  C25_34 
REMARK   24  A    between atoms: C28_38  and  O6_39 
REMARK   25  A    between atoms: C29_42  and  O8_43 
REMARK   26  A    between atoms: C29_42  and  C35_49 
ROOT
ATOM      1  C14 non d ame     -10.520   8.323  68.641  0.00  0.00     0.089 C 
ATOM      2  H20 non d ame     -11.514   8.173  68.218  0.00  0.00     0.087 H 
ENDROOT
BRANCH   1   3
ATOM      3  N4  non d ame      -9.581   7.555  67.837  0.00  0.00    -0.346 N 
ATOM      4  C10 non d ame     -10.074   6.444  66.944  0.00  0.00     0.241 C 
ATOM      5  O4  non d ame     -11.231   6.185  66.892  0.00  0.00    -0.271 OA
ATOM      6  H19 non d ame      -8.601   7.789  67.898  0.00  0.00     0.163 HD
BRANCH   4   7
ATOM      7  C9  non d ame      -9.089   5.663  66.114  0.00  0.00     0.092 C 
ATOM      8  H11 non d ame      -9.607   5.228  65.259  0.00  0.00     0.088 H 
BRANCH   7   9
ATOM      9  N3  non d ame      -8.066   6.571  65.586  0.00  0.00    -0.346 N 
ATOM     10  C7  non d ame      -7.694   6.504  64.195  0.00  0.00     0.240 C 
ATOM     11  O3  non d ame      -8.206   5.726  63.486  0.00  0.00    -0.271 OA
ATOM     12  H10 non d ame      -7.615   7.246  66.186  0.00  0.00     0.163 HD
BRANCH  10  13
ATOM     13  C6  non d ame      -6.602   7.471  63.639  0.00  0.00     0.086 C 
ATOM     14  H6  non d ame      -6.954   8.063  62.794  0.00  0.00     0.086 H 
BRANCH  13  15
ATOM     15  N2  non d ame      -6.233   8.414  64.682  0.00  0.00    -0.343 N 
ATOM     16  C5  non d ame      -6.464   9.845  64.475  0.00  0.00     0.273 C 
ATOM     17  O2  non d ame      -6.945  10.228  63.465  0.00  0.00    -0.266 OA
ATOM     18  H5  non d ame      -5.820   8.078  65.540  0.00  0.00     0.163 HD
BRANCH  16  19
ATOM     19  C4  non d ame      -6.080  10.853  65.569  0.00  0.00     0.154 A 
ATOM     20  C1  non d ame      -6.930  11.390  66.587  0.00  0.00    -0.017 A 
ATOM     21  C2  non d ame      -6.102  12.261  67.330  0.00  0.00     0.077 A 
ATOM     22  H1  non d ame      -7.985  11.180  66.761  0.00  0.00     0.091 H 
ATOM     23  O1  non d ame      -4.918  12.221  66.794  0.00  0.00    -0.218 OA
ATOM     24  N1  non d ame      -4.880  11.407  65.765  0.00  0.00    -0.123 NA
BRANCH  21  25
ATOM     25  C3  non d ame      -6.520  13.093  68.536  0.00  0.00    -0.029 C 
ATOM     26  H2  non d ame      -6.145  12.626  69.447  0.00  0.00     0.036 H 
ATOM     27  H3  non d ame      -6.107  14.097  68.445  0.00  0.00     0.036 H 
ATOM     28  H4  non d ame      -7.608  13.150  68.579  0.00  0.00     0.036 H 
ENDBRANCH  21  25
ENDBRANCH  16  19
ENDBRANCH  13  15
BRANCH  13  29
ATOM     29  C8  non d ame      -5.395   6.677  63.210  0.00  0.00    -0.049 C 
ATOM     30  H7  non d ame      -4.550   6.924  63.852  0.00  0.00     0.030 H 
ATOM     31  H8  non d ame      -5.614   5.612  63.290  0.00  0.00     0.030 H 
ATOM     32  H9  non d ame      -5.149   6.921  62.176  0.00  0.00     0.030 H 
ENDBRANCH  13  29
ENDBRANCH  10  13
ENDBRANCH   7   9
BRANCH   7  33
ATOM     33  C11 non d ame      -8.409   4.579  67.001  0.00  0.00    -0.033 C 
ATOM     34  H12 non d ame      -8.422   4.940  68.029  0.00  0.00     0.042 H 
BRANCH  33  35
ATOM     35  C12 non d ame      -9.203   3.236  66.965  0.00  0.00    -0.071 C 
ATOM     36  H13 non d ame      -9.734   3.102  67.908  0.00  0.00     0.028 H 
ATOM     37  H14 non d ame      -9.920   3.259  66.145  0.00  0.00     0.028 H 
ATOM     38  H15 non d ame      -8.509   2.408  66.819  0.00  0.00     0.028 H 
ENDBRANCH  33  35
BRANCH  33  39
ATOM     39  C13 non d ame      -6.919   4.368  66.582  0.00  0.00    -0.071 C 
ATOM     40  H16 non d ame      -6.285   5.064  67.130  0.00  0.00     0.028 H 
ATOM     41  H17 non d ame      -6.618   3.345  66.812  0.00  0.00     0.028 H 
ATOM     42  H18 non d ame      -6.814   4.546  65.512  0.00  0.00     0.028 H 
ENDBRANCH  33  39
ENDBRANCH   7  33
ENDBRANCH   4   7
ENDBRANCH   1   3
BRANCH   1  43
ATOM     43  C15 non d ame     -10.089   9.818  68.613  0.00  0.00     0.240 C 
ATOM     44  O5  non d ame      -9.038  10.138  69.067  0.00  0.00    -0.271 OA
ATOM     45  N6  non d ame     -10.982  10.848  68.011  0.00  0.00    -0.355 N 
ATOM     46  H46 non d ame     -11.875  10.587  67.618  0.00  0.00     0.162 HD
BRANCH  45  47
ATOM     47  C20 non d ame     -10.557  12.265  67.991  0.00  0.00     0.013 C 
ATOM     48  H30 non d ame      -9.625  12.343  68.550  0.00  0.00     0.072 H 
BRANCH  47  49
ATOM     49  C21 non d ame     -11.624  13.116  68.642  0.00  0.00    -0.038 C 
ATOM     50  H31 non d ame     -12.130  13.631  67.825  0.00  0.00     0.036 H 
ATOM     51  H32 non d ame     -12.183  12.441  69.291  0.00  0.00     0.036 H 
BRANCH  49  52
ATOM     52  C22 non d ame     -11.039  14.215  69.556  0.00  0.00     0.018 C 
ATOM     53  H33 non d ame     -10.930  13.755  70.538  0.00  0.00     0.048 H 
ATOM     54  H34 non d ame     -10.162  14.597  69.033  0.00  0.00     0.048 H 
BRANCH  52  55
ATOM     55  C23 non d ame     -11.983  15.432  69.754  0.00  0.00     0.259 C 
ATOM     56  O7  non d ame     -12.735  15.469  70.674  0.00  0.00    -0.265 OA
BRANCH  55  57
ATOM     57  O8  non d ame     -11.949  16.501  68.816  0.00  0.00    -0.317 OA
BRANCH  57  58
ATOM     58  C29 non d ame     -10.881  16.410  67.869  0.00  0.00     0.052 C 
ATOM     59  H47 non d ame     -10.111  15.807  68.349  0.00  0.00     0.082 H 
ATOM     60  H48 non d ame     -11.339  16.071  66.940  0.00  0.00     0.082 H 
BRANCH  58  61
ATOM     61  C35 non d ame     -10.317  17.839  67.645  0.00  0.00    -0.034 A 
ATOM     62  C30 non d ame     -10.484  18.469  66.416  0.00  0.00    -0.075 A 
ATOM     63  C31 non d ame      -9.977  19.752  66.214  0.00  0.00    -0.082 A 
ATOM     64  H49 non d ame     -11.012  17.958  65.611  0.00  0.00     0.084 H 
ATOM     65  C32 non d ame      -9.299  20.404  67.247  0.00  0.00    -0.083 A 
ATOM     66  H50 non d ame     -10.112  20.244  65.251  0.00  0.00     0.083 H 
ATOM     67  C33 non d ame      -9.133  19.770  68.471  0.00  0.00    -0.082 A 
ATOM     68  H51 non d ame      -8.901  21.408  67.098  0.00  0.00     0.083 H 
ATOM     69  C34 non d ame      -9.639  18.489  68.677  0.00  0.00    -0.075 A 
ATOM     70  H52 non d ame      -8.601  20.281  69.274  0.00  0.00     0.083 H 
ATOM     71  H53 non d ame      -9.505  17.998  69.642  0.00  0.00     0.084 H 
ENDBRANCH  58  61
ENDBRANCH  57  58
ENDBRANCH  55  57
ENDBRANCH  52  55
ENDBRANCH  49  52
ENDBRANCH  47  49
BRANCH  47  72
ATOM     72  C24 non d ame     -10.351  12.721  66.548  0.00  0.00    -0.039 C 
ATOM     73  H35 non d ame     -10.757  13.732  66.503  0.00  0.00     0.036 H 
ATOM     74  H36 non d ame      -9.296  12.549  66.337  0.00  0.00     0.036 H 
BRANCH  72  75
ATOM     75  C25 non d ame     -11.191  11.828  65.518  0.00  0.00    -0.001 C 
ATOM     76  C26 non d ame     -10.172  11.073  64.470  0.00  0.00    -0.035 C 
ATOM     77  C27 non d ame     -10.593  11.311  63.205  0.00  0.00     0.085 C 
ATOM     78  H38 non d ame      -9.189  11.541  64.504  0.00  0.00     0.036 H 
ATOM     79  H39 non d ame     -10.265   9.992  64.571  0.00  0.00     0.036 H 
ATOM     80  N5  non d ame     -11.610  12.424  63.280  0.00  0.00    -0.049 N 
ATOM     81  H40 non d ame      -9.714  11.669  62.668  0.00  0.00     0.075 H 
ATOM     82  H41 non d ame     -11.091  10.396  62.887  0.00  0.00     0.075 H 
ATOM     83  C28 non d ame     -12.016  12.551  64.837  0.00  0.00     0.193 C 
ATOM     84  H42 non d ame     -11.131  13.269  63.002  0.00  0.00     0.280 HD
ATOM     85  H43 non d ame     -12.418  12.108  62.762  0.00  0.00     0.280 HD
ATOM     86  H44 non d ame     -12.967  12.157  65.195  0.00  0.00     0.129 H 
ATOM     87  H37 non d ame     -11.935  11.208  66.019  0.00  0.00     0.046 H 
BRANCH  83  88
ATOM     88  O6  non d ame     -11.994  13.921  65.242  0.00  0.00    -0.369 OA
ATOM     89  H45 non d ame     -12.551  14.437  64.655  0.00  0.00     0.212 HD
ENDBRANCH  83  88
ENDBRANCH  72  75
ENDBRANCH  47  72
ENDBRANCH  45  47
ENDBRANCH   1  43
BRANCH   1  90
ATOM     90  C16 non d ame     -10.486   7.808  70.071  0.00  0.00    -0.035 C 
ATOM     91  H21 non d ame      -9.451   7.512  70.247  0.00  0.00     0.037 H 
ATOM     92  H22 non d ame     -10.936   8.597  70.673  0.00  0.00     0.037 H 
BRANCH  90  93
ATOM     93  C17 non d ame     -11.354   6.530  70.298  0.00  0.00    -0.059 C 
ATOM     94  H23 non d ame     -11.954   6.375  69.401  0.00  0.00     0.038 H 
BRANCH  93  95
ATOM     95  C18 non d ame     -10.480   5.253  70.512  0.00  0.00    -0.073 C 
ATOM     96  H24 non d ame      -9.735   5.186  69.720  0.00  0.00     0.028 H 
ATOM     97  H25 non d ame      -9.978   5.315  71.479  0.00  0.00     0.028 H 
ATOM     98  H26 non d ame     -11.116   4.369  70.489  0.00  0.00     0.028 H 
ENDBRANCH  93  95
BRANCH  93  99
ATOM     99  C19 non d ame     -12.325   6.728  71.465  0.00  0.00    -0.073 C 
ATOM    100  H27 non d ame     -13.350   6.646  71.104  0.00  0.00     0.028 H 
ATOM    101  H28 non d ame     -12.143   5.964  72.222  0.00  0.00     0.028 H 
ATOM    102  H29 non d ame     -12.171   7.715  71.902  0.00  0.00     0.028 H 
ENDBRANCH  93  99
ENDBRANCH  90  93
ENDBRANCH   1  90
TORSDOF 26
ENDMDL
MODEL 15
REMARK VINA RESULT:      -6.3      2.603      6.792
REMARK  26 active torsions:
REMARK  status: ('A' for Active; 'I' for Inactive)
REMARK    1  A    between atoms: C2_2  and  C3_3 
REMARK    2  A    between atoms: C4_6  and  C5_7 
REMARK       I    between atoms: C5_7  and  N2_9 
REMARK    3  A    between atoms: N2_9  and  C6_10 
REMARK    4  A    between atoms: C6_10  and  C7_11 
REMARK    5  A    between atoms: C6_10  and  C8_13 
REMARK       I    between atoms: C7_11  and  N3_14 
REMARK    6  A    between atoms: N3_14  and  C9_15 
REMARK    7  A    between atoms: C9_15  and  C10_16 
REMARK    8  A    between atoms: C9_15  and  C11_18 
REMARK       I    between atoms: C10_16  and  N4_21 
REMARK    9  A    between atoms: C11_18  and  C12_19 
REMARK   10  A    between atoms: C11_18  and  C13_20 
REMARK   11  A    between atoms: N4_21  and  C14_22 
REMARK   12  A    between atoms: C14_22  and  C15_23 
REMARK   13  A    between atoms: C14_22  and  C16_25 
REMARK       I    between atoms: C15_23  and  N6_40 
REMARK   14  A    between atoms: C16_25  and  C17_26 
REMARK   15  A    between atoms: C17_26  and  C18_27 
REMARK   16  A    between atoms: C17_26  and  C19_28 
REMARK   17  A    between atoms: C20_29  and  C21_30 
REMARK   18  A    between atoms: C20_29  and  C24_33 
REMARK   19  A    between atoms: C20_29  and  N6_40 
REMARK   20  A    between atoms: C21_30  and  C22_31 
REMARK   21  A    between atoms: C22_31  and  C23_32 
REMARK   22  A    between atoms: C23_32  and  O8_43 
REMARK   23  A    between atoms: C24_33  and  C25_34 
REMARK   24  A    between atoms: C28_38  and  O6_39 
REMARK   25  A    between atoms: C29_42  and  O8_43 
REMARK   26  A    between atoms: C29_42  and  C35_49 
ROOT
ATOM      1  C14 non d ame     -11.763  10.647  70.205  0.00  0.00     0.089 C 
ATOM      2  H20 non d ame     -10.961  10.251  70.828  0.00  0.00     0.087 H 
ENDROOT
BRANCH   1   3
ATOM      3  N4  non d ame     -11.749  12.096  70.340  0.00  0.00    -0.346 N 
ATOM      4  C10 non d ame     -12.602  12.772  71.383  0.00  0.00     0.241 C 
ATOM      5  O4  non d ame     -13.294  12.129  72.102  0.00  0.00    -0.271 OA
ATOM      6  H19 non d ame     -11.155  12.625  69.717  0.00  0.00     0.163 HD
BRANCH   4   7
ATOM      7  C9  non d ame     -12.571  14.272  71.513  0.00  0.00     0.092 C 
ATOM      8  H11 non d ame     -11.621  14.574  71.955  0.00  0.00     0.088 H 
BRANCH   7   9
ATOM      9  N3  non d ame     -12.642  14.880  70.181  0.00  0.00    -0.346 N 
ATOM     10  C7  non d ame     -11.429  15.246  69.490  0.00  0.00     0.240 C 
ATOM     11  O3  non d ame     -10.389  15.060  69.993  0.00  0.00    -0.271 OA
ATOM     12  H10 non d ame     -13.532  15.048  69.735  0.00  0.00     0.163 HD
BRANCH  10  13
ATOM     13  C6  non d ame     -11.511  15.895  68.074  0.00  0.00     0.086 C 
ATOM     14  H6  non d ame     -12.194  16.743  68.038  0.00  0.00     0.086 H 
BRANCH  13  15
ATOM     15  N2  non d ame     -10.198  16.402  67.711  0.00  0.00    -0.343 N 
ATOM     16  C5  non d ame      -9.975  17.848  67.650  0.00  0.00     0.273 C 
ATOM     17  O2  non d ame     -10.859  18.595  67.892  0.00  0.00    -0.266 OA
ATOM     18  H5  non d ame      -9.450  15.757  67.503  0.00  0.00     0.163 HD
BRANCH  16  19
ATOM     19  C4  non d ame      -8.592  18.398  67.269  0.00  0.00     0.154 A 
ATOM     20  C1  non d ame      -7.761  17.973  66.185  0.00  0.00    -0.017 A 
ATOM     21  C2  non d ame      -6.609  18.786  66.269  0.00  0.00     0.077 A 
ATOM     22  H1  non d ame      -7.962  17.193  65.450  0.00  0.00     0.091 H 
ATOM     23  O1  non d ame      -6.770  19.583  67.285  0.00  0.00    -0.218 OA
ATOM     24  N1  non d ame      -7.920  19.375  67.885  0.00  0.00    -0.123 NA
BRANCH  21  25
ATOM     25  C3  non d ame      -5.402  18.739  65.341  0.00  0.00    -0.029 C 
ATOM     26  H2  non d ame      -5.739  18.607  64.313  0.00  0.00     0.036 H 
ATOM     27  H3  non d ame      -4.844  19.672  65.424  0.00  0.00     0.036 H 
ATOM     28  H4  non d ame      -4.759  17.905  65.622  0.00  0.00     0.036 H 
ENDBRANCH  21  25
ENDBRANCH  16  19
ENDBRANCH  13  15
BRANCH  13  29
ATOM     29  C8  non d ame     -11.962  14.864  67.071  0.00  0.00    -0.049 C 
ATOM     30  H7  non d ame     -11.231  14.056  67.026  0.00  0.00     0.030 H 
ATOM     31  H8  non d ame     -12.930  14.462  67.372  0.00  0.00     0.030 H 
ATOM     32  H9  non d ame     -12.050  15.327  66.088  0.00  0.00     0.030 H 
ENDBRANCH  13  29
ENDBRANCH  10  13
ENDBRANCH   7   9
BRANCH   7  33
ATOM     33  C11 non d ame     -13.787  14.745  72.361  0.00  0.00    -0.033 C 
ATOM     34  H12 non d ame     -14.108  13.903  72.975  0.00  0.00     0.042 H 
BRANCH  33  35
ATOM     35  C12 non d ame     -13.391  15.905  73.327  0.00  0.00    -0.071 C 
ATOM     36  H13 non d ame     -13.744  16.853  72.920  0.00  0.00     0.028 H 
ATOM     37  H14 non d ame     -13.846  15.737  74.302  0.00  0.00     0.028 H 
ATOM     38  H15 non d ame     -12.307  15.936  73.431  0.00  0.00     0.028 H 
ENDBRANCH  33  35
BRANCH  33  39
ATOM     39  C13 non d ame     -14.983  15.156  71.443  0.00  0.00    -0.071 C 
ATOM     40  H16 non d ame     -14.705  15.014  70.399  0.00  0.00     0.028 H 
ATOM     41  H17 non d ame     -15.850  14.537  71.676  0.00  0.00     0.028 H 
ATOM     42  H18 non d ame     -15.229  16.204  71.615  0.00  0.00     0.028 H 
ENDBRANCH  33  39
ENDBRANCH   7  33
ENDBRANCH   4   7
ENDBRANCH   1   3
BRANCH   1  43
ATOM     43  C15 non d ame     -11.573  10.287  68.703  0.00  0.00     0.240 C 
ATOM     44  O5  non d ame     -11.981  11.022  67.863  0.00  0.00    -0.271 OA
ATOM     45  N6  non d ame     -10.873   9.030  68.313  0.00  0.00    -0.355 N 
ATOM     46  H46 non d ame     -10.517   8.401  69.017  0.00  0.00     0.162 HD
BRANCH  45  47
ATOM     47  C20 non d ame     -10.698   8.703  66.881  0.00  0.00     0.013 C 
ATOM     48  H30 non d ame     -11.679   8.742  66.406  0.00  0.00     0.072 H 
BRANCH  47  49
ATOM     49  C21 non d ame     -10.117   7.314  66.753  0.00  0.00    -0.038 C 
ATOM     50  H31 non d ame     -10.220   7.046  65.701  0.00  0.00     0.036 H 
ATOM     51  H32 non d ame      -9.127   7.366  67.208  0.00  0.00     0.036 H 
BRANCH  49  52
ATOM     52  C22 non d ame     -10.909   6.256  67.553  0.00  0.00     0.018 C 
ATOM     53  H33 non d ame     -11.333   6.787  68.405  0.00  0.00     0.048 H 
ATOM     54  H34 non d ame     -11.566   5.771  66.830  0.00  0.00     0.048 H 
BRANCH  52  55
ATOM     55  C23 non d ame     -10.022   5.128  68.149  0.00  0.00     0.259 C 
ATOM     56  O7  non d ame      -9.737   4.176  67.497  0.00  0.00    -0.265 OA
BRANCH  55  57
ATOM     57  O8  non d ame      -9.563   5.239  69.491  0.00  0.00    -0.317 OA
BRANCH  57  58
ATOM     58  C29 non d ame      -8.158   5.487  69.607  0.00  0.00     0.052 C 
ATOM     59  H47 non d ame      -7.863   5.065  70.568  0.00  0.00     0.082 H 
ATOM     60  H48 non d ame      -7.715   5.109  68.686  0.00  0.00     0.082 H 
BRANCH  58  61
ATOM     61  C35 non d ame      -7.946   7.023  69.659  0.00  0.00    -0.034 A 
ATOM     62  C30 non d ame      -8.524   7.772  70.679  0.00  0.00    -0.075 A 
ATOM     63  C31 non d ame      -8.333   9.152  70.726  0.00  0.00    -0.082 A 
ATOM     64  H49 non d ame      -9.127   7.278  71.441  0.00  0.00     0.084 H 
ATOM     65  C32 non d ame      -7.562   9.784  69.747  0.00  0.00    -0.083 A 
ATOM     66  H50 non d ame      -8.786   9.736  71.527  0.00  0.00     0.083 H 
ATOM     67  C33 non d ame      -6.989   9.033  68.729  0.00  0.00    -0.082 A 
ATOM     68  H51 non d ame      -7.407  10.862  69.776  0.00  0.00     0.083 H 
ATOM     69  C34 non d ame      -7.176   7.653  68.680  0.00  0.00    -0.075 A 
ATOM     70  H52 non d ame      -6.390   9.529  67.966  0.00  0.00     0.083 H 
ATOM     71  H53 non d ame      -6.721   7.069  67.878  0.00  0.00     0.084 H 
ENDBRANCH  58  61
ENDBRANCH  57  58
ENDBRANCH  55  57
ENDBRANCH  52  55
ENDBRANCH  49  52
ENDBRANCH  47  49
BRANCH  47  72
ATOM     72  C24 non d ame      -9.754   9.713  66.232  0.00  0.00    -0.039 C 
ATOM     73  H35 non d ame      -9.943  10.657  66.744  0.00  0.00     0.036 H 
ATOM     74  H36 non d ame      -8.766   9.257  66.278  0.00  0.00     0.036 H 
BRANCH  72  75
ATOM     75  C25 non d ame     -10.100   9.938  64.684  0.00  0.00    -0.001 C 
ATOM     76  C26 non d ame      -8.792   9.568  63.759  0.00  0.00    -0.035 C 
ATOM     77  C27 non d ame      -8.545  10.603  62.920  0.00  0.00     0.085 C 
ATOM     78  H38 non d ame      -7.897   9.523  64.378  0.00  0.00     0.036 H 
ATOM     79  H39 non d ame      -9.031   8.745  63.085  0.00  0.00     0.036 H 
ATOM     80  N5  non d ame      -9.359  11.774  63.412  0.00  0.00    -0.049 N 
ATOM     81  H40 non d ame      -7.485  10.830  63.042  0.00  0.00     0.075 H 
ATOM     82  H41 non d ame      -8.926  10.288  61.949  0.00  0.00     0.075 H 
ATOM     83  C28 non d ame     -10.432  11.164  64.452  0.00  0.00     0.193 C 
ATOM     84  H42 non d ame      -8.723  12.373  63.919  0.00  0.00     0.280 HD
ATOM     85  H43 non d ame      -9.858  12.133  62.610  0.00  0.00     0.280 HD
ATOM     86  H44 non d ame     -11.475  11.035  64.161  0.00  0.00     0.129 H 
ATOM     87  H37 non d ame     -11.050   9.483  64.403  0.00  0.00     0.046 H 
BRANCH  83  88
ATOM     88  O6  non d ame     -10.463  11.949  65.645  0.00  0.00    -0.369 OA
ATOM     89  H45 non d ame     -11.375  12.113  65.896  0.00  0.00     0.212 HD
ENDBRANCH  83  88
ENDBRANCH  72  75
ENDBRANCH  47  72
ENDBRANCH  45  47
ENDBRANCH   1  43
BRANCH   1  90
ATOM     90  C16 non d ame     -13.102  10.116  70.692  0.00  0.00    -0.035 C 
ATOM     91  H21 non d ame     -13.420  10.807  71.473  0.00  0.00     0.037 H 
ATOM     92  H22 non d ame     -13.708   9.994  69.793  0.00  0.00     0.037 H 
BRANCH  90  93
ATOM     93  C17 non d ame     -13.013   8.707  71.359  0.00  0.00    -0.059 C 
ATOM     94  H23 non d ame     -12.981   7.965  70.562  0.00  0.00     0.038 H 
BRANCH  93  95
ATOM     95  C18 non d ame     -11.717   8.542  72.215  0.00  0.00    -0.073 C 
ATOM     96  H24 non d ame     -11.975   8.567  73.274  0.00  0.00     0.028 H 
ATOM     97  H25 non d ame     -11.244   7.588  71.979  0.00  0.00     0.028 H 
ATOM     98  H26 non d ame     -11.026   9.355  71.990  0.00  0.00     0.028 H 
ENDBRANCH  93  95
BRANCH  93  99
ATOM     99  C19 non d ame     -14.261   8.420  72.198  0.00  0.00    -0.073 C 
ATOM    100  H27 non d ame     -13.967   8.220  73.229  0.00  0.00     0.028 H 
ATOM    101  H28 non d ame     -14.924   9.284  72.170  0.00  0.00     0.028 H 
ATOM    102  H29 non d ame     -14.779   7.551  71.793  0.00  0.00     0.028 H 
ENDBRANCH  93  99
ENDBRANCH  90  93
ENDBRANCH   1  90
TORSDOF 26
ENDMDL
MODEL 16
REMARK VINA RESULT:      -6.2      2.519      9.770
REMARK  26 active torsions:
REMARK  status: ('A' for Active; 'I' for Inactive)
REMARK    1  A    between atoms: C2_2  and  C3_3 
REMARK    2  A    between atoms: C4_6  and  C5_7 
REMARK       I    between atoms: C5_7  and  N2_9 
REMARK    3  A    between atoms: N2_9  and  C6_10 
REMARK    4  A    between atoms: C6_10  and  C7_11 
REMARK    5  A    between atoms: C6_10  and  C8_13 
REMARK       I    between atoms: C7_11  and  N3_14 
REMARK    6  A    between atoms: N3_14  and  C9_15 
REMARK    7  A    between atoms: C9_15  and  C10_16 
REMARK    8  A    between atoms: C9_15  and  C11_18 
REMARK       I    between atoms: C10_16  and  N4_21 
REMARK    9  A    between atoms: C11_18  and  C12_19 
REMARK   10  A    between atoms: C11_18  and  C13_20 
REMARK   11  A    between atoms: N4_21  and  C14_22 
REMARK   12  A    between atoms: C14_22  and  C15_23 
REMARK   13  A    between atoms: C14_22  and  C16_25 
REMARK       I    between atoms: C15_23  and  N6_40 
REMARK   14  A    between atoms: C16_25  and  C17_26 
REMARK   15  A    between atoms: C17_26  and  C18_27 
REMARK   16  A    between atoms: C17_26  and  C19_28 
REMARK   17  A    between atoms: C20_29  and  C21_30 
REMARK   18  A    between atoms: C20_29  and  C24_33 
REMARK   19  A    between atoms: C20_29  and  N6_40 
REMARK   20  A    between atoms: C21_30  and  C22_31 
REMARK   21  A    between atoms: C22_31  and  C23_32 
REMARK   22  A    between atoms: C23_32  and  O8_43 
REMARK   23  A    between atoms: C24_33  and  C25_34 
REMARK   24  A    between atoms: C28_38  and  O6_39 
REMARK   25  A    between atoms: C29_42  and  O8_43 
REMARK   26  A    between atoms: C29_42  and  C35_49 
ROOT
ATOM      1  C14 non d ame     -11.553   7.799  70.536  0.00  0.00     0.089 C 
ATOM      2  H20 non d ame     -12.472   7.586  69.988  0.00  0.00     0.087 H 
ENDROOT
BRANCH   1   3
ATOM      3  N4  non d ame     -10.717   6.610  70.467  0.00  0.00    -0.346 N 
ATOM      4  C10 non d ame     -10.623   5.817  69.188  0.00  0.00     0.241 C 
ATOM      5  O4  non d ame     -11.232   6.154  68.227  0.00  0.00    -0.271 OA
ATOM      6  H19 non d ame     -10.208   6.339  71.297  0.00  0.00     0.163 HD
BRANCH   4   7
ATOM      7  C9  non d ame      -9.748   4.593  69.134  0.00  0.00     0.092 C 
ATOM      8  H11 non d ame     -10.315   3.766  68.707  0.00  0.00     0.088 H 
BRANCH   7   9
ATOM      9  N3  non d ame      -8.610   4.844  68.244  0.00  0.00    -0.346 N 
ATOM     10  C7  non d ame      -8.653   4.390  66.875  0.00  0.00     0.240 C 
ATOM     11  O3  non d ame      -9.594   3.820  66.474  0.00  0.00    -0.271 OA
ATOM     12  H10 non d ame      -7.791   5.332  68.576  0.00  0.00     0.163 HD
BRANCH  10  13
ATOM     13  C6  non d ame      -7.438   4.657  65.933  0.00  0.00     0.086 C 
ATOM     14  H6  non d ame      -7.459   4.043  65.033  0.00  0.00     0.086 H 
BRANCH  13  15
ATOM     15  N2  non d ame      -7.478   6.042  65.493  0.00  0.00    -0.343 N 
ATOM     16  C5  non d ame      -7.055   6.379  64.132  0.00  0.00     0.273 C 
ATOM     17  O2  non d ame      -6.682   5.529  63.400  0.00  0.00    -0.266 OA
ATOM     18  H5  non d ame      -7.796   6.762  66.127  0.00  0.00     0.163 HD
BRANCH  16  19
ATOM     19  C4  non d ame      -7.094   7.839  63.653  0.00  0.00     0.154 A 
ATOM     20  C1  non d ame      -7.968   8.403  62.671  0.00  0.00    -0.017 A 
ATOM     21  C2  non d ame      -7.601   9.766  62.598  0.00  0.00     0.077 A 
ATOM     22  H1  non d ame      -8.749   7.902  62.098  0.00  0.00     0.091 H 
ATOM     23  O1  non d ame      -6.631   9.951  63.445  0.00  0.00    -0.218 OA
ATOM     24  N1  non d ame      -6.317   8.841  64.072  0.00  0.00    -0.123 NA
BRANCH  21  25
ATOM     25  C3  non d ame      -8.228  10.821  61.697  0.00  0.00    -0.029 C 
ATOM     26  H2  non d ame      -7.441  11.385  61.195  0.00  0.00     0.036 H 
ATOM     27  H3  non d ame      -8.858  10.335  60.952  0.00  0.00     0.036 H 
ATOM     28  H4  non d ame      -8.834  11.500  62.297  0.00  0.00     0.036 H 
ENDBRANCH  21  25
ENDBRANCH  16  19
ENDBRANCH  13  15
BRANCH  13  29
ATOM     29  C8  non d ame      -6.154   4.388  66.676  0.00  0.00    -0.049 C 
ATOM     30  H7  non d ame      -5.940   5.222  67.345  0.00  0.00     0.030 H 
ATOM     31  H8  non d ame      -6.255   3.472  67.257  0.00  0.00     0.030 H 
ATOM     32  H9  non d ame      -5.338   4.278  65.962  0.00  0.00     0.030 H 
ENDBRANCH  13  29
ENDBRANCH  10  13
ENDBRANCH   7   9
BRANCH   7  33
ATOM     33  C11 non d ame      -9.223   4.267  70.563  0.00  0.00    -0.033 C 
ATOM     34  H12 non d ame      -9.687   4.971  71.252  0.00  0.00     0.042 H 
BRANCH  33  35
ATOM     35  C12 non d ame      -9.640   2.830  71.008  0.00  0.00    -0.071 C 
ATOM     36  H13 non d ame      -9.869   2.833  72.073  0.00  0.00     0.028 H 
ATOM     37  H14 non d ame     -10.521   2.519  70.448  0.00  0.00     0.028 H 
ATOM     38  H15 non d ame      -8.821   2.138  70.813  0.00  0.00     0.028 H 
ENDBRANCH  33  35
BRANCH  33  39
ATOM     39  C13 non d ame      -7.674   4.458  70.647  0.00  0.00    -0.071 C 
ATOM     40  H16 non d ame      -7.273   4.618  69.646  0.00  0.00     0.028 H 
ATOM     41  H17 non d ame      -7.448   5.324  71.271  0.00  0.00     0.028 H 
ATOM     42  H18 non d ame      -7.221   3.568  71.082  0.00  0.00     0.028 H 
ENDBRANCH  33  39
ENDBRANCH   7  33
ENDBRANCH   4   7
ENDBRANCH   1   3
BRANCH   1  43
ATOM     43  C15 non d ame     -10.768   8.993  69.922  0.00  0.00     0.240 C 
ATOM     44  O5  non d ame     -10.273   9.805  70.636  0.00  0.00    -0.271 OA
ATOM     45  N6  non d ame     -10.626   9.121  68.443  0.00  0.00    -0.355 N 
ATOM     46  H46 non d ame     -11.038   8.436  67.827  0.00  0.00     0.162 HD
BRANCH  45  47
ATOM     47  C20 non d ame      -9.875  10.262  67.875  0.00  0.00     0.013 C 
ATOM     48  H30 non d ame      -9.440  10.823  68.703  0.00  0.00     0.072 H 
BRANCH  47  49
ATOM     49  C21 non d ame     -10.822  11.144  67.094  0.00  0.00    -0.038 C 
ATOM     50  H31 non d ame     -10.189  11.767  66.461  0.00  0.00     0.036 H 
ATOM     51  H32 non d ame     -11.548  10.468  66.642  0.00  0.00     0.036 H 
BRANCH  49  52
ATOM     52  C22 non d ame     -11.623  12.108  67.995  0.00  0.00     0.018 C 
ATOM     53  H33 non d ame     -12.652  11.748  67.970  0.00  0.00     0.048 H 
ATOM     54  H34 non d ame     -11.082  12.148  68.940  0.00  0.00     0.048 H 
BRANCH  52  55
ATOM     55  C23 non d ame     -11.668  13.569  67.465  0.00  0.00     0.259 C 
ATOM     56  O7  non d ame     -11.433  13.804  66.325  0.00  0.00    -0.265 OA
BRANCH  55  57
ATOM     57  O8  non d ame     -11.981  14.626  68.364  0.00  0.00    -0.317 OA
BRANCH  57  58
ATOM     58  C29 non d ame     -11.036  14.787  69.425  0.00  0.00     0.052 C 
ATOM     59  H47 non d ame     -10.428  13.882  69.419  0.00  0.00     0.082 H 
ATOM     60  H48 non d ame     -10.570  15.758  69.260  0.00  0.00     0.082 H 
BRANCH  58  61
ATOM     61  C35 non d ame     -11.822  14.841  70.762  0.00  0.00    -0.034 A 
ATOM     62  C30 non d ame     -12.733  13.837  71.076  0.00  0.00    -0.075 A 
ATOM     63  C31 non d ame     -13.439  13.885  72.277  0.00  0.00    -0.082 A 
ATOM     64  H49 non d ame     -12.892  13.012  70.382  0.00  0.00     0.084 H 
ATOM     65  C32 non d ame     -13.235  14.945  73.165  0.00  0.00    -0.083 A 
ATOM     66  H50 non d ame     -14.150  13.096  72.521  0.00  0.00     0.083 H 
ATOM     67  C33 non d ame     -12.328  15.946  72.846  0.00  0.00    -0.082 A 
ATOM     68  H51 non d ame     -13.782  14.990  74.106  0.00  0.00     0.083 H 
ATOM     69  C34 non d ame     -11.618  15.901  71.648  0.00  0.00    -0.075 A 
ATOM     70  H52 non d ame     -12.172  16.773  73.540  0.00  0.00     0.083 H 
ATOM     71  H53 non d ame     -10.906  16.691  71.405  0.00  0.00     0.084 H 
ENDBRANCH  58  61
ENDBRANCH  57  58
ENDBRANCH  55  57
ENDBRANCH  52  55
ENDBRANCH  49  52
ENDBRANCH  47  49
BRANCH  47  72
ATOM     72  C24 non d ame      -8.775   9.746  66.949  0.00  0.00    -0.039 C 
ATOM     73  H35 non d ame      -8.863   8.660  66.971  0.00  0.00     0.036 H 
ATOM     74  H36 non d ame      -8.911  10.285  66.011  0.00  0.00     0.036 H 
BRANCH  72  75
ATOM     75  C25 non d ame      -7.316  10.114  67.498  0.00  0.00    -0.001 C 
ATOM     76  C26 non d ame      -7.423  10.669  69.043  0.00  0.00    -0.035 C 
ATOM     77  C27 non d ame      -6.762  11.848  69.129  0.00  0.00     0.085 C 
ATOM     78  H38 non d ame      -8.454  10.937  69.273  0.00  0.00     0.036 H 
ATOM     79  H39 non d ame      -6.866  10.015  69.714  0.00  0.00     0.036 H 
ATOM     80  N5  non d ame      -6.494  12.309  67.716  0.00  0.00    -0.049 N 
ATOM     81  H40 non d ame      -7.460  12.540  69.602  0.00  0.00     0.075 H 
ATOM     82  H41 non d ame      -5.813  11.615  69.612  0.00  0.00     0.075 H 
ATOM     83  C28 non d ame      -6.760  11.026  66.773  0.00  0.00     0.193 C 
ATOM     84  H42 non d ame      -7.190  13.011  67.508  0.00  0.00     0.280 HD
ATOM     85  H43 non d ame      -5.512  12.542  67.673  0.00  0.00     0.280 HD
ATOM     86  H44 non d ame      -5.924  10.464  66.355  0.00  0.00     0.129 H 
ATOM     87  H37 non d ame      -6.591   9.323  67.304  0.00  0.00     0.046 H 
BRANCH  83  88
ATOM     88  O6  non d ame      -7.570  11.395  65.656  0.00  0.00    -0.369 OA
ATOM     89  H45 non d ame      -7.241  12.214  65.279  0.00  0.00     0.212 HD
ENDBRANCH  83  88
ENDBRANCH  72  75
ENDBRANCH  47  72
ENDBRANCH  45  47
ENDBRANCH   1  43
BRANCH   1  90
ATOM     90  C16 non d ame     -11.878   8.095  71.991  0.00  0.00    -0.035 C 
ATOM     91  H21 non d ame     -11.815   7.133  72.502  0.00  0.00     0.037 H 
ATOM     92  H22 non d ame     -11.210   8.908  72.276  0.00  0.00     0.037 H 
BRANCH  90  93
ATOM     93  C17 non d ame     -13.332   8.619  72.215  0.00  0.00    -0.059 C 
ATOM     94  H23 non d ame     -13.558   8.523  73.277  0.00  0.00     0.038 H 
BRANCH  93  95
ATOM     95  C18 non d ame     -13.481  10.126  71.830  0.00  0.00    -0.073 C 
ATOM     96  H24 non d ame     -13.454  10.735  72.733  0.00  0.00     0.028 H 
ATOM     97  H25 non d ame     -12.662  10.415  71.172  0.00  0.00     0.028 H 
ATOM     98  H26 non d ame     -14.431  10.277  71.317  0.00  0.00     0.028 H 
ENDBRANCH  93  95
BRANCH  93  99
ATOM     99  C19 non d ame     -14.346   7.760  71.455  0.00  0.00    -0.073 C 
ATOM    100  H27 non d ame     -15.352   7.987  71.809  0.00  0.00     0.028 H 
ATOM    101  H28 non d ame     -14.278   7.976  70.389  0.00  0.00     0.028 H 
ATOM    102  H29 non d ame     -14.129   6.706  71.626  0.00  0.00     0.028 H 
ENDBRANCH  93  99
ENDBRANCH  90  93
ENDBRANCH   1  90
TORSDOF 26
ENDMDL
MODEL 17
REMARK VINA RESULT:      -6.1      2.670      8.973
REMARK  26 active torsions:
REMARK  status: ('A' for Active; 'I' for Inactive)
REMARK    1  A    between atoms: C2_2  and  C3_3 
REMARK    2  A    between atoms: C4_6  and  C5_7 
REMARK       I    between atoms: C5_7  and  N2_9 
REMARK    3  A    between atoms: N2_9  and  C6_10 
REMARK    4  A    between atoms: C6_10  and  C7_11 
REMARK    5  A    between atoms: C6_10  and  C8_13 
REMARK       I    between atoms: C7_11  and  N3_14 
REMARK    6  A    between atoms: N3_14  and  C9_15 
REMARK    7  A    between atoms: C9_15  and  C10_16 
REMARK    8  A    between atoms: C9_15  and  C11_18 
REMARK       I    between atoms: C10_16  and  N4_21 
REMARK    9  A    between atoms: C11_18  and  C12_19 
REMARK   10  A    between atoms: C11_18  and  C13_20 
REMARK   11  A    between atoms: N4_21  and  C14_22 
REMARK   12  A    between atoms: C14_22  and  C15_23 
REMARK   13  A    between atoms: C14_22  and  C16_25 
REMARK       I    between atoms: C15_23  and  N6_40 
REMARK   14  A    between atoms: C16_25  and  C17_26 
REMARK   15  A    between atoms: C17_26  and  C18_27 
REMARK   16  A    between atoms: C17_26  and  C19_28 
REMARK   17  A    between atoms: C20_29  and  C21_30 
REMARK   18  A    between atoms: C20_29  and  C24_33 
REMARK   19  A    between atoms: C20_29  and  N6_40 
REMARK   20  A    between atoms: C21_30  and  C22_31 
REMARK   21  A    between atoms: C22_31  and  C23_32 
REMARK   22  A    between atoms: C23_32  and  O8_43 
REMARK   23  A    between atoms: C24_33  and  C25_34 
REMARK   24  A    between atoms: C28_38  and  O6_39 
REMARK   25  A    between atoms: C29_42  and  O8_43 
REMARK   26  A    between atoms: C29_42  and  C35_49 
ROOT
ATOM      1  C14 non d ame      -8.539   5.968  68.300  0.00  0.00     0.089 C 
ATOM      2  H20 non d ame      -9.297   5.613  67.602  0.00  0.00     0.087 H 
ENDROOT
BRANCH   1   3
ATOM      3  N4  non d ame      -7.305   6.153  67.550  0.00  0.00    -0.346 N 
ATOM      4  C10 non d ame      -7.108   5.461  66.225  0.00  0.00     0.241 C 
ATOM      5  O4  non d ame      -7.956   4.758  65.783  0.00  0.00    -0.271 OA
ATOM      6  H19 non d ame      -6.595   6.754  67.945  0.00  0.00     0.163 HD
BRANCH   4   7
ATOM      7  C9  non d ame      -5.828   5.669  65.460  0.00  0.00     0.092 C 
ATOM      8  H11 non d ame      -5.752   4.915  64.676  0.00  0.00     0.088 H 
BRANCH   7   9
ATOM      9  N3  non d ame      -5.858   6.978  64.800  0.00  0.00    -0.346 N 
ATOM     10  C7  non d ame      -5.515   7.089  63.404  0.00  0.00     0.240 C 
ATOM     11  O3  non d ame      -5.211   6.136  62.796  0.00  0.00    -0.271 OA
ATOM     12  H10 non d ame      -6.117   7.809  65.312  0.00  0.00     0.163 HD
BRANCH  10  13
ATOM     13  C6  non d ame      -5.546   8.486  62.708  0.00  0.00     0.086 C 
ATOM     14  H6  non d ame      -5.804   8.425  61.651  0.00  0.00     0.086 H 
BRANCH  13  15
ATOM     15  N2  non d ame      -6.569   9.303  63.339  0.00  0.00    -0.343 N 
ATOM     16  C5  non d ame      -7.952   9.224  62.862  0.00  0.00     0.273 C 
ATOM     17  O2  non d ame      -8.230   8.502  61.969  0.00  0.00    -0.266 OA
ATOM     18  H5  non d ame      -6.322   9.920  64.100  0.00  0.00     0.163 HD
BRANCH  16  19
ATOM     19  C4  non d ame      -9.044  10.082  63.521  0.00  0.00     0.154 A 
ATOM     20  C1  non d ame      -9.615  11.292  63.014  0.00  0.00    -0.017 A 
ATOM     21  C2  non d ame     -10.565  11.680  63.986  0.00  0.00     0.077 A 
ATOM     22  H1  non d ame      -9.378  11.809  62.085  0.00  0.00     0.091 H 
ATOM     23  O1  non d ame     -10.535  10.790  64.934  0.00  0.00    -0.218 OA
ATOM     24  N1  non d ame      -9.655   9.847  64.685  0.00  0.00    -0.123 NA
BRANCH  21  25
ATOM     25  C3  non d ame     -11.458  12.912  63.932  0.00  0.00    -0.029 C 
ATOM     26  H2  non d ame     -11.669  13.163  62.892  0.00  0.00     0.036 H 
ATOM     27  H3  non d ame     -12.393  12.706  64.453  0.00  0.00     0.036 H 
ATOM     28  H4  non d ame     -10.952  13.750  64.412  0.00  0.00     0.036 H 
ENDBRANCH  21  25
ENDBRANCH  16  19
ENDBRANCH  13  15
BRANCH  13  29
ATOM     29  C8  non d ame      -4.199   9.148  62.844  0.00  0.00    -0.049 C 
ATOM     30  H7  non d ame      -4.331  10.226  62.934  0.00  0.00     0.030 H 
ATOM     31  H8  non d ame      -3.695   8.769  63.733  0.00  0.00     0.030 H 
ATOM     32  H9  non d ame      -3.596   8.929  61.963  0.00  0.00     0.030 H 
ENDBRANCH  13  29
ENDBRANCH  10  13
ENDBRANCH   7   9
BRANCH   7  33
ATOM     33  C11 non d ame      -4.622   5.614  66.443  0.00  0.00    -0.033 C 
ATOM     34  H12 non d ame      -4.972   5.156  67.368  0.00  0.00     0.042 H 
BRANCH  33  35
ATOM     35  C12 non d ame      -3.472   4.720  65.883  0.00  0.00    -0.071 C 
ATOM     36  H13 non d ame      -3.791   4.264  64.945  0.00  0.00     0.028 H 
ATOM     37  H14 non d ame      -2.588   5.333  65.706  0.00  0.00     0.028 H 
ATOM     38  H15 non d ame      -3.235   3.939  66.605  0.00  0.00     0.028 H 
ENDBRANCH  33  35
BRANCH  33  39
ATOM     39  C13 non d ame      -4.109   7.051  66.779  0.00  0.00    -0.071 C 
ATOM     40  H16 non d ame      -4.958   7.702  66.983  0.00  0.00     0.028 H 
ATOM     41  H17 non d ame      -3.463   7.011  67.656  0.00  0.00     0.028 H 
ATOM     42  H18 non d ame      -3.546   7.443  65.931  0.00  0.00     0.028 H 
ENDBRANCH  33  39
ENDBRANCH   7  33
ENDBRANCH   4   7
ENDBRANCH   1   3
BRANCH   1  43
ATOM     43  C15 non d ame      -8.930   7.325  68.952  0.00  0.00     0.240 C 
ATOM     44  O5  non d ame      -8.966   7.423  70.136  0.00  0.00    -0.271 OA
ATOM     45  N6  non d ame      -9.252   8.505  68.101  0.00  0.00    -0.355 N 
ATOM     46  H46 non d ame      -9.220   8.436  67.094  0.00  0.00     0.162 HD
BRANCH  45  47
ATOM     47  C20 non d ame      -9.621   9.789  68.736  0.00  0.00     0.013 C 
ATOM     48  H30 non d ame      -9.524   9.669  69.815  0.00  0.00     0.072 H 
BRANCH  47  49
ATOM     49  C21 non d ame     -11.050  10.130  68.381  0.00  0.00    -0.038 C 
ATOM     50  H31 non d ame     -11.023  10.473  67.346  0.00  0.00     0.036 H 
ATOM     51  H32 non d ame     -11.637   9.251  68.649  0.00  0.00     0.036 H 
BRANCH  49  52
ATOM     52  C22 non d ame     -11.612  11.301  69.215  0.00  0.00     0.018 C 
ATOM     53  H33 non d ame     -12.662  11.063  69.389  0.00  0.00     0.048 H 
ATOM     54  H34 non d ame     -10.932  11.415  70.059  0.00  0.00     0.048 H 
BRANCH  52  55
ATOM     55  C23 non d ame     -11.600  12.664  68.468  0.00  0.00     0.259 C 
ATOM     56  O7  non d ame     -11.989  12.741  67.348  0.00  0.00    -0.265 OA
BRANCH  55  57
ATOM     57  O8  non d ame     -11.107  13.820  69.135  0.00  0.00    -0.317 OA
BRANCH  57  58
ATOM     58  C29 non d ame     -12.006  14.932  69.114  0.00  0.00     0.052 C 
ATOM     59  H47 non d ame     -11.424  15.775  68.741  0.00  0.00     0.082 H 
ATOM     60  H48 non d ame     -12.884  14.592  68.566  0.00  0.00     0.082 H 
BRANCH  58  61
ATOM     61  C35 non d ame     -12.428  15.235  70.577  0.00  0.00    -0.034 A 
ATOM     62  C30 non d ame     -13.628  14.736  71.073  0.00  0.00    -0.075 A 
ATOM     63  C31 non d ame     -14.007  15.008  72.387  0.00  0.00    -0.082 A 
ATOM     64  H49 non d ame     -14.271  14.132  70.433  0.00  0.00     0.084 H 
ATOM     65  C32 non d ame     -13.182  15.785  73.204  0.00  0.00    -0.083 A 
ATOM     66  H50 non d ame     -14.947  14.613  72.773  0.00  0.00     0.083 H 
ATOM     67  C33 non d ame     -11.987  16.283  72.704  0.00  0.00    -0.082 A 
ATOM     68  H51 non d ame     -13.470  16.001  74.233  0.00  0.00     0.083 H 
ATOM     69  C34 non d ame     -11.603  16.012  71.392  0.00  0.00    -0.075 A 
ATOM     70  H52 non d ame     -11.346  16.891  73.344  0.00  0.00     0.083 H 
ATOM     71  H53 non d ame     -10.662  16.406  71.006  0.00  0.00     0.084 H 
ENDBRANCH  58  61
ENDBRANCH  57  58
ENDBRANCH  55  57
ENDBRANCH  52  55
ENDBRANCH  49  52
ENDBRANCH  47  49
BRANCH  47  72
ATOM     72  C24 non d ame      -8.694  10.896  68.239  0.00  0.00    -0.039 C 
ATOM     73  H35 non d ame      -9.222  11.367  67.410  0.00  0.00     0.036 H 
ATOM     74  H36 non d ame      -8.440  11.480  69.124  0.00  0.00     0.036 H 
BRANCH  72  75
ATOM     75  C25 non d ame      -7.325  10.305  67.654  0.00  0.00    -0.001 C 
ATOM     76  C26 non d ame      -6.133  10.434  68.779  0.00  0.00    -0.035 C 
ATOM     77  C27 non d ame      -5.060  11.036  68.211  0.00  0.00     0.085 C 
ATOM     78  H38 non d ame      -6.431  11.131  69.561  0.00  0.00     0.036 H 
ATOM     79  H39 non d ame      -5.759   9.444  69.043  0.00  0.00     0.036 H 
ATOM     80  N5  non d ame      -5.526  11.623  66.900  0.00  0.00    -0.049 N 
ATOM     81  H40 non d ame      -4.789  11.847  68.888  0.00  0.00     0.075 H 
ATOM     82  H41 non d ame      -4.350  10.234  68.009  0.00  0.00     0.075 H 
ATOM     83  C28 non d ame      -6.957  10.943  66.592  0.00  0.00     0.193 C 
ATOM     84  H42 non d ame      -5.667  12.610  67.063  0.00  0.00     0.280 HD
ATOM     85  H43 non d ame      -4.866  11.316  66.199  0.00  0.00     0.280 HD
ATOM     86  H44 non d ame      -7.045  10.153  65.846  0.00  0.00     0.129 H 
ATOM     87  H37 non d ame      -7.463   9.330  67.186  0.00  0.00     0.046 H 
BRANCH  83  88
ATOM     88  O6  non d ame      -7.904  11.940  66.207  0.00  0.00    -0.369 OA
ATOM     89  H45 non d ame      -7.442  12.752  65.987  0.00  0.00     0.212 HD
ENDBRANCH  83  88
ENDBRANCH  72  75
ENDBRANCH  47  72
ENDBRANCH  45  47
ENDBRANCH   1  43
BRANCH   1  90
ATOM     90  C16 non d ame      -8.309   4.927  69.384  0.00  0.00    -0.035 C 
ATOM     91  H21 non d ame      -7.385   4.419  69.105  0.00  0.00     0.037 H 
ATOM     92  H22 non d ame      -8.367   5.474  70.326  0.00  0.00     0.037 H 
BRANCH  90  93
ATOM     93  C17 non d ame      -9.417   3.828  69.443  0.00  0.00    -0.059 C 
ATOM     94  H23 non d ame     -10.383   4.330  69.397  0.00  0.00     0.038 H 
BRANCH  93  95
ATOM     95  C18 non d ame      -9.335   2.843  68.233  0.00  0.00    -0.073 C 
ATOM     96  H24 non d ame      -8.344   2.389  68.202  0.00  0.00     0.028 H 
ATOM     97  H25 non d ame     -10.089   2.064  68.347  0.00  0.00     0.028 H 
ATOM     98  H26 non d ame      -9.514   3.389  67.307  0.00  0.00     0.028 H 
ENDBRANCH  93  95
BRANCH  93  99
ATOM     99  C19 non d ame      -9.363   3.067  70.770  0.00  0.00    -0.073 C 
ATOM    100  H27 non d ame      -8.393   2.579  70.869  0.00  0.00     0.028 H 
ATOM    101  H28 non d ame      -9.505   3.766  71.595  0.00  0.00     0.028 H 
ATOM    102  H29 non d ame     -10.152   2.316  70.790  0.00  0.00     0.028 H 
ENDBRANCH  93  99
ENDBRANCH  90  93
ENDBRANCH   1  90
TORSDOF 26
ENDMDL
MODEL 18
REMARK VINA RESULT:      -6.0      2.622      7.916
REMARK  26 active torsions:
REMARK  status: ('A' for Active; 'I' for Inactive)
REMARK    1  A    between atoms: C2_2  and  C3_3 
REMARK    2  A    between atoms: C4_6  and  C5_7 
REMARK       I    between atoms: C5_7  and  N2_9 
REMARK    3  A    between atoms: N2_9  and  C6_10 
REMARK    4  A    between atoms: C6_10  and  C7_11 
REMARK    5  A    between atoms: C6_10  and  C8_13 
REMARK       I    between atoms: C7_11  and  N3_14 
REMARK    6  A    between atoms: N3_14  and  C9_15 
REMARK    7  A    between atoms: C9_15  and  C10_16 
REMARK    8  A    between atoms: C9_15  and  C11_18 
REMARK       I    between atoms: C10_16  and  N4_21 
REMARK    9  A    between atoms: C11_18  and  C12_19 
REMARK   10  A    between atoms: C11_18  and  C13_20 
REMARK   11  A    between atoms: N4_21  and  C14_22 
REMARK   12  A    between atoms: C14_22  and  C15_23 
REMARK   13  A    between atoms: C14_22  and  C16_25 
REMARK       I    between atoms: C15_23  and  N6_40 
REMARK   14  A    between atoms: C16_25  and  C17_26 
REMARK   15  A    between atoms: C17_26  and  C18_27 
REMARK   16  A    between atoms: C17_26  and  C19_28 
REMARK   17  A    between atoms: C20_29  and  C21_30 
REMARK   18  A    between atoms: C20_29  and  C24_33 
REMARK   19  A    between atoms: C20_29  and  N6_40 
REMARK   20  A    between atoms: C21_30  and  C22_31 
REMARK   21  A    between atoms: C22_31  and  C23_32 
REMARK   22  A    between atoms: C23_32  and  O8_43 
REMARK   23  A    between atoms: C24_33  and  C25_34 
REMARK   24  A    between atoms: C28_38  and  O6_39 
REMARK   25  A    between atoms: C29_42  and  O8_43 
REMARK   26  A    between atoms: C29_42  and  C35_49 
ROOT
ATOM      1  C14 non d ame      -9.662   6.457  69.100  0.00  0.00     0.089 C 
ATOM      2  H20 non d ame     -10.592   6.006  68.753  0.00  0.00     0.087 H 
ENDROOT
BRANCH   1   3
ATOM      3  N4  non d ame      -8.734   6.466  67.979  0.00  0.00    -0.346 N 
ATOM      4  C10 non d ame      -8.826   5.411  66.906  0.00  0.00     0.241 C 
ATOM      5  O4  non d ame      -9.654   4.563  66.967  0.00  0.00    -0.271 OA
ATOM      6  H19 non d ame      -8.036   7.195  67.947  0.00  0.00     0.163 HD
BRANCH   4   7
ATOM      7  C9  non d ame      -7.861   5.440  65.750  0.00  0.00     0.092 C 
ATOM      8  H11 non d ame      -8.179   4.716  64.999  0.00  0.00     0.088 H 
BRANCH   7   9
ATOM      9  N3  non d ame      -7.893   6.762  65.118  0.00  0.00    -0.346 N 
ATOM     10  C7  non d ame      -8.095   6.875  63.694  0.00  0.00     0.240 C 
ATOM     11  O3  non d ame      -8.231   5.913  63.042  0.00  0.00    -0.271 OA
ATOM     12  H10 non d ame      -7.775   7.601  65.667  0.00  0.00     0.163 HD
BRANCH  10  13
ATOM     13  C6  non d ame      -8.125   8.285  63.027  0.00  0.00     0.086 C 
ATOM     14  H6  non d ame      -8.531   8.265  62.016  0.00  0.00     0.086 H 
BRANCH  13  15
ATOM     15  N2  non d ame      -8.991   9.156  63.804  0.00  0.00    -0.343 N 
ATOM     16  C5  non d ame      -9.506  10.387  63.200  0.00  0.00     0.273 C 
ATOM     17  O2  non d ame      -9.216  10.669  62.090  0.00  0.00    -0.266 OA
ATOM     18  H5  non d ame      -9.231   8.910  64.754  0.00  0.00     0.163 HD
BRANCH  16  19
ATOM     19  C4  non d ame     -10.423  11.316  64.010  0.00  0.00     0.154 A 
ATOM     20  C1  non d ame     -10.989  12.560  63.583  0.00  0.00    -0.017 A 
ATOM     21  C2  non d ame     -11.747  13.012  64.687  0.00  0.00     0.077 A 
ATOM     22  H1  non d ame     -10.869  13.057  62.621  0.00  0.00     0.091 H 
ATOM     23  O1  non d ame     -11.625  12.125  65.630  0.00  0.00    -0.218 OA
ATOM     24  N1  non d ame     -10.857  11.126  65.260  0.00  0.00    -0.123 NA
BRANCH  21  25
ATOM     25  C3  non d ame     -12.557  14.300  64.757  0.00  0.00    -0.029 C 
ATOM     26  H2  non d ame     -13.056  14.364  65.724  0.00  0.00     0.036 H 
ATOM     27  H3  non d ame     -11.892  15.155  64.634  0.00  0.00     0.036 H 
ATOM     28  H4  non d ame     -13.304  14.304  63.962  0.00  0.00     0.036 H 
ENDBRANCH  21  25
ENDBRANCH  16  19
ENDBRANCH  13  15
BRANCH  13  29
ATOM     29  C8  non d ame      -6.729   8.852  62.980  0.00  0.00    -0.049 C 
ATOM     30  H7  non d ame      -6.130   8.287  62.266  0.00  0.00     0.030 H 
ATOM     31  H8  non d ame      -6.771   9.897  62.672  0.00  0.00     0.030 H 
ATOM     32  H9  non d ame      -6.276   8.782  63.969  0.00  0.00     0.030 H 
ENDBRANCH  13  29
ENDBRANCH  10  13
ENDBRANCH   7   9
BRANCH   7  33
ATOM     33  C11 non d ame      -6.422   5.151  66.269  0.00  0.00    -0.033 C 
ATOM     34  H12 non d ame      -6.188   5.901  67.024  0.00  0.00     0.042 H 
BRANCH  33  35
ATOM     35  C12 non d ame      -6.335   3.752  66.955  0.00  0.00    -0.071 C 
ATOM     36  H13 non d ame      -5.588   3.143  66.446  0.00  0.00     0.028 H 
ATOM     37  H14 non d ame      -6.050   3.877  68.000  0.00  0.00     0.028 H 
ATOM     38  H15 non d ame      -7.306   3.260  66.900  0.00  0.00     0.028 H 
ENDBRANCH  33  35
BRANCH  33  39
ATOM     39  C13 non d ame      -5.375   5.282  65.116  0.00  0.00    -0.071 C 
ATOM     40  H16 non d ame      -4.564   5.936  65.435  0.00  0.00     0.028 H 
ATOM     41  H17 non d ame      -4.974   4.297  64.876  0.00  0.00     0.028 H 
ATOM     42  H18 non d ame      -5.857   5.703  64.234  0.00  0.00     0.028 H 
ENDBRANCH  33  39
ENDBRANCH   7  33
ENDBRANCH   4   7
ENDBRANCH   1   3
BRANCH   1  43
ATOM     43  C15 non d ame      -9.866   7.921  69.587  0.00  0.00     0.240 C 
ATOM     44  O5  non d ame     -10.044   8.140  70.741  0.00  0.00    -0.271 OA
ATOM     45  N6  non d ame      -9.830   9.050  68.614  0.00  0.00    -0.355 N 
ATOM     46  H46 non d ame      -9.675   8.876  67.632  0.00  0.00     0.162 HD
BRANCH  45  47
ATOM     47  C20 non d ame     -10.024  10.436  69.093  0.00  0.00     0.013 C 
ATOM     48  H30 non d ame      -9.702  10.479  70.133  0.00  0.00     0.072 H 
BRANCH  47  49
ATOM     49  C21 non d ame     -11.488  10.800  68.990  0.00  0.00    -0.038 C 
ATOM     50  H31 non d ame     -11.571  11.438  68.110  0.00  0.00     0.036 H 
ATOM     51  H32 non d ame     -12.030   9.855  69.031  0.00  0.00     0.036 H 
BRANCH  49  52
ATOM     52  C22 non d ame     -11.982  11.640  70.188  0.00  0.00     0.018 C 
ATOM     53  H33 non d ame     -13.026  11.359  70.334  0.00  0.00     0.048 H 
ATOM     54  H34 non d ame     -11.257  11.474  70.984  0.00  0.00     0.048 H 
BRANCH  52  55
ATOM     55  C23 non d ame     -11.983  13.170  69.921  0.00  0.00     0.259 C 
ATOM     56  O7  non d ame     -12.089  13.939  70.821  0.00  0.00    -0.265 OA
BRANCH  55  57
ATOM     57  O8  non d ame     -11.869  13.645  68.585  0.00  0.00    -0.317 OA
BRANCH  57  58
ATOM     58  C29 non d ame     -11.607  15.048  68.486  0.00  0.00     0.052 C 
ATOM     59  H47 non d ame     -12.290  15.422  67.723  0.00  0.00     0.082 H 
ATOM     60  H48 non d ame     -11.666  15.432  69.505  0.00  0.00     0.082 H 
BRANCH  58  61
ATOM     61  C35 non d ame     -10.153  15.229  67.976  0.00  0.00    -0.034 A 
ATOM     62  C30 non d ame      -9.920  15.679  66.680  0.00  0.00    -0.075 A 
ATOM     63  C31 non d ame      -8.613  15.841  66.222  0.00  0.00    -0.082 A 
ATOM     64  H49 non d ame     -10.761  15.904  66.024  0.00  0.00     0.084 H 
ATOM     65  C32 non d ame      -7.537  15.549  67.064  0.00  0.00    -0.083 A 
ATOM     66  H50 non d ame      -8.434  16.196  65.207  0.00  0.00     0.083 H 
ATOM     67  C33 non d ame      -7.774  15.098  68.355  0.00  0.00    -0.082 A 
ATOM     68  H51 non d ame      -6.512  15.674  66.714  0.00  0.00     0.083 H 
ATOM     69  C34 non d ame      -9.078  14.936  68.818  0.00  0.00    -0.075 A 
ATOM     70  H52 non d ame      -6.932  14.869  69.009  0.00  0.00     0.083 H 
ATOM     71  H53 non d ame      -9.257  14.582  69.834  0.00  0.00     0.084 H 
ENDBRANCH  58  61
ENDBRANCH  57  58
ENDBRANCH  55  57
ENDBRANCH  52  55
ENDBRANCH  49  52
ENDBRANCH  47  49
BRANCH  47  72
ATOM     72  C24 non d ame      -9.198  11.397  68.241  0.00  0.00    -0.039 C 
ATOM     73  H35 non d ame      -9.694  11.422  67.270  0.00  0.00     0.036 H 
ATOM     74  H36 non d ame      -9.112  12.308  68.832  0.00  0.00     0.036 H 
BRANCH  72  75
ATOM     75  C25 non d ame      -7.713  10.848  67.999  0.00  0.00    -0.001 C 
ATOM     76  C26 non d ame      -6.746  11.276  69.258  0.00  0.00    -0.035 C 
ATOM     77  C27 non d ame      -5.632  11.872  68.770  0.00  0.00     0.085 C 
ATOM     78  H38 non d ame      -7.220  12.063  69.843  0.00  0.00     0.036 H 
ATOM     79  H39 non d ame      -6.361  10.384  69.754  0.00  0.00     0.036 H 
ATOM     80  N5  non d ame      -5.899  12.184  67.317  0.00  0.00    -0.049 N 
ATOM     81  H40 non d ame      -5.535  12.807  69.322  0.00  0.00     0.075 H 
ATOM     82  H41 non d ame      -4.847  11.119  68.833  0.00  0.00     0.075 H 
ATOM     83  C28 non d ame      -7.207  11.329  66.913  0.00  0.00     0.193 C 
ATOM     84  H42 non d ame      -6.129  13.166  67.273  0.00  0.00     0.280 HD
ATOM     85  H43 non d ame      -5.109  11.827  66.798  0.00  0.00     0.280 HD
ATOM     86  H44 non d ame      -7.113  10.421  66.318  0.00  0.00     0.129 H 
ATOM     87  H37 non d ame      -7.703   9.799  67.701  0.00  0.00     0.046 H 
BRANCH  83  88
ATOM     88  O6  non d ame      -8.135  12.154  66.206  0.00  0.00    -0.369 OA
ATOM     89  H45 non d ame      -7.763  12.399  65.356  0.00  0.00     0.212 HD
ENDBRANCH  83  88
ENDBRANCH  72  75
ENDBRANCH  47  72
ENDBRANCH  45  47
ENDBRANCH   1  43
BRANCH   1  90
ATOM     90  C16 non d ame      -9.073   5.622  70.226  0.00  0.00    -0.035 C 
ATOM     91  H21 non d ame      -8.183   5.155  69.803  0.00  0.00     0.037 H 
ATOM     92  H22 non d ame      -8.982   6.302  71.073  0.00  0.00     0.037 H 
BRANCH  90  93
ATOM     93  C17 non d ame     -10.002   4.456  70.693  0.00  0.00    -0.059 C 
ATOM     94  H23 non d ame     -10.915   4.503  70.101  0.00  0.00     0.038 H 
BRANCH  93  95
ATOM     95  C18 non d ame      -9.353   3.055  70.457  0.00  0.00    -0.073 C 
ATOM     96  H24 non d ame      -9.437   2.458  71.365  0.00  0.00     0.028 H 
ATOM     97  H25 non d ame      -9.868   2.549  69.640  0.00  0.00     0.028 H 
ATOM     98  H26 non d ame      -8.301   3.180  70.201  0.00  0.00     0.028 H 
ENDBRANCH  93  95
BRANCH  93  99
ATOM     99  C19 non d ame     -10.402   4.631  72.160  0.00  0.00    -0.073 C 
ATOM    100  H27 non d ame      -9.602   5.142  72.697  0.00  0.00     0.028 H 
ATOM    101  H28 non d ame     -11.315   5.223  72.219  0.00  0.00     0.028 H 
ATOM    102  H29 non d ame     -10.574   3.653  72.609  0.00  0.00     0.028 H 
ENDBRANCH  93  99
ENDBRANCH  90  93
ENDBRANCH   1  90
TORSDOF 26
ENDMDL
MODEL 19
REMARK VINA RESULT:      -6.0      2.302      7.278
REMARK  26 active torsions:
REMARK  status: ('A' for Active; 'I' for Inactive)
REMARK    1  A    between atoms: C2_2  and  C3_3 
REMARK    2  A    between atoms: C4_6  and  C5_7 
REMARK       I    between atoms: C5_7  and  N2_9 
REMARK    3  A    between atoms: N2_9  and  C6_10 
REMARK    4  A    between atoms: C6_10  and  C7_11 
REMARK    5  A    between atoms: C6_10  and  C8_13 
REMARK       I    between atoms: C7_11  and  N3_14 
REMARK    6  A    between atoms: N3_14  and  C9_15 
REMARK    7  A    between atoms: C9_15  and  C10_16 
REMARK    8  A    between atoms: C9_15  and  C11_18 
REMARK       I    between atoms: C10_16  and  N4_21 
REMARK    9  A    between atoms: C11_18  and  C12_19 
REMARK   10  A    between atoms: C11_18  and  C13_20 
REMARK   11  A    between atoms: N4_21  and  C14_22 
REMARK   12  A    between atoms: C14_22  and  C15_23 
REMARK   13  A    between atoms: C14_22  and  C16_25 
REMARK       I    between atoms: C15_23  and  N6_40 
REMARK   14  A    between atoms: C16_25  and  C17_26 
REMARK   15  A    between atoms: C17_26  and  C18_27 
REMARK   16  A    between atoms: C17_26  and  C19_28 
REMARK   17  A    between atoms: C20_29  and  C21_30 
REMARK   18  A    between atoms: C20_29  and  C24_33 
REMARK   19  A    between atoms: C20_29  and  N6_40 
REMARK   20  A    between atoms: C21_30  and  C22_31 
REMARK   21  A    between atoms: C22_31  and  C23_32 
REMARK   22  A    between atoms: C23_32  and  O8_43 
REMARK   23  A    between atoms: C24_33  and  C25_34 
REMARK   24  A    between atoms: C28_38  and  O6_39 
REMARK   25  A    between atoms: C29_42  and  O8_43 
REMARK   26  A    between atoms: C29_42  and  C35_49 
ROOT
ATOM      1  C14 non d ame      -8.987   5.269  66.487  0.00  0.00     0.089 C 
ATOM      2  H20 non d ame      -9.486   4.491  65.908  0.00  0.00     0.087 H 
ENDROOT
BRANCH   1   3
ATOM      3  N4  non d ame      -8.201   6.069  65.559  0.00  0.00    -0.346 N 
ATOM      4  C10 non d ame      -7.365   7.218  66.063  0.00  0.00     0.241 C 
ATOM      5  O4  non d ame      -7.342   7.481  67.220  0.00  0.00    -0.271 OA
ATOM      6  H19 non d ame      -8.236   5.829  64.578  0.00  0.00     0.163 HD
BRANCH   4   7
ATOM      7  C9  non d ame      -6.553   8.031  65.089  0.00  0.00     0.092 C 
ATOM      8  H11 non d ame      -6.315   7.417  64.220  0.00  0.00     0.088 H 
BRANCH   7   9
ATOM      9  N3  non d ame      -7.351   9.165  64.614  0.00  0.00    -0.346 N 
ATOM     10  C7  non d ame      -8.189   9.018  63.449  0.00  0.00     0.240 C 
ATOM     11  O3  non d ame      -8.231   7.995  62.881  0.00  0.00    -0.271 OA
ATOM     12  H10 non d ame      -7.324  10.054  65.092  0.00  0.00     0.163 HD
BRANCH  10  13
ATOM     13  C6  non d ame      -9.034  10.229  62.946  0.00  0.00     0.086 C 
ATOM     14  H6  non d ame      -9.971   9.924  62.478  0.00  0.00     0.086 H 
BRANCH  13  15
ATOM     15  N2  non d ame      -9.389  11.061  64.084  0.00  0.00    -0.343 N 
ATOM     16  C5  non d ame     -10.689  11.734  64.107  0.00  0.00     0.273 C 
ATOM     17  O2  non d ame     -11.442  11.602  63.205  0.00  0.00    -0.266 OA
ATOM     18  H5  non d ame      -8.739  11.171  64.849  0.00  0.00     0.163 HD
BRANCH  16  19
ATOM     19  C4  non d ame     -11.078  12.616  65.304  0.00  0.00     0.154 A 
ATOM     20  C1  non d ame     -10.638  13.951  65.574  0.00  0.00    -0.017 A 
ATOM     21  C2  non d ame     -11.279  14.307  66.782  0.00  0.00     0.077 A 
ATOM     22  H1  non d ame      -9.959  14.566  64.984  0.00  0.00     0.091 H 
ATOM     23  O1  non d ame     -12.000  13.290  67.153  0.00  0.00    -0.218 OA
ATOM     24  N1  non d ame     -11.899  12.291  66.307  0.00  0.00    -0.123 NA
BRANCH  21  25
ATOM     25  C3  non d ame     -11.149  15.637  67.513  0.00  0.00    -0.029 C 
ATOM     26  H2  non d ame     -10.355  16.228  67.054  0.00  0.00     0.036 H 
ATOM     27  H3  non d ame     -12.091  16.181  67.447  0.00  0.00     0.036 H 
ATOM     28  H4  non d ame     -10.907  15.455  68.560  0.00  0.00     0.036 H 
ENDBRANCH  21  25
ENDBRANCH  16  19
ENDBRANCH  13  15
BRANCH  13  29
ATOM     29  C8  non d ame      -8.231  11.028  61.952  0.00  0.00    -0.049 C 
ATOM     30  H7  non d ame      -8.514  10.740  60.940  0.00  0.00     0.030 H 
ATOM     31  H8  non d ame      -8.427  12.090  62.096  0.00  0.00     0.030 H 
ATOM     32  H9  non d ame      -7.169  10.831  62.101  0.00  0.00     0.030 H 
ENDBRANCH  13  29
ENDBRANCH  10  13
ENDBRANCH   7   9
BRANCH   7  33
ATOM     33  C11 non d ame      -5.273   8.563  65.798  0.00  0.00    -0.033 C 
ATOM     34  H12 non d ame      -5.289   8.195  66.824  0.00  0.00     0.042 H 
BRANCH  33  35
ATOM     35  C12 non d ame      -3.978   8.012  65.123  0.00  0.00    -0.071 C 
ATOM     36  H13 non d ame      -3.826   8.514  64.167  0.00  0.00     0.028 H 
ATOM     37  H14 non d ame      -3.123   8.199  65.771  0.00  0.00     0.028 H 
ATOM     38  H15 non d ame      -4.083   6.940  64.958  0.00  0.00     0.028 H 
ENDBRANCH  33  35
BRANCH  33  39
ATOM     39  C13 non d ame      -5.267  10.124  65.845  0.00  0.00    -0.071 C 
ATOM     40  H16 non d ame      -4.241  10.482  65.922  0.00  0.00     0.028 H 
ATOM     41  H17 non d ame      -5.721  10.517  64.935  0.00  0.00     0.028 H 
ATOM     42  H18 non d ame      -5.836  10.464  66.710  0.00  0.00     0.028 H 
ENDBRANCH  33  39
ENDBRANCH   7  33
ENDBRANCH   4   7
ENDBRANCH   1   3
BRANCH   1  43
ATOM     43  C15 non d ame      -9.999   6.203  67.211  0.00  0.00     0.240 C 
ATOM     44  O5  non d ame     -10.879   6.712  66.595  0.00  0.00    -0.271 OA
ATOM     45  N6  non d ame      -9.876   6.455  68.675  0.00  0.00    -0.355 N 
ATOM     46  H46 non d ame      -9.136   6.025  69.210  0.00  0.00     0.162 HD
BRANCH  45  47
ATOM     47  C20 non d ame     -10.847   7.344  69.349  0.00  0.00     0.013 C 
ATOM     48  H30 non d ame     -11.717   7.445  68.700  0.00  0.00     0.072 H 
BRANCH  47  49
ATOM     49  C21 non d ame     -10.212   8.698  69.575  0.00  0.00    -0.038 C 
ATOM     50  H31 non d ame     -10.140   8.813  70.657  0.00  0.00     0.036 H 
ATOM     51  H32 non d ame      -9.309   8.704  68.964  0.00  0.00     0.036 H 
BRANCH  49  52
ATOM     52  C22 non d ame     -11.090   9.863  69.069  0.00  0.00     0.018 C 
ATOM     53  H33 non d ame     -10.395  10.653  68.781  0.00  0.00     0.048 H 
ATOM     54  H34 non d ame     -11.759   9.428  68.327  0.00  0.00     0.048 H 
BRANCH  52  55
ATOM     55  C23 non d ame     -12.006  10.478  70.163  0.00  0.00     0.259 C 
ATOM     56  O7  non d ame     -12.655   9.777  70.870  0.00  0.00    -0.265 OA
BRANCH  55  57
ATOM     57  O8  non d ame     -12.071  11.892  70.304  0.00  0.00    -0.317 OA
BRANCH  57  58
ATOM     58  C29 non d ame     -13.083  12.341  71.210  0.00  0.00     0.052 C 
ATOM     59  H47 non d ame     -13.997  12.411  70.620  0.00  0.00     0.082 H 
ATOM     60  H48 non d ame     -13.036  11.666  72.063  0.00  0.00     0.082 H 
BRANCH  58  61
ATOM     61  C35 non d ame     -12.698  13.766  71.689  0.00  0.00    -0.034 A 
ATOM     62  C30 non d ame     -11.939  14.596  70.870  0.00  0.00    -0.075 A 
ATOM     63  C31 non d ame     -11.593  15.876  71.301  0.00  0.00    -0.082 A 
ATOM     64  H49 non d ame     -11.616  14.243  69.890  0.00  0.00     0.084 H 
ATOM     65  C32 non d ame     -12.007  16.325  72.558  0.00  0.00    -0.083 A 
ATOM     66  H50 non d ame     -11.001  16.524  70.655  0.00  0.00     0.083 H 
ATOM     67  C33 non d ame     -12.762  15.492  73.373  0.00  0.00    -0.082 A 
ATOM     68  H51 non d ame     -11.742  17.324  72.902  0.00  0.00     0.083 H 
ATOM     69  C34 non d ame     -13.112  14.213  72.946  0.00  0.00    -0.075 A 
ATOM     70  H52 non d ame     -13.082  15.844  74.354  0.00  0.00     0.083 H 
ATOM     71  H53 non d ame     -13.705  13.565  73.591  0.00  0.00     0.084 H 
ENDBRANCH  58  61
ENDBRANCH  57  58
ENDBRANCH  55  57
ENDBRANCH  52  55
ENDBRANCH  49  52
ENDBRANCH  47  49
BRANCH  47  72
ATOM     72  C24 non d ame     -11.253   6.741  70.692  0.00  0.00    -0.039 C 
ATOM     73  H35 non d ame     -12.208   7.205  70.942  0.00  0.00     0.036 H 
ATOM     74  H36 non d ame     -11.192   5.662  70.556  0.00  0.00     0.036 H 
BRANCH  72  75
ATOM     75  C25 non d ame     -10.221   7.131  71.854  0.00  0.00    -0.001 C 
ATOM     76  C26 non d ame      -9.337   5.813  72.283  0.00  0.00    -0.035 C 
ATOM     77  C27 non d ame      -9.395   5.667  73.628  0.00  0.00     0.085 C 
ATOM     78  H38 non d ame      -9.811   4.906  71.907  0.00  0.00     0.036 H 
ATOM     79  H39 non d ame      -8.279   5.993  72.092  0.00  0.00     0.036 H 
ATOM     80  N5  non d ame     -10.501   6.568  74.122  0.00  0.00    -0.049 N 
ATOM     81  H40 non d ame      -9.682   4.628  73.797  0.00  0.00     0.075 H 
ATOM     82  H41 non d ame      -8.442   6.037  74.003  0.00  0.00     0.075 H 
ATOM     83  C28 non d ame     -10.838   7.568  72.900  0.00  0.00     0.193 C 
ATOM     84  H42 non d ame     -11.303   5.976  74.283  0.00  0.00     0.280 HD
ATOM     85  H43 non d ame     -10.112   7.109  74.882  0.00  0.00     0.280 HD
ATOM     86  H44 non d ame     -10.490   8.601  72.918  0.00  0.00     0.129 H 
ATOM     87  H37 non d ame      -9.671   8.045  71.628  0.00  0.00     0.046 H 
BRANCH  83  88
ATOM     88  O6  non d ame     -12.251   7.644  72.701  0.00  0.00    -0.369 OA
ATOM     89  H45 non d ame     -12.700   7.485  73.534  0.00  0.00     0.212 HD
ENDBRANCH  83  88
ENDBRANCH  72  75
ENDBRANCH  47  72
ENDBRANCH  45  47
ENDBRANCH   1  43
BRANCH   1  90
ATOM     90  C16 non d ame      -8.056   4.635  67.507  0.00  0.00    -0.035 C 
ATOM     91  H21 non d ame      -7.058   4.986  67.245  0.00  0.00     0.037 H 
ATOM     92  H22 non d ame      -8.482   4.882  68.480  0.00  0.00     0.037 H 
BRANCH  90  93
ATOM     93  C17 non d ame      -8.010   3.076  67.429  0.00  0.00    -0.059 C 
ATOM     94  H23 non d ame      -7.791   2.803  66.397  0.00  0.00     0.038 H 
BRANCH  93  95
ATOM     95  C18 non d ame      -6.883   2.474  68.329  0.00  0.00    -0.073 C 
ATOM     96  H24 non d ame      -7.203   1.505  68.711  0.00  0.00     0.028 H 
ATOM     97  H25 non d ame      -5.974   2.351  67.740  0.00  0.00     0.028 H 
ATOM     98  H26 non d ame      -6.687   3.147  69.164  0.00  0.00     0.028 H 
ENDBRANCH  93  95
BRANCH  93  99
ATOM     99  C19 non d ame      -9.371   2.470  67.782  0.00  0.00    -0.073 C 
ATOM    100  H27 non d ame      -9.610   2.694  68.822  0.00  0.00     0.028 H 
ATOM    101  H28 non d ame     -10.137   2.896  67.133  0.00  0.00     0.028 H 
ATOM    102  H29 non d ame      -9.335   1.390  67.641  0.00  0.00     0.028 H 
ENDBRANCH  93  99
ENDBRANCH  90  93
ENDBRANCH   1  90
TORSDOF 26
ENDMDL
MODEL 20
REMARK VINA RESULT:      -6.0      3.079      7.769
REMARK  26 active torsions:
REMARK  status: ('A' for Active; 'I' for Inactive)
REMARK    1  A    between atoms: C2_2  and  C3_3 
REMARK    2  A    between atoms: C4_6  and  C5_7 
REMARK       I    between atoms: C5_7  and  N2_9 
REMARK    3  A    between atoms: N2_9  and  C6_10 
REMARK    4  A    between atoms: C6_10  and  C7_11 
REMARK    5  A    between atoms: C6_10  and  C8_13 
REMARK       I    between atoms: C7_11  and  N3_14 
REMARK    6  A    between atoms: N3_14  and  C9_15 
REMARK    7  A    between atoms: C9_15  and  C10_16 
REMARK    8  A    between atoms: C9_15  and  C11_18 
REMARK       I    between atoms: C10_16  and  N4_21 
REMARK    9  A    between atoms: C11_18  and  C12_19 
REMARK   10  A    between atoms: C11_18  and  C13_20 
REMARK   11  A    between atoms: N4_21  and  C14_22 
REMARK   12  A    between atoms: C14_22  and  C15_23 
REMARK   13  A    between atoms: C14_22  and  C16_25 
REMARK       I    between atoms: C15_23  and  N6_40 
REMARK   14  A    between atoms: C16_25  and  C17_26 
REMARK   15  A    between atoms: C17_26  and  C18_27 
REMARK   16  A    between atoms: C17_26  and  C19_28 
REMARK   17  A    between atoms: C20_29  and  C21_30 
REMARK   18  A    between atoms: C20_29  and  C24_33 
REMARK   19  A    between atoms: C20_29  and  N6_40 
REMARK   20  A    between atoms: C21_30  and  C22_31 
REMARK   21  A    between atoms: C22_31  and  C23_32 
REMARK   22  A    between atoms: C23_32  and  O8_43 
REMARK   23  A    between atoms: C24_33  and  C25_34 
REMARK   24  A    between atoms: C28_38  and  O6_39 
REMARK   25  A    between atoms: C29_42  and  O8_43 
REMARK   26  A    between atoms: C29_42  and  C35_49 
ROOT
ATOM      1  C14 non d ame      -6.813   9.718  64.523  0.00  0.00     0.089 C 
ATOM      2  H20 non d ame      -6.334  10.083  63.614  0.00  0.00     0.087 H 
ENDROOT
BRANCH   1   3
ATOM      3  N4  non d ame      -6.001  10.152  65.651  0.00  0.00    -0.346 N 
ATOM      4  C10 non d ame      -4.790  11.022  65.428  0.00  0.00     0.241 C 
ATOM      5  O4  non d ame      -4.487  11.358  64.331  0.00  0.00    -0.271 OA
ATOM      6  H19 non d ame      -6.275   9.852  66.576  0.00  0.00     0.163 HD
BRANCH   4   7
ATOM      7  C9  non d ame      -3.965  11.466  66.607  0.00  0.00     0.092 C 
ATOM      8  H11 non d ame      -3.246  12.217  66.279  0.00  0.00     0.088 H 
BRANCH   7   9
ATOM      9  N3  non d ame      -4.834  12.104  67.600  0.00  0.00    -0.346 N 
ATOM     10  C7  non d ame      -4.757  13.528  67.816  0.00  0.00     0.240 C 
ATOM     11  O3  non d ame      -4.000  14.175  67.201  0.00  0.00    -0.271 OA
ATOM     12  H10 non d ame      -5.491  11.559  68.139  0.00  0.00     0.163 HD
BRANCH  10  13
ATOM     13  C6  non d ame      -5.683  14.201  68.877  0.00  0.00     0.086 C 
ATOM     14  H6  non d ame      -5.144  14.882  69.535  0.00  0.00     0.086 H 
BRANCH  13  15
ATOM     15  N2  non d ame      -6.688  14.995  68.189  0.00  0.00    -0.343 N 
ATOM     16  C5  non d ame      -6.543  16.451  68.136  0.00  0.00     0.273 C 
ATOM     17  O2  non d ame      -5.617  16.975  68.651  0.00  0.00    -0.266 OA
ATOM     18  H5  non d ame      -7.477  14.540  67.754  0.00  0.00     0.163 HD
BRANCH  16  19
ATOM     19  C4  non d ame      -7.597  17.303  67.411  0.00  0.00     0.154 A 
ATOM     20  C1  non d ame      -8.602  18.129  68.009  0.00  0.00    -0.017 A 
ATOM     21  C2  non d ame      -9.304  18.692  66.920  0.00  0.00     0.077 A 
ATOM     22  H1  non d ame      -8.791  18.294  69.069  0.00  0.00     0.091 H 
ATOM     23  O1  non d ame      -8.759  18.238  65.830  0.00  0.00    -0.218 OA
ATOM     24  N1  non d ame      -7.760  17.425  66.091  0.00  0.00    -0.123 NA
BRANCH  21  25
ATOM     25  C3  non d ame     -10.482  19.653  67.008  0.00  0.00    -0.029 C 
ATOM     26  H2  non d ame     -11.396  19.137  66.712  0.00  0.00     0.036 H 
ATOM     27  H3  non d ame     -10.583  20.012  68.032  0.00  0.00     0.036 H 
ATOM     28  H4  non d ame     -10.311  20.500  66.342  0.00  0.00     0.036 H 
ENDBRANCH  21  25
ENDBRANCH  16  19
ENDBRANCH  13  15
BRANCH  13  29
ATOM     29  C8  non d ame      -6.348  13.138  69.713  0.00  0.00    -0.049 C 
ATOM     30  H7  non d ame      -7.336  13.483  70.021  0.00  0.00     0.030 H 
ATOM     31  H8  non d ame      -6.449  12.224  69.128  0.00  0.00     0.030 H 
ATOM     32  H9  non d ame      -5.742  12.939  70.597  0.00  0.00     0.030 H 
ENDBRANCH  13  29
ENDBRANCH  10  13
ENDBRANCH   7   9
BRANCH   7  33
ATOM     33  C11 non d ame      -3.270  10.230  67.248  0.00  0.00    -0.033 C 
ATOM     34  H12 non d ame      -2.318  10.565  67.661  0.00  0.00     0.042 H 
BRANCH  33  35
ATOM     35  C12 non d ame      -4.114   9.650  68.426  0.00  0.00    -0.071 C 
ATOM     36  H13 non d ame      -4.821  10.405  68.771  0.00  0.00     0.028 H 
ATOM     37  H14 non d ame      -4.659   8.771  68.084  0.00  0.00     0.028 H 
ATOM     38  H15 non d ame      -3.451   9.371  69.245  0.00  0.00     0.028 H 
ENDBRANCH  33  35
BRANCH  33  39
ATOM     39  C13 non d ame      -2.971   9.136  66.173  0.00  0.00    -0.071 C 
ATOM     40  H16 non d ame      -2.070   9.403  65.623  0.00  0.00     0.028 H 
ATOM     41  H17 non d ame      -2.824   8.174  66.665  0.00  0.00     0.028 H 
ATOM     42  H18 non d ame      -3.812   9.066  65.483  0.00  0.00     0.028 H 
ENDBRANCH  33  39
ENDBRANCH   7  33
ENDBRANCH   4   7
ENDBRANCH   1   3
BRANCH   1  43
ATOM     43  C15 non d ame      -8.250  10.287  64.699  0.00  0.00     0.240 C 
ATOM     44  O5  non d ame      -9.084  10.047  63.888  0.00  0.00    -0.271 OA
ATOM     45  N6  non d ame      -8.588  11.125  65.885  0.00  0.00    -0.355 N 
ATOM     46  H46 non d ame      -7.889  11.332  66.583  0.00  0.00     0.162 HD
BRANCH  45  47
ATOM     47  C20 non d ame      -9.959  11.658  66.038  0.00  0.00     0.013 C 
ATOM     48  H30 non d ame     -10.348  11.875  65.043  0.00  0.00     0.072 H 
BRANCH  47  49
ATOM     49  C21 non d ame      -9.914  12.924  66.863  0.00  0.00    -0.038 C 
ATOM     50  H31 non d ame      -9.626  12.612  67.867  0.00  0.00     0.036 H 
ATOM     51  H32 non d ame      -9.282  13.616  66.305  0.00  0.00     0.036 H 
BRANCH  49  52
ATOM     52  C22 non d ame     -11.294  13.603  66.995  0.00  0.00     0.018 C 
ATOM     53  H33 non d ame     -11.829  13.367  66.075  0.00  0.00     0.048 H 
ATOM     54  H34 non d ame     -11.693  13.277  67.956  0.00  0.00     0.048 H 
BRANCH  52  55
ATOM     55  C23 non d ame     -11.225  15.154  67.065  0.00  0.00     0.259 C 
ATOM     56  O7  non d ame     -10.884  15.786  66.118  0.00  0.00    -0.265 OA
BRANCH  55  57
ATOM     57  O8  non d ame     -11.563  15.813  68.279  0.00  0.00    -0.317 OA
BRANCH  57  58
ATOM     58  C29 non d ame     -10.774  15.406  69.401  0.00  0.00     0.052 C 
ATOM     59  H47 non d ame     -10.222  14.527  69.070  0.00  0.00     0.082 H 
ATOM     60  H48 non d ame     -10.237  16.298  69.723  0.00  0.00     0.082 H 
BRANCH  58  61
ATOM     61  C35 non d ame     -11.742  14.980  70.537  0.00  0.00    -0.034 A 
ATOM     62  C30 non d ame     -12.238  13.681  70.579  0.00  0.00    -0.075 A 
ATOM     63  C31 non d ame     -13.107  13.297  71.599  0.00  0.00    -0.082 A 
ATOM     64  H49 non d ame     -11.945  12.963  69.813  0.00  0.00     0.084 H 
ATOM     65  C32 non d ame     -13.482  14.220  72.580  0.00  0.00    -0.083 A 
ATOM     66  H50 non d ame     -13.492  12.278  71.631  0.00  0.00     0.083 H 
ATOM     67  C33 non d ame     -12.987  15.516  72.532  0.00  0.00    -0.082 A 
ATOM     68  H51 non d ame     -14.161  13.929  73.381  0.00  0.00     0.083 H 
ATOM     69  C34 non d ame     -12.117  15.903  71.515  0.00  0.00    -0.075 A 
ATOM     70  H52 non d ame     -13.284  16.234  73.297  0.00  0.00     0.083 H 
ATOM     71  H53 non d ame     -11.732  16.923  71.486  0.00  0.00     0.084 H 
ENDBRANCH  58  61
ENDBRANCH  57  58
ENDBRANCH  55  57
ENDBRANCH  52  55
ENDBRANCH  49  52
ENDBRANCH  47  49
BRANCH  47  72
ATOM     72  C24 non d ame     -10.839  10.625  66.738  0.00  0.00    -0.039 C 
ATOM     73  H35 non d ame     -11.771  11.143  66.964  0.00  0.00     0.036 H 
ATOM     74  H36 non d ame     -10.845   9.756  66.080  0.00  0.00     0.036 H 
BRANCH  72  75
ATOM     75  C25 non d ame     -10.208  10.156  68.134  0.00  0.00    -0.001 C 
ATOM     76  C26 non d ame      -9.611   8.630  67.995  0.00  0.00    -0.035 C 
ATOM     77  C27 non d ame     -10.109   7.874  69.002  0.00  0.00     0.085 C 
ATOM     78  H38 non d ame     -10.007   8.155  67.098  0.00  0.00     0.036 H 
ATOM     79  H39 non d ame      -8.537   8.630  68.183  0.00  0.00     0.036 H 
ATOM     80  N5  non d ame     -11.243   8.654  69.621  0.00  0.00    -0.049 N 
ATOM     81  H40 non d ame     -10.513   6.980  68.523  0.00  0.00     0.075 H 
ATOM     82  H41 non d ame      -9.301   7.786  69.727  0.00  0.00     0.075 H 
ATOM     83  C28 non d ame     -11.093  10.165  69.074  0.00  0.00     0.193 C 
ATOM     84  H42 non d ame     -12.097   8.261  69.251  0.00  0.00     0.280 HD
ATOM     85  H43 non d ame     -11.079   8.656  70.618  0.00  0.00     0.280 HD
ATOM     86  H44 non d ame     -10.692  10.950  69.716  0.00  0.00     0.129 H 
ATOM     87  H37 non d ame      -9.547  10.910  68.562  0.00  0.00     0.046 H 
BRANCH  83  88
ATOM     88  O6  non d ame     -12.357  10.653  68.619  0.00  0.00    -0.369 OA
ATOM     89  H45 non d ame     -12.297  10.877  67.688  0.00  0.00     0.212 HD
ENDBRANCH  83  88
ENDBRANCH  72  75
ENDBRANCH  47  72
ENDBRANCH  45  47
ENDBRANCH   1  43
BRANCH   1  90
ATOM     90  C16 non d ame      -6.864   8.199  64.504  0.00  0.00    -0.035 C 
ATOM     91  H21 non d ame      -6.221   7.878  65.324  0.00  0.00     0.037 H 
ATOM     92  H22 non d ame      -7.924   7.945  64.512  0.00  0.00     0.037 H 
BRANCH  90  93
ATOM     93  C17 non d ame      -6.269   7.568  63.205  0.00  0.00    -0.059 C 
ATOM     94  H23 non d ame      -7.084   7.452  62.490  0.00  0.00     0.038 H 
BRANCH  93  95
ATOM     95  C18 non d ame      -5.186   8.483  62.548  0.00  0.00    -0.073 C 
ATOM     96  H24 non d ame      -5.191   8.333  61.468  0.00  0.00     0.028 H 
ATOM     97  H25 non d ame      -5.410   9.527  62.770  0.00  0.00     0.028 H 
ATOM     98  H26 non d ame      -4.205   8.229  62.947  0.00  0.00     0.028 H 
ENDBRANCH  93  95
BRANCH  93  99
ATOM     99  C19 non d ame      -5.706   6.172  63.483  0.00  0.00    -0.073 C 
ATOM    100  H27 non d ame      -5.889   5.907  64.524  0.00  0.00     0.028 H 
ATOM    101  H28 non d ame      -6.194   5.447  62.831  0.00  0.00     0.028 H 
ATOM    102  H29 non d ame      -4.633   6.168  63.290  0.00  0.00     0.028 H 
ENDBRANCH  93  99
ENDBRANCH  90  93
ENDBRANCH   1  90
TORSDOF 26
ENDMDL
