MODEL 1
REMARK VINA RESULT:      -7.3      0.000      0.000
REMARK  26 active torsions:
REMARK  status: ('A' for Active; 'I' for Inactive)
REMARK    1  A    between atoms: C2_2  and  C3_3 
REMARK    2  A    between atoms: C4_6  and  C5_7 
REMARK       I    between atoms: C5_7  and  N2_9 
REMARK    3  A    between atoms: N2_9  and  C6_10 
REMARK    4  A    between atoms: C6_10  and  C7_11 
REMARK    5  A    between atoms: C6_10  and  C8_13 
REMARK       I    between atoms: C7_11  and  N3_14 
REMARK    6  A    between atoms: N3_14  and  C9_15 
REMARK    7  A    between atoms: C9_15  and  C10_16 
REMARK    8  A    between atoms: C9_15  and  C11_18 
REMARK       I    between atoms: C10_16  and  N4_21 
REMARK    9  A    between atoms: C11_18  and  C12_19 
REMARK   10  A    between atoms: C11_18  and  C13_20 
REMARK   11  A    between atoms: N4_21  and  C14_22 
REMARK   12  A    between atoms: C14_22  and  C15_23 
REMARK   13  A    between atoms: C14_22  and  C16_25 
REMARK       I    between atoms: C15_23  and  N6_40 
REMARK   14  A    between atoms: C16_25  and  C17_26 
REMARK   15  A    between atoms: C17_26  and  C18_27 
REMARK   16  A    between atoms: C17_26  and  C19_28 
REMARK   17  A    between atoms: C20_29  and  C21_30 
REMARK   18  A    between atoms: C20_29  and  C24_33 
REMARK   19  A    between atoms: C20_29  and  N6_40 
REMARK   20  A    between atoms: C21_30  and  C22_31 
REMARK   21  A    between atoms: C22_31  and  C23_32 
REMARK   22  A    between atoms: C23_32  and  O8_43 
REMARK   23  A    between atoms: C24_33  and  C25_34 
REMARK   24  A    between atoms: C28_38  and  O6_39 
REMARK   25  A    between atoms: C29_42  and  O8_43 
REMARK   26  A    between atoms: C29_42  and  C35_49 
ROOT
ATOM      1  C14 non d ame     -10.213  10.452  68.610  0.00  0.00     0.089 C 
ATOM      2  H20 non d ame      -9.433  10.518  69.368  0.00  0.00     0.087 H 
ENDROOT
BRANCH   1   3
ATOM      3  N4  non d ame     -10.761   9.104  68.662  0.00  0.00    -0.346 N 
ATOM      4  C10 non d ame     -10.025   8.010  69.393  0.00  0.00     0.241 C 
ATOM      5  O4  non d ame      -8.991   8.238  69.930  0.00  0.00    -0.271 OA
ATOM      6  H19 non d ame     -11.641   8.931  68.196  0.00  0.00     0.163 HD
BRANCH   4   7
ATOM      7  C9  non d ame     -10.609   6.623  69.442  0.00  0.00     0.092 C 
ATOM      8  H11 non d ame     -11.673   6.674  69.209  0.00  0.00     0.088 H 
BRANCH   7   9
ATOM      9  N3  non d ame      -9.980   5.791  68.412  0.00  0.00    -0.346 N 
ATOM     10  C7  non d ame     -10.414   5.892  67.040  0.00  0.00     0.240 C 
ATOM     11  O3  non d ame     -11.269   6.636  66.748  0.00  0.00    -0.271 OA
ATOM     12  H10 non d ame      -9.243   5.143  68.649  0.00  0.00     0.163 HD
BRANCH  10  13
ATOM     13  C6  non d ame      -9.743   5.002  65.948  0.00  0.00     0.086 C 
ATOM     14  H6  non d ame     -10.368   4.873  65.065  0.00  0.00     0.086 H 
BRANCH  13  15
ATOM     15  N2  non d ame      -8.519   5.647  65.501  0.00  0.00    -0.343 N 
ATOM     16  C5  non d ame      -8.123   5.545  64.095  0.00  0.00     0.273 C 
ATOM     17  O2  non d ame      -8.794   4.940  63.332  0.00  0.00    -0.266 OA
ATOM     18  H5  non d ame      -7.951   6.160  66.160  0.00  0.00     0.163 HD
BRANCH  16  19
ATOM     19  C4  non d ame      -6.833   6.223  63.607  0.00  0.00     0.154 A 
ATOM     20  C1  non d ame      -6.550   7.625  63.583  0.00  0.00    -0.017 A 
ATOM     21  C2  non d ame      -5.244   7.723  63.052  0.00  0.00     0.077 A 
ATOM     22  H1  non d ame      -7.192   8.446  63.902  0.00  0.00     0.091 H 
ATOM     23  O1  non d ame      -4.835   6.513  62.804  0.00  0.00    -0.218 OA
ATOM     24  N1  non d ame      -5.745   5.621  63.120  0.00  0.00    -0.123 NA
BRANCH  21  25
ATOM     25  C3  non d ame      -4.462   9.008  62.814  0.00  0.00    -0.029 C 
ATOM     26  H2  non d ame      -4.751   9.438  61.855  0.00  0.00     0.036 H 
ATOM     27  H3  non d ame      -4.679   9.718  63.611  0.00  0.00     0.036 H 
ATOM     28  H4  non d ame      -3.394   8.787  62.805  0.00  0.00     0.036 H 
ENDBRANCH  21  25
ENDBRANCH  16  19
ENDBRANCH  13  15
BRANCH  13  29
ATOM     29  C8  non d ame      -9.430   3.645  66.525  0.00  0.00    -0.049 C 
ATOM     30  H7  non d ame      -8.481   3.288  66.124  0.00  0.00     0.030 H 
ATOM     31  H8  non d ame      -9.360   3.718  67.611  0.00  0.00     0.030 H 
ATOM     32  H9  non d ame     -10.222   2.945  66.259  0.00  0.00     0.030 H 
ENDBRANCH  13  29
ENDBRANCH  10  13
ENDBRANCH   7   9
BRANCH   7  33
ATOM     33  C11 non d ame     -10.345   5.998  70.843  0.00  0.00    -0.033 C 
ATOM     34  H12 non d ame      -9.520   6.546  71.297  0.00  0.00     0.042 H 
BRANCH  33  35
ATOM     35  C12 non d ame     -11.584   6.155  71.778  0.00  0.00    -0.071 C 
ATOM     36  H13 non d ame     -11.565   7.141  72.243  0.00  0.00     0.028 H 
ATOM     37  H14 non d ame     -12.497   6.048  71.193  0.00  0.00     0.028 H 
ATOM     38  H15 non d ame     -11.555   5.388  72.551  0.00  0.00     0.028 H 
ENDBRANCH  33  35
BRANCH  33  39
ATOM     39  C13 non d ame      -9.918   4.500  70.715  0.00  0.00    -0.071 C 
ATOM     40  H16 non d ame      -9.496   4.326  69.726  0.00  0.00     0.028 H 
ATOM     41  H17 non d ame      -9.171   4.269  71.475  0.00  0.00     0.028 H 
ATOM     42  H18 non d ame     -10.790   3.861  70.856  0.00  0.00     0.028 H 
ENDBRANCH  33  39
ENDBRANCH   7  33
ENDBRANCH   4   7
ENDBRANCH   1   3
BRANCH   1  43
ATOM     43  C15 non d ame     -11.366  11.465  68.863  0.00  0.00     0.240 C 
ATOM     44  O5  non d ame     -12.496  11.111  68.766  0.00  0.00    -0.271 OA
ATOM     45  N6  non d ame     -11.060  12.876  69.236  0.00  0.00    -0.355 N 
ATOM     46  H46 non d ame     -10.104  13.187  69.326  0.00  0.00     0.162 HD
BRANCH  45  47
ATOM     47  C20 non d ame     -12.167  13.827  69.475  0.00  0.00     0.013 C 
ATOM     48  H30 non d ame     -13.039  13.471  68.926  0.00  0.00     0.072 H 
BRANCH  47  49
ATOM     49  C21 non d ame     -11.766  15.196  68.976  0.00  0.00    -0.038 C 
ATOM     50  H31 non d ame     -12.347  15.361  68.069  0.00  0.00     0.036 H 
ATOM     51  H32 non d ame     -11.884  15.866  69.829  0.00  0.00     0.036 H 
BRANCH  49  52
ATOM     52  C22 non d ame     -10.280  15.272  68.564  0.00  0.00     0.018 C 
ATOM     53  H33 non d ame      -9.763  15.733  69.406  0.00  0.00     0.048 H 
ATOM     54  H34 non d ame     -10.011  14.265  68.244  0.00  0.00     0.048 H 
BRANCH  52  55
ATOM     55  C23 non d ame     -10.015  16.195  67.342  0.00  0.00     0.259 C 
ATOM     56  O7  non d ame     -10.024  17.377  67.466  0.00  0.00    -0.265 OA
BRANCH  55  57
ATOM     57  O8  non d ame      -9.775  15.612  66.068  0.00  0.00    -0.317 OA
BRANCH  57  58
ATOM     58  C29 non d ame      -9.429  14.225  66.118  0.00  0.00     0.052 C 
ATOM     59  H47 non d ame      -8.459  14.145  65.627  0.00  0.00     0.082 H 
ATOM     60  H48 non d ame      -9.537  13.931  67.161  0.00  0.00     0.082 H 
BRANCH  58  61
ATOM     61  C35 non d ame     -10.471  13.441  65.277  0.00  0.00    -0.034 A 
ATOM     62  C30 non d ame     -10.076  12.775  64.121  0.00  0.00    -0.075 A 
ATOM     63  C31 non d ame     -11.012  12.071  63.365  0.00  0.00    -0.082 A 
ATOM     64  H49 non d ame      -9.032  12.805  63.808  0.00  0.00     0.084 H 
ATOM     65  C32 non d ame     -12.350  12.036  63.768  0.00  0.00    -0.083 A 
ATOM     66  H50 non d ame     -10.698  11.549  62.461  0.00  0.00     0.083 H 
ATOM     67  C33 non d ame     -12.740  12.705  64.920  0.00  0.00    -0.082 A 
ATOM     68  H51 non d ame     -13.088  11.488  63.183  0.00  0.00     0.083 H 
ATOM     69  C34 non d ame     -11.808  13.408  65.680  0.00  0.00    -0.075 A 
ATOM     70  H52 non d ame     -13.785  12.677  65.231  0.00  0.00     0.083 H 
ATOM     71  H53 non d ame     -12.122  13.929  66.584  0.00  0.00     0.084 H 
ENDBRANCH  58  61
ENDBRANCH  57  58
ENDBRANCH  55  57
ENDBRANCH  52  55
ENDBRANCH  49  52
ENDBRANCH  47  49
BRANCH  47  72
ATOM     72  C24 non d ame     -12.474  13.898  70.970  0.00  0.00    -0.039 C 
ATOM     73  H35 non d ame     -13.342  13.255  71.119  0.00  0.00     0.036 H 
ATOM     74  H36 non d ame     -11.533  13.666  71.470  0.00  0.00     0.036 H 
BRANCH  72  75
ATOM     75  C25 non d ame     -12.897  15.376  71.418  0.00  0.00    -0.001 C 
ATOM     76  C26 non d ame     -11.787  15.981  72.471  0.00  0.00    -0.035 C 
ATOM     77  C27 non d ame     -12.433  16.440  73.570  0.00  0.00     0.085 C 
ATOM     78  H38 non d ame     -11.164  15.176  72.860  0.00  0.00     0.036 H 
ATOM     79  H39 non d ame     -11.325  16.876  72.055  0.00  0.00     0.036 H 
ATOM     80  N5  non d ame     -13.845  15.909  73.506  0.00  0.00    -0.049 N 
ATOM     81  H40 non d ame     -11.921  15.987  74.420  0.00  0.00     0.075 H 
ATOM     82  H41 non d ame     -12.456  17.524  73.462  0.00  0.00     0.075 H 
ATOM     83  C28 non d ame     -14.052  15.377  71.996  0.00  0.00     0.193 C 
ATOM     84  H42 non d ame     -13.882  15.118  74.133  0.00  0.00     0.280 HD
ATOM     85  H43 non d ame     -14.455  16.700  73.654  0.00  0.00     0.280 HD
ATOM     86  H44 non d ame     -14.631  15.958  71.278  0.00  0.00     0.129 H 
ATOM     87  H37 non d ame     -13.168  16.004  70.569  0.00  0.00     0.046 H 
BRANCH  83  88
ATOM     88  O6  non d ame     -14.649  14.079  72.008  0.00  0.00    -0.369 OA
ATOM     89  H45 non d ame     -15.236  14.005  72.764  0.00  0.00     0.212 HD
ENDBRANCH  83  88
ENDBRANCH  72  75
ENDBRANCH  47  72
ENDBRANCH  45  47
ENDBRANCH   1  43
BRANCH   1  90
ATOM     90  C16 non d ame      -9.615  10.691  67.233  0.00  0.00    -0.035 C 
ATOM     91  H21 non d ame     -10.452  10.999  66.604  0.00  0.00     0.037 H 
ATOM     92  H22 non d ame      -8.778  11.371  67.396  0.00  0.00     0.037 H 
BRANCH  90  93
ATOM     93  C17 non d ame      -9.019   9.406  66.576  0.00  0.00    -0.059 C 
ATOM     94  H23 non d ame      -9.412   8.545  67.117  0.00  0.00     0.038 H 
BRANCH  93  95
ATOM     95  C18 non d ame      -9.440   9.259  65.079  0.00  0.00    -0.073 C 
ATOM     96  H24 non d ame      -9.961  10.162  64.758  0.00  0.00     0.028 H 
ATOM     97  H25 non d ame      -8.552   9.114  64.464  0.00  0.00     0.028 H 
ATOM     98  H26 non d ame     -10.102   8.400  64.970  0.00  0.00     0.028 H 
ENDBRANCH  93  95
BRANCH  93  99
ATOM     99  C19 non d ame      -7.495   9.376  66.719  0.00  0.00    -0.073 C 
ATOM    100  H27 non d ame      -7.048  10.050  65.988  0.00  0.00     0.028 H 
ATOM    101  H28 non d ame      -7.218   9.694  67.724  0.00  0.00     0.028 H 
ATOM    102  H29 non d ame      -7.134   8.362  66.546  0.00  0.00     0.028 H 
ENDBRANCH  93  99
ENDBRANCH  90  93
ENDBRANCH   1  90
TORSDOF 26
ENDMDL
MODEL 2
REMARK VINA RESULT:      -6.8      2.415      6.022
REMARK  26 active torsions:
REMARK  status: ('A' for Active; 'I' for Inactive)
REMARK    1  A    between atoms: C2_2  and  C3_3 
REMARK    2  A    between atoms: C4_6  and  C5_7 
REMARK       I    between atoms: C5_7  and  N2_9 
REMARK    3  A    between atoms: N2_9  and  C6_10 
REMARK    4  A    between atoms: C6_10  and  C7_11 
REMARK    5  A    between atoms: C6_10  and  C8_13 
REMARK       I    between atoms: C7_11  and  N3_14 
REMARK    6  A    between atoms: N3_14  and  C9_15 
REMARK    7  A    between atoms: C9_15  and  C10_16 
REMARK    8  A    between atoms: C9_15  and  C11_18 
REMARK       I    between atoms: C10_16  and  N4_21 
REMARK    9  A    between atoms: C11_18  and  C12_19 
REMARK   10  A    between atoms: C11_18  and  C13_20 
REMARK   11  A    between atoms: N4_21  and  C14_22 
REMARK   12  A    between atoms: C14_22  and  C15_23 
REMARK   13  A    between atoms: C14_22  and  C16_25 
REMARK       I    between atoms: C15_23  and  N6_40 
REMARK   14  A    between atoms: C16_25  and  C17_26 
REMARK   15  A    between atoms: C17_26  and  C18_27 
REMARK   16  A    between atoms: C17_26  and  C19_28 
REMARK   17  A    between atoms: C20_29  and  C21_30 
REMARK   18  A    between atoms: C20_29  and  C24_33 
REMARK   19  A    between atoms: C20_29  and  N6_40 
REMARK   20  A    between atoms: C21_30  and  C22_31 
REMARK   21  A    between atoms: C22_31  and  C23_32 
REMARK   22  A    between atoms: C23_32  and  O8_43 
REMARK   23  A    between atoms: C24_33  and  C25_34 
REMARK   24  A    between atoms: C28_38  and  O6_39 
REMARK   25  A    between atoms: C29_42  and  O8_43 
REMARK   26  A    between atoms: C29_42  and  C35_49 
ROOT
ATOM      1  C14 non d ame      -9.057   9.665  65.183  0.00  0.00     0.089 C 
ATOM      2  H20 non d ame      -8.046   9.963  65.462  0.00  0.00     0.087 H 
ENDROOT
BRANCH   1   3
ATOM      3  N4  non d ame      -9.163   8.228  65.391  0.00  0.00    -0.346 N 
ATOM      4  C10 non d ame      -8.037   7.468  66.046  0.00  0.00     0.241 C 
ATOM      5  O4  non d ame      -7.054   8.033  66.394  0.00  0.00    -0.271 OA
ATOM      6  H19 non d ame     -10.008   7.765  65.086  0.00  0.00     0.163 HD
BRANCH   4   7
ATOM      7  C9  non d ame      -8.167   5.982  66.258  0.00  0.00     0.092 C 
ATOM      8  H11 non d ame      -7.181   5.523  66.187  0.00  0.00     0.088 H 
BRANCH   7   9
ATOM      9  N3  non d ame      -8.670   5.724  67.611  0.00  0.00    -0.346 N 
ATOM     10  C7  non d ame      -7.759   5.314  68.652  0.00  0.00     0.240 C 
ATOM     11  O3  non d ame      -6.619   5.187  68.418  0.00  0.00    -0.271 OA
ATOM     12  H10 non d ame      -9.651   5.828  67.827  0.00  0.00     0.163 HD
BRANCH  10  13
ATOM     13  C6  non d ame      -8.300   5.038  70.089  0.00  0.00     0.086 C 
ATOM     14  H6  non d ame      -7.573   5.272  70.866  0.00  0.00     0.086 H 
BRANCH  13  15
ATOM     15  N2  non d ame      -9.454   5.888  70.329  0.00  0.00    -0.343 N 
ATOM     16  C5  non d ame      -9.293   7.122  71.100  0.00  0.00     0.273 C 
ATOM     17  O2  non d ame      -8.231   7.421  71.524  0.00  0.00    -0.266 OA
ATOM     18  H5  non d ame     -10.359   5.623  69.965  0.00  0.00     0.163 HD
BRANCH  16  19
ATOM     19  C4  non d ame     -10.504   8.031  71.361  0.00  0.00     0.154 A 
ATOM     20  C1  non d ame     -11.786   7.641  71.861  0.00  0.00    -0.017 A 
ATOM     21  C2  non d ame     -12.535   8.838  71.917  0.00  0.00     0.077 A 
ATOM     22  H1  non d ame     -12.122   6.642  72.140  0.00  0.00     0.091 H 
ATOM     23  O1  non d ame     -11.763   9.797  71.498  0.00  0.00    -0.218 OA
ATOM     24  N1  non d ame     -10.573   9.351  71.167  0.00  0.00    -0.123 NA
BRANCH  21  25
ATOM     25  C3  non d ame     -13.977   8.978  72.384  0.00  0.00    -0.029 C 
ATOM     26  H2  non d ame     -14.465   9.776  71.824  0.00  0.00     0.036 H 
ATOM     27  H3  non d ame     -14.506   8.040  72.216  0.00  0.00     0.036 H 
ATOM     28  H4  non d ame     -13.994   9.218  73.448  0.00  0.00     0.036 H 
ENDBRANCH  21  25
ENDBRANCH  16  19
ENDBRANCH  13  15
BRANCH  13  29
ATOM     29  C8  non d ame      -8.693   3.587  70.210  0.00  0.00    -0.049 C 
ATOM     30  H7  non d ame      -9.330   3.455  71.084  0.00  0.00     0.030 H 
ATOM     31  H8  non d ame      -9.235   3.281  69.315  0.00  0.00     0.030 H 
ATOM     32  H9  non d ame      -7.797   2.977  70.318  0.00  0.00     0.030 H 
ENDBRANCH  13  29
ENDBRANCH  10  13
ENDBRANCH   7   9
BRANCH   7  33
ATOM     33  C11 non d ame      -9.163   5.394  65.216  0.00  0.00    -0.033 C 
ATOM     34  H12 non d ame      -9.961   6.124  65.076  0.00  0.00     0.042 H 
BRANCH  33  35
ATOM     35  C12 non d ame      -8.476   5.178  63.832  0.00  0.00    -0.071 C 
ATOM     36  H13 non d ame      -7.588   5.807  63.765  0.00  0.00     0.028 H 
ATOM     37  H14 non d ame      -8.188   4.132  63.729  0.00  0.00     0.028 H 
ATOM     38  H15 non d ame      -9.171   5.445  63.036  0.00  0.00     0.028 H 
ENDBRANCH  33  35
BRANCH  33  39
ATOM     39  C13 non d ame      -9.806   4.071  65.742  0.00  0.00    -0.071 C 
ATOM     40  H16 non d ame     -10.635   4.309  66.408  0.00  0.00     0.028 H 
ATOM     41  H17 non d ame     -10.174   3.486  64.899  0.00  0.00     0.028 H 
ATOM     42  H18 non d ame      -9.057   3.494  66.285  0.00  0.00     0.028 H 
ENDBRANCH  33  39
ENDBRANCH   7  33
ENDBRANCH   4   7
ENDBRANCH   1   3
BRANCH   1  43
ATOM     43  C15 non d ame     -10.138  10.372  66.050  0.00  0.00     0.240 C 
ATOM     44  O5  non d ame     -10.642   9.791  66.956  0.00  0.00    -0.271 OA
ATOM     45  N6  non d ame     -10.538  11.778  65.756  0.00  0.00    -0.355 N 
ATOM     46  H46 non d ame     -10.113  12.283  64.993  0.00  0.00     0.162 HD
BRANCH  45  47
ATOM     47  C20 non d ame     -11.566  12.437  66.591  0.00  0.00     0.013 C 
ATOM     48  H30 non d ame     -12.271  11.674  66.919  0.00  0.00     0.072 H 
BRANCH  47  49
ATOM     49  C21 non d ame     -12.282  13.483  65.767  0.00  0.00    -0.038 C 
ATOM     50  H31 non d ame     -13.069  12.951  65.234  0.00  0.00     0.036 H 
ATOM     51  H32 non d ame     -12.539  14.281  66.465  0.00  0.00     0.036 H 
BRANCH  49  52
ATOM     52  C22 non d ame     -11.377  14.120  64.690  0.00  0.00     0.018 C 
ATOM     53  H33 non d ame     -10.376  14.143  65.120  0.00  0.00     0.048 H 
ATOM     54  H34 non d ame     -11.565  13.557  63.776  0.00  0.00     0.048 H 
BRANCH  52  55
ATOM     55  C23 non d ame     -11.737  15.597  64.364  0.00  0.00     0.259 C 
ATOM     56  O7  non d ame     -12.792  15.871  63.892  0.00  0.00    -0.265 OA
BRANCH  55  57
ATOM     57  O8  non d ame     -10.783  16.620  64.624  0.00  0.00    -0.317 OA
BRANCH  57  58
ATOM     58  C29 non d ame      -9.979  16.384  65.784  0.00  0.00     0.052 C 
ATOM     59  H47 non d ame     -10.627  15.872  66.494  0.00  0.00     0.082 H 
ATOM     60  H48 non d ame      -9.074  15.896  65.421  0.00  0.00     0.082 H 
BRANCH  58  61
ATOM     61  C35 non d ame      -9.587  17.762  66.382  0.00  0.00    -0.034 A 
ATOM     62  C30 non d ame     -10.575  18.636  66.823  0.00  0.00    -0.075 A 
ATOM     63  C31 non d ame     -10.223  19.873  67.361  0.00  0.00    -0.082 A 
ATOM     64  H49 non d ame     -11.624  18.352  66.748  0.00  0.00     0.084 H 
ATOM     65  C32 non d ame      -8.877  20.236  67.454  0.00  0.00    -0.083 A 
ATOM     66  H50 non d ame     -10.999  20.555  67.708  0.00  0.00     0.083 H 
ATOM     67  C33 non d ame      -7.894  19.362  67.009  0.00  0.00    -0.082 A 
ATOM     68  H51 non d ame      -8.593  21.201  67.873  0.00  0.00     0.083 H 
ATOM     69  C34 non d ame      -8.241  18.123  66.473  0.00  0.00    -0.075 A 
ATOM     70  H52 non d ame      -6.845  19.649  67.081  0.00  0.00     0.083 H 
ATOM     71  H53 non d ame      -7.464  17.441  66.127  0.00  0.00     0.084 H 
ENDBRANCH  58  61
ENDBRANCH  57  58
ENDBRANCH  55  57
ENDBRANCH  52  55
ENDBRANCH  49  52
ENDBRANCH  47  49
BRANCH  47  72
ATOM     72  C24 non d ame     -10.904  13.101  67.797  0.00  0.00    -0.039 C 
ATOM     73  H35 non d ame     -10.465  12.286  68.372  0.00  0.00     0.036 H 
ATOM     74  H36 non d ame     -10.266  13.882  67.384  0.00  0.00     0.036 H 
BRANCH  72  75
ATOM     75  C25 non d ame     -11.980  13.820  68.741  0.00  0.00    -0.001 C 
ATOM     76  C26 non d ame     -11.576  15.401  68.947  0.00  0.00    -0.035 C 
ATOM     77  C27 non d ame     -11.569  15.680  70.273  0.00  0.00     0.085 C 
ATOM     78  H38 non d ame     -10.542  15.564  68.647  0.00  0.00     0.036 H 
ATOM     79  H39 non d ame     -12.366  16.042  68.556  0.00  0.00     0.036 H 
ATOM     80  N5  non d ame     -11.610  14.359  71.002  0.00  0.00    -0.049 N 
ATOM     81  H40 non d ame     -10.610  16.163  70.464  0.00  0.00     0.075 H 
ATOM     82  H41 non d ame     -12.497  16.219  70.461  0.00  0.00     0.075 H 
ATOM     83  C28 non d ame     -12.033  13.257  69.902  0.00  0.00     0.193 C 
ATOM     84  H42 non d ame     -10.664  14.168  71.302  0.00  0.00     0.280 HD
ATOM     85  H43 non d ame     -12.350  14.432  71.685  0.00  0.00     0.280 HD
ATOM     86  H44 non d ame     -13.047  12.856  69.881  0.00  0.00     0.129 H 
ATOM     87  H37 non d ame     -13.005  13.605  68.438  0.00  0.00     0.046 H 
BRANCH  83  88
ATOM     88  O6  non d ame     -11.174  12.118  69.989  0.00  0.00    -0.369 OA
ATOM     89  H45 non d ame     -10.259  12.408  69.993  0.00  0.00     0.212 HD
ENDBRANCH  83  88
ENDBRANCH  72  75
ENDBRANCH  47  72
ENDBRANCH  45  47
ENDBRANCH   1  43
BRANCH   1  90
ATOM     90  C16 non d ame      -9.298   9.972  63.714  0.00  0.00    -0.035 C 
ATOM     91  H21 non d ame      -9.973   9.192  63.363  0.00  0.00     0.037 H 
ATOM     92  H22 non d ame      -9.611  11.017  63.686  0.00  0.00     0.037 H 
BRANCH  90  93
ATOM     93  C17 non d ame      -8.012   9.872  62.834  0.00  0.00    -0.059 C 
ATOM     94  H23 non d ame      -7.155  10.076  63.476  0.00  0.00     0.038 H 
BRANCH  93  95
ATOM     95  C18 non d ame      -7.824   8.446  62.225  0.00  0.00    -0.073 C 
ATOM     96  H24 non d ame      -7.912   8.499  61.141  0.00  0.00     0.028 H 
ATOM     97  H25 non d ame      -6.838   8.064  62.492  0.00  0.00     0.028 H 
ATOM     98  H26 non d ame      -8.590   7.778  62.620  0.00  0.00     0.028 H 
ENDBRANCH  93  95
BRANCH  93  99
ATOM     99  C19 non d ame      -8.018  10.937  61.734  0.00  0.00    -0.073 C 
ATOM    100  H27 non d ame      -7.767  11.907  62.165  0.00  0.00     0.028 H 
ATOM    101  H28 non d ame      -7.283  10.676  60.972  0.00  0.00     0.028 H 
ATOM    102  H29 non d ame      -9.008  10.986  61.281  0.00  0.00     0.028 H 
ENDBRANCH  93  99
ENDBRANCH  90  93
ENDBRANCH   1  90
TORSDOF 26
ENDMDL
MODEL 3
REMARK VINA RESULT:      -6.5      2.556      8.462
REMARK  26 active torsions:
REMARK  status: ('A' for Active; 'I' for Inactive)
REMARK    1  A    between atoms: C2_2  and  C3_3 
REMARK    2  A    between atoms: C4_6  and  C5_7 
REMARK       I    between atoms: C5_7  and  N2_9 
REMARK    3  A    between atoms: N2_9  and  C6_10 
REMARK    4  A    between atoms: C6_10  and  C7_11 
REMARK    5  A    between atoms: C6_10  and  C8_13 
REMARK       I    between atoms: C7_11  and  N3_14 
REMARK    6  A    between atoms: N3_14  and  C9_15 
REMARK    7  A    between atoms: C9_15  and  C10_16 
REMARK    8  A    between atoms: C9_15  and  C11_18 
REMARK       I    between atoms: C10_16  and  N4_21 
REMARK    9  A    between atoms: C11_18  and  C12_19 
REMARK   10  A    between atoms: C11_18  and  C13_20 
REMARK   11  A    between atoms: N4_21  and  C14_22 
REMARK   12  A    between atoms: C14_22  and  C15_23 
REMARK   13  A    between atoms: C14_22  and  C16_25 
REMARK       I    between atoms: C15_23  and  N6_40 
REMARK   14  A    between atoms: C16_25  and  C17_26 
REMARK   15  A    between atoms: C17_26  and  C18_27 
REMARK   16  A    between atoms: C17_26  and  C19_28 
REMARK   17  A    between atoms: C20_29  and  C21_30 
REMARK   18  A    between atoms: C20_29  and  C24_33 
REMARK   19  A    between atoms: C20_29  and  N6_40 
REMARK   20  A    between atoms: C21_30  and  C22_31 
REMARK   21  A    between atoms: C22_31  and  C23_32 
REMARK   22  A    between atoms: C23_32  and  O8_43 
REMARK   23  A    between atoms: C24_33  and  C25_34 
REMARK   24  A    between atoms: C28_38  and  O6_39 
REMARK   25  A    between atoms: C29_42  and  O8_43 
REMARK   26  A    between atoms: C29_42  and  C35_49 
ROOT
ATOM      1  C14 non d ame      -8.980   6.894  66.334  0.00  0.00     0.089 C 
ATOM      2  H20 non d ame      -9.306   6.364  65.439  0.00  0.00     0.087 H 
ENDROOT
BRANCH   1   3
ATOM      3  N4  non d ame      -8.554   8.224  65.925  0.00  0.00    -0.346 N 
ATOM      4  C10 non d ame      -8.109   8.479  64.507  0.00  0.00     0.241 C 
ATOM      5  O4  non d ame      -8.100   7.597  63.713  0.00  0.00    -0.271 OA
ATOM      6  H19 non d ame      -8.567   8.961  66.617  0.00  0.00     0.163 HD
BRANCH   4   7
ATOM      7  C9  non d ame      -7.676   9.863  64.100  0.00  0.00     0.092 C 
ATOM      8  H11 non d ame      -7.688   9.937  63.013  0.00  0.00     0.088 H 
BRANCH   7   9
ATOM      9  N3  non d ame      -8.637  10.846  64.611  0.00  0.00    -0.346 N 
ATOM     10  C7  non d ame      -9.764  11.240  63.802  0.00  0.00     0.240 C 
ATOM     11  O3  non d ame      -9.912  10.778  62.737  0.00  0.00    -0.271 OA
ATOM     12  H10 non d ame      -8.521  11.255  65.527  0.00  0.00     0.163 HD
BRANCH  10  13
ATOM     13  C6  non d ame     -10.781  12.289  64.350  0.00  0.00     0.086 C 
ATOM     14  H6  non d ame     -11.170  12.025  65.333  0.00  0.00     0.086 H 
BRANCH  13  15
ATOM     15  N2  non d ame     -10.105  13.567  64.499  0.00  0.00    -0.343 N 
ATOM     16  C5  non d ame     -10.397  14.405  65.664  0.00  0.00     0.273 C 
ATOM     17  O2  non d ame     -11.178  14.043  66.474  0.00  0.00    -0.266 OA
ATOM     18  H5  non d ame      -9.441  13.870  63.801  0.00  0.00     0.163 HD
BRANCH  16  19
ATOM     19  C4  non d ame      -9.689  15.758  65.836  0.00  0.00     0.154 A 
ATOM     20  C1  non d ame      -8.355  15.983  66.302  0.00  0.00    -0.017 A 
ATOM     21  C2  non d ame      -8.192  17.386  66.274  0.00  0.00     0.077 A 
ATOM     22  H1  non d ame      -7.618  15.242  66.612  0.00  0.00     0.091 H 
ATOM     23  O1  non d ame      -9.307  17.897  65.841  0.00  0.00    -0.218 OA
ATOM     24  N1  non d ame     -10.196  16.967  65.579  0.00  0.00    -0.123 NA
BRANCH  21  25
ATOM     25  C3  non d ame      -6.941  18.156  66.677  0.00  0.00    -0.029 C 
ATOM     26  H2  non d ame      -6.313  18.314  65.799  0.00  0.00     0.036 H 
ATOM     27  H3  non d ame      -7.228  19.120  67.097  0.00  0.00     0.036 H 
ATOM     28  H4  non d ame      -6.387  17.586  67.423  0.00  0.00     0.036 H 
ENDBRANCH  21  25
ENDBRANCH  16  19
ENDBRANCH  13  15
BRANCH  13  29
ATOM     29  C8  non d ame     -11.935  12.424  63.389  0.00  0.00    -0.049 C 
ATOM     30  H7  non d ame     -11.976  13.446  63.012  0.00  0.00     0.030 H 
ATOM     31  H8  non d ame     -11.796  11.734  62.556  0.00  0.00     0.030 H 
ATOM     32  H9  non d ame     -12.866  12.189  63.904  0.00  0.00     0.030 H 
ENDBRANCH  13  29
ENDBRANCH  10  13
ENDBRANCH   7   9
BRANCH   7  33
ATOM     33  C11 non d ame      -6.268  10.162  64.693  0.00  0.00    -0.033 C 
ATOM     34  H12 non d ame      -5.786  10.891  64.042  0.00  0.00     0.042 H 
BRANCH  33  35
ATOM     35  C12 non d ame      -6.373  10.797  66.114  0.00  0.00    -0.071 C 
ATOM     36  H13 non d ame      -5.936  10.120  66.848  0.00  0.00     0.028 H 
ATOM     37  H14 non d ame      -5.833  11.744  66.129  0.00  0.00     0.028 H 
ATOM     38  H15 non d ame      -7.420  10.972  66.357  0.00  0.00     0.028 H 
ENDBRANCH  33  35
BRANCH  33  39
ATOM     39  C13 non d ame      -5.385   8.873  64.712  0.00  0.00    -0.071 C 
ATOM     40  H16 non d ame      -4.336   9.153  64.803  0.00  0.00     0.028 H 
ATOM     41  H17 non d ame      -5.669   8.250  65.561  0.00  0.00     0.028 H 
ATOM     42  H18 non d ame      -5.534   8.317  63.787  0.00  0.00     0.028 H 
ENDBRANCH  33  39
ENDBRANCH   7  33
ENDBRANCH   4   7
ENDBRANCH   1   3
BRANCH   1  43
ATOM     43  C15 non d ame     -10.124   7.040  67.379  0.00  0.00     0.240 C 
ATOM     44  O5  non d ame     -11.253   6.880  67.044  0.00  0.00    -0.271 OA
ATOM     45  N6  non d ame      -9.810   7.370  68.798  0.00  0.00    -0.355 N 
ATOM     46  H46 non d ame      -8.855   7.503  69.095  0.00  0.00     0.162 HD
BRANCH  45  47
ATOM     47  C20 non d ame     -10.909   7.503  69.779  0.00  0.00     0.013 C 
ATOM     48  H30 non d ame     -11.780   7.899  69.256  0.00  0.00     0.072 H 
BRANCH  47  49
ATOM     49  C21 non d ame     -10.487   8.456  70.875  0.00  0.00    -0.038 C 
ATOM     50  H31 non d ame      -9.550   8.060  71.266  0.00  0.00     0.036 H 
ATOM     51  H32 non d ame     -10.515   9.450  70.427  0.00  0.00     0.036 H 
BRANCH  49  52
ATOM     52  C22 non d ame     -11.478   8.483  72.059  0.00  0.00     0.018 C 
ATOM     53  H33 non d ame     -11.743   7.442  72.246  0.00  0.00     0.048 H 
ATOM     54  H34 non d ame     -10.990   9.070  72.839  0.00  0.00     0.048 H 
BRANCH  52  55
ATOM     55  C23 non d ame     -12.811   9.216  71.744  0.00  0.00     0.259 C 
ATOM     56  O7  non d ame     -13.753   8.609  71.347  0.00  0.00    -0.265 OA
BRANCH  55  57
ATOM     57  O8  non d ame     -12.892  10.624  71.923  0.00  0.00    -0.317 OA
BRANCH  57  58
ATOM     58  C29 non d ame     -12.446  11.381  70.794  0.00  0.00     0.052 C 
ATOM     59  H47 non d ame     -11.366  11.237  70.751  0.00  0.00     0.082 H 
ATOM     60  H48 non d ame     -13.072  11.065  69.961  0.00  0.00     0.082 H 
BRANCH  58  61
ATOM     61  C35 non d ame     -12.731  12.880  71.080  0.00  0.00    -0.034 A 
ATOM     62  C30 non d ame     -13.545  13.243  72.148  0.00  0.00    -0.075 A 
ATOM     63  C31 non d ame     -13.801  14.589  72.404  0.00  0.00    -0.082 A 
ATOM     64  H49 non d ame     -13.983  12.473  72.784  0.00  0.00     0.084 H 
ATOM     65  C32 non d ame     -13.241  15.574  71.586  0.00  0.00    -0.083 A 
ATOM     66  H50 non d ame     -14.438  14.871  73.243  0.00  0.00     0.083 H 
ATOM     67  C33 non d ame     -12.432  15.207  70.520  0.00  0.00    -0.082 A 
ATOM     68  H51 non d ame     -13.436  16.629  71.780  0.00  0.00     0.083 H 
ATOM     69  C34 non d ame     -12.171  13.863  70.261  0.00  0.00    -0.075 A 
ATOM     70  H52 non d ame     -11.998  15.978  69.882  0.00  0.00     0.083 H 
ATOM     71  H53 non d ame     -11.534  13.582  69.422  0.00  0.00     0.084 H 
ENDBRANCH  58  61
ENDBRANCH  57  58
ENDBRANCH  55  57
ENDBRANCH  52  55
ENDBRANCH  49  52
ENDBRANCH  47  49
BRANCH  47  72
ATOM     72  C24 non d ame     -11.229   6.138  70.386  0.00  0.00    -0.039 C 
ATOM     73  H35 non d ame     -11.735   6.351  71.327  0.00  0.00     0.036 H 
ATOM     74  H36 non d ame     -11.747   5.587  69.601  0.00  0.00     0.036 H 
BRANCH  72  75
ATOM     75  C25 non d ame      -9.898   5.320  70.739  0.00  0.00    -0.001 C 
ATOM     76  C26 non d ame      -9.684   4.103  69.653  0.00  0.00    -0.035 C 
ATOM     77  C27 non d ame      -9.489   2.946  70.329  0.00  0.00     0.085 C 
ATOM     78  H38 non d ame     -10.608   3.926  69.104  0.00  0.00     0.036 H 
ATOM     79  H39 non d ame      -8.747   4.244  69.114  0.00  0.00     0.036 H 
ATOM     80  N5  non d ame      -9.876   3.202  71.765  0.00  0.00    -0.049 N 
ATOM     81  H40 non d ame     -10.191   2.233  69.894  0.00  0.00     0.075 H 
ATOM     82  H41 non d ame      -8.418   2.756  70.278  0.00  0.00     0.075 H 
ATOM     83  C28 non d ame      -9.965   4.806  71.922  0.00  0.00     0.193 C 
ATOM     84  H42 non d ame     -10.800   2.815  71.886  0.00  0.00     0.280 HD
ATOM     85  H43 non d ame      -9.110   2.866  72.332  0.00  0.00     0.280 HD
ATOM     86  H44 non d ame      -9.171   5.359  72.423  0.00  0.00     0.129 H 
ATOM     87  H37 non d ame      -9.047   5.976  70.923  0.00  0.00     0.046 H 
BRANCH  83  88
ATOM     88  O6  non d ame     -11.170   5.169  72.599  0.00  0.00    -0.369 OA
ATOM     89  H45 non d ame     -10.952   5.601  73.428  0.00  0.00     0.212 HD
ENDBRANCH  83  88
ENDBRANCH  72  75
ENDBRANCH  47  72
ENDBRANCH  45  47
ENDBRANCH   1  43
BRANCH   1  90
ATOM     90  C16 non d ame      -7.803   6.167  66.964  0.00  0.00    -0.035 C 
ATOM     91  H21 non d ame      -6.983   6.886  66.958  0.00  0.00     0.037 H 
ATOM     92  H22 non d ame      -8.177   5.777  67.910  0.00  0.00     0.037 H 
BRANCH  90  93
ATOM     93  C17 non d ame      -7.314   4.934  66.140  0.00  0.00    -0.059 C 
ATOM     94  H23 non d ame      -8.075   4.714  65.391  0.00  0.00     0.038 H 
BRANCH  93  95
ATOM     95  C18 non d ame      -5.975   5.220  65.388  0.00  0.00    -0.073 C 
ATOM     96  H24 non d ame      -5.634   6.228  65.624  0.00  0.00     0.028 H 
ATOM     97  H25 non d ame      -5.221   4.498  65.703  0.00  0.00     0.028 H 
ATOM     98  H26 non d ame      -6.136   5.132  64.314  0.00  0.00     0.028 H 
ENDBRANCH  93  95
BRANCH  93  99
ATOM     99  C19 non d ame      -7.185   3.697  67.032  0.00  0.00    -0.073 C 
ATOM    100  H27 non d ame      -8.059   3.059  66.899  0.00  0.00     0.028 H 
ATOM    101  H28 non d ame      -6.286   3.144  66.758  0.00  0.00     0.028 H 
ATOM    102  H29 non d ame      -7.116   4.006  68.075  0.00  0.00     0.028 H 
ENDBRANCH  93  99
ENDBRANCH  90  93
ENDBRANCH   1  90
TORSDOF 26
ENDMDL
MODEL 4
REMARK VINA RESULT:      -6.5      2.512      6.366
REMARK  26 active torsions:
REMARK  status: ('A' for Active; 'I' for Inactive)
REMARK    1  A    between atoms: C2_2  and  C3_3 
REMARK    2  A    between atoms: C4_6  and  C5_7 
REMARK       I    between atoms: C5_7  and  N2_9 
REMARK    3  A    between atoms: N2_9  and  C6_10 
REMARK    4  A    between atoms: C6_10  and  C7_11 
REMARK    5  A    between atoms: C6_10  and  C8_13 
REMARK       I    between atoms: C7_11  and  N3_14 
REMARK    6  A    between atoms: N3_14  and  C9_15 
REMARK    7  A    between atoms: C9_15  and  C10_16 
REMARK    8  A    between atoms: C9_15  and  C11_18 
REMARK       I    between atoms: C10_16  and  N4_21 
REMARK    9  A    between atoms: C11_18  and  C12_19 
REMARK   10  A    between atoms: C11_18  and  C13_20 
REMARK   11  A    between atoms: N4_21  and  C14_22 
REMARK   12  A    between atoms: C14_22  and  C15_23 
REMARK   13  A    between atoms: C14_22  and  C16_25 
REMARK       I    between atoms: C15_23  and  N6_40 
REMARK   14  A    between atoms: C16_25  and  C17_26 
REMARK   15  A    between atoms: C17_26  and  C18_27 
REMARK   16  A    between atoms: C17_26  and  C19_28 
REMARK   17  A    between atoms: C20_29  and  C21_30 
REMARK   18  A    between atoms: C20_29  and  C24_33 
REMARK   19  A    between atoms: C20_29  and  N6_40 
REMARK   20  A    between atoms: C21_30  and  C22_31 
REMARK   21  A    between atoms: C22_31  and  C23_32 
REMARK   22  A    between atoms: C23_32  and  O8_43 
REMARK   23  A    between atoms: C24_33  and  C25_34 
REMARK   24  A    between atoms: C28_38  and  O6_39 
REMARK   25  A    between atoms: C29_42  and  O8_43 
REMARK   26  A    between atoms: C29_42  and  C35_49 
ROOT
ATOM      1  C14 non d ame      -8.074   8.934  64.404  0.00  0.00     0.089 C 
ATOM      2  H20 non d ame      -7.179   9.554  64.468  0.00  0.00     0.087 H 
ENDROOT
BRANCH   1   3
ATOM      3  N4  non d ame      -7.765   7.652  65.020  0.00  0.00    -0.346 N 
ATOM      4  C10 non d ame      -6.423   7.422  65.667  0.00  0.00     0.241 C 
ATOM      5  O4  non d ame      -5.606   8.283  65.678  0.00  0.00    -0.271 OA
ATOM      6  H19 non d ame      -8.473   6.932  64.998  0.00  0.00     0.163 HD
BRANCH   4   7
ATOM      7  C9  non d ame      -6.122   6.091  66.305  0.00  0.00     0.092 C 
ATOM      8  H11 non d ame      -5.541   6.252  67.213  0.00  0.00     0.088 H 
BRANCH   7   9
ATOM      9  N3  non d ame      -7.377   5.445  66.703  0.00  0.00    -0.346 N 
ATOM     10  C7  non d ame      -7.901   5.646  68.031  0.00  0.00     0.240 C 
ATOM     11  O3  non d ame      -7.326   6.323  68.793  0.00  0.00    -0.271 OA
ATOM     12  H10 non d ame      -7.883   4.857  66.057  0.00  0.00     0.163 HD
BRANCH  10  13
ATOM     13  C6  non d ame      -9.235   4.953  68.450  0.00  0.00     0.086 C 
ATOM     14  H6  non d ame      -9.098   4.220  69.245  0.00  0.00     0.086 H 
BRANCH  13  15
ATOM     15  N2  non d ame     -10.148   5.960  68.965  0.00  0.00    -0.343 N 
ATOM     16  C5  non d ame     -10.653   5.843  70.334  0.00  0.00     0.273 C 
ATOM     17  O2  non d ame     -10.321   4.933  71.013  0.00  0.00    -0.266 OA
ATOM     18  H5  non d ame     -10.428   6.733  68.377  0.00  0.00     0.163 HD
BRANCH  16  19
ATOM     19  C4  non d ame     -11.617   6.901  70.893  0.00  0.00     0.154 A 
ATOM     20  C1  non d ame     -11.486   8.323  70.804  0.00  0.00    -0.017 A 
ATOM     21  C2  non d ame     -12.623   8.835  71.467  0.00  0.00     0.077 A 
ATOM     22  H1  non d ame     -10.688   8.896  70.331  0.00  0.00     0.091 H 
ATOM     23  O1  non d ame     -13.320   7.818  71.883  0.00  0.00    -0.218 OA
ATOM     24  N1  non d ame     -12.753   6.679  71.560  0.00  0.00    -0.123 NA
BRANCH  21  25
ATOM     25  C3  non d ame     -12.969  10.306  71.659  0.00  0.00    -0.029 C 
ATOM     26  H2  non d ame     -13.531  10.430  72.585  0.00  0.00     0.036 H 
ATOM     27  H3  non d ame     -12.051  10.891  71.710  0.00  0.00     0.036 H 
ATOM     28  H4  non d ame     -13.573  10.650  70.818  0.00  0.00     0.036 H 
ENDBRANCH  21  25
ENDBRANCH  16  19
ENDBRANCH  13  15
BRANCH  13  29
ATOM     29  C8  non d ame      -9.844   4.267  67.254  0.00  0.00    -0.049 C 
ATOM     30  H7  non d ame      -9.813   4.937  66.395  0.00  0.00     0.030 H 
ATOM     31  H8  non d ame      -9.282   3.360  67.029  0.00  0.00     0.030 H 
ATOM     32  H9  non d ame     -10.880   4.007  67.473  0.00  0.00     0.030 H 
ENDBRANCH  13  29
ENDBRANCH  10  13
ENDBRANCH   7   9
BRANCH   7  33
ATOM     33  C11 non d ame      -5.376   5.184  65.284  0.00  0.00    -0.033 C 
ATOM     34  H12 non d ame      -5.763   4.171  65.399  0.00  0.00     0.042 H 
BRANCH  33  35
ATOM     35  C12 non d ame      -5.657   5.630  63.815  0.00  0.00    -0.071 C 
ATOM     36  H13 non d ame      -6.705   5.915  63.717  0.00  0.00     0.028 H 
ATOM     37  H14 non d ame      -5.024   6.481  63.567  0.00  0.00     0.028 H 
ATOM     38  H15 non d ame      -5.440   4.805  63.137  0.00  0.00     0.028 H 
ENDBRANCH  33  35
BRANCH  33  39
ATOM     39  C13 non d ame      -3.842   5.151  65.582  0.00  0.00    -0.071 C 
ATOM     40  H16 non d ame      -3.334   5.881  64.954  0.00  0.00     0.028 H 
ATOM     41  H17 non d ame      -3.670   5.392  66.631  0.00  0.00     0.028 H 
ATOM     42  H18 non d ame      -3.453   4.155  65.370  0.00  0.00     0.028 H 
ENDBRANCH  33  39
ENDBRANCH   7  33
ENDBRANCH   4   7
ENDBRANCH   1   3
BRANCH   1  43
ATOM     43  C15 non d ame      -9.281   9.567  65.154  0.00  0.00     0.240 C 
ATOM     44  O5  non d ame      -9.840   8.948  66.001  0.00  0.00    -0.271 OA
ATOM     45  N6  non d ame      -9.733  10.948  64.824  0.00  0.00    -0.355 N 
ATOM     46  H46 non d ame      -9.263  11.485  64.110  0.00  0.00     0.162 HD
BRANCH  45  47
ATOM     47  C20 non d ame     -10.882  11.536  65.548  0.00  0.00     0.013 C 
ATOM     48  H30 non d ame     -11.583  10.732  65.772  0.00  0.00     0.072 H 
BRANCH  47  49
ATOM     49  C21 non d ame     -11.546  12.573  64.672  0.00  0.00    -0.038 C 
ATOM     50  H31 non d ame     -11.636  12.114  63.687  0.00  0.00     0.036 H 
ATOM     51  H32 non d ame     -12.440  12.885  65.212  0.00  0.00     0.036 H 
BRANCH  49  52
ATOM     52  C22 non d ame     -10.685  13.841  64.485  0.00  0.00     0.018 C 
ATOM     53  H33 non d ame     -10.080  13.923  65.389  0.00  0.00     0.048 H 
ATOM     54  H34 non d ame     -10.201  13.729  63.515  0.00  0.00     0.048 H 
BRANCH  52  55
ATOM     55  C23 non d ame     -11.512  15.154  64.402  0.00  0.00     0.259 C 
ATOM     56  O7  non d ame     -12.636  15.135  64.019  0.00  0.00    -0.265 OA
BRANCH  55  57
ATOM     57  O8  non d ame     -10.906  16.384  64.778  0.00  0.00    -0.317 OA
BRANCH  57  58
ATOM     58  C29 non d ame      -9.979  16.270  65.862  0.00  0.00     0.052 C 
ATOM     59  H47 non d ame     -10.368  15.476  66.500  0.00  0.00     0.082 H 
ATOM     60  H48 non d ame      -8.997  16.167  65.401  0.00  0.00     0.082 H 
BRANCH  58  61
ATOM     61  C35 non d ame     -10.009  17.600  66.660  0.00  0.00    -0.034 A 
ATOM     62  C30 non d ame     -10.342  18.790  66.020  0.00  0.00    -0.075 A 
ATOM     63  C31 non d ame     -10.369  19.985  66.737  0.00  0.00    -0.082 A 
ATOM     64  H49 non d ame     -10.583  18.785  64.957  0.00  0.00     0.084 H 
ATOM     65  C32 non d ame     -10.057  19.988  68.100  0.00  0.00    -0.083 A 
ATOM     66  H50 non d ame     -10.633  20.915  66.233  0.00  0.00     0.083 H 
ATOM     67  C33 non d ame      -9.722  18.800  68.733  0.00  0.00    -0.082 A 
ATOM     68  H51 non d ame     -10.076  20.918  68.668  0.00  0.00     0.083 H 
ATOM     69  C34 non d ame      -9.696  17.603  68.021  0.00  0.00    -0.075 A 
ATOM     70  H52 non d ame      -9.477  18.806  69.796  0.00  0.00     0.083 H 
ATOM     71  H53 non d ame      -9.433  16.673  68.526  0.00  0.00     0.084 H 
ENDBRANCH  58  61
ENDBRANCH  57  58
ENDBRANCH  55  57
ENDBRANCH  52  55
ENDBRANCH  49  52
ENDBRANCH  47  49
BRANCH  47  72
ATOM     72  C24 non d ame     -10.397  12.192  66.839  0.00  0.00    -0.039 C 
ATOM     73  H35 non d ame      -9.710  11.475  67.289  0.00  0.00     0.036 H 
ATOM     74  H36 non d ame     -10.039  13.179  66.545  0.00  0.00     0.036 H 
BRANCH  72  75
ATOM     75  C25 non d ame     -11.596  12.414  67.877  0.00  0.00    -0.001 C 
ATOM     76  C26 non d ame     -11.951  14.016  67.989  0.00  0.00    -0.035 C 
ATOM     77  C27 non d ame     -11.958  14.371  69.296  0.00  0.00     0.085 C 
ATOM     78  H38 non d ame     -11.139  14.609  67.569  0.00  0.00     0.036 H 
ATOM     79  H39 non d ame     -12.978  14.196  67.670  0.00  0.00     0.036 H 
ATOM     80  N5  non d ame     -11.322  13.238  70.065  0.00  0.00    -0.049 N 
ATOM     81  H40 non d ame     -11.317  15.251  69.363  0.00  0.00     0.075 H 
ATOM     82  H41 non d ame     -13.010  14.441  69.573  0.00  0.00     0.075 H 
ATOM     83  C28 non d ame     -11.283  11.981  69.052  0.00  0.00     0.193 C 
ATOM     84  H42 non d ame     -10.373  13.523  70.261  0.00  0.00     0.280 HD
ATOM     85  H43 non d ame     -11.951  13.019  70.825  0.00  0.00     0.280 HD
ATOM     86  H44 non d ame     -11.996  11.163  69.158  0.00  0.00     0.129 H 
ATOM     87  H37 non d ame     -12.429  11.734  67.698  0.00  0.00     0.046 H 
BRANCH  83  88
ATOM     88  O6  non d ame      -9.993  11.370  69.075  0.00  0.00    -0.369 OA
ATOM     89  H45 non d ame      -9.316  12.048  69.014  0.00  0.00     0.212 HD
ENDBRANCH  83  88
ENDBRANCH  72  75
ENDBRANCH  47  72
ENDBRANCH  45  47
ENDBRANCH   1  43
BRANCH   1  90
ATOM     90  C16 non d ame      -8.440   8.709  62.946  0.00  0.00    -0.035 C 
ATOM     91  H21 non d ame      -8.347   7.634  62.787  0.00  0.00     0.037 H 
ATOM     92  H22 non d ame      -9.405   9.198  62.811  0.00  0.00     0.037 H 
BRANCH  90  93
ATOM     93  C17 non d ame      -7.457   9.389  61.940  0.00  0.00    -0.059 C 
ATOM     94  H23 non d ame      -7.442   8.785  61.033  0.00  0.00     0.038 H 
BRANCH  93  95
ATOM     95  C18 non d ame      -7.919  10.829  61.547  0.00  0.00    -0.073 C 
ATOM     96  H24 non d ame      -9.007  10.879  61.566  0.00  0.00     0.028 H 
ATOM     97  H25 non d ame      -7.509  11.548  62.257  0.00  0.00     0.028 H 
ATOM     98  H26 non d ame      -7.561  11.064  60.545  0.00  0.00     0.028 H 
ENDBRANCH  93  95
BRANCH  93  99
ATOM     99  C19 non d ame      -6.031   9.407  62.497  0.00  0.00    -0.073 C 
ATOM    100  H27 non d ame      -5.357   8.929  61.786  0.00  0.00     0.028 H 
ATOM    101  H28 non d ame      -5.718  10.439  62.659  0.00  0.00     0.028 H 
ATOM    102  H29 non d ame      -6.004   8.868  63.444  0.00  0.00     0.028 H 
ENDBRANCH  93  99
ENDBRANCH  90  93
ENDBRANCH   1  90
TORSDOF 26
ENDMDL
MODEL 5
REMARK VINA RESULT:      -6.4      1.716      3.063
REMARK  26 active torsions:
REMARK  status: ('A' for Active; 'I' for Inactive)
REMARK    1  A    between atoms: C2_2  and  C3_3 
REMARK    2  A    between atoms: C4_6  and  C5_7 
REMARK       I    between atoms: C5_7  and  N2_9 
REMARK    3  A    between atoms: N2_9  and  C6_10 
REMARK    4  A    between atoms: C6_10  and  C7_11 
REMARK    5  A    between atoms: C6_10  and  C8_13 
REMARK       I    between atoms: C7_11  and  N3_14 
REMARK    6  A    between atoms: N3_14  and  C9_15 
REMARK    7  A    between atoms: C9_15  and  C10_16 
REMARK    8  A    between atoms: C9_15  and  C11_18 
REMARK       I    between atoms: C10_16  and  N4_21 
REMARK    9  A    between atoms: C11_18  and  C12_19 
REMARK   10  A    between atoms: C11_18  and  C13_20 
REMARK   11  A    between atoms: N4_21  and  C14_22 
REMARK   12  A    between atoms: C14_22  and  C15_23 
REMARK   13  A    between atoms: C14_22  and  C16_25 
REMARK       I    between atoms: C15_23  and  N6_40 
REMARK   14  A    between atoms: C16_25  and  C17_26 
REMARK   15  A    between atoms: C17_26  and  C18_27 
REMARK   16  A    between atoms: C17_26  and  C19_28 
REMARK   17  A    between atoms: C20_29  and  C21_30 
REMARK   18  A    between atoms: C20_29  and  C24_33 
REMARK   19  A    between atoms: C20_29  and  N6_40 
REMARK   20  A    between atoms: C21_30  and  C22_31 
REMARK   21  A    between atoms: C22_31  and  C23_32 
REMARK   22  A    between atoms: C23_32  and  O8_43 
REMARK   23  A    between atoms: C24_33  and  C25_34 
REMARK   24  A    between atoms: C28_38  and  O6_39 
REMARK   25  A    between atoms: C29_42  and  O8_43 
REMARK   26  A    between atoms: C29_42  and  C35_49 
ROOT
ATOM      1  C14 non d ame      -9.958   9.997  68.841  0.00  0.00     0.089 C 
ATOM      2  H20 non d ame      -9.316  10.112  69.715  0.00  0.00     0.087 H 
ENDROOT
BRANCH   1   3
ATOM      3  N4  non d ame     -10.518   8.654  68.882  0.00  0.00    -0.346 N 
ATOM      4  C10 non d ame      -9.850   7.574  69.695  0.00  0.00     0.241 C 
ATOM      5  O4  non d ame      -8.860   7.809  70.306  0.00  0.00    -0.271 OA
ATOM      6  H19 non d ame     -11.360   8.474  68.353  0.00  0.00     0.163 HD
BRANCH   4   7
ATOM      7  C9  non d ame     -10.447   6.192  69.731  0.00  0.00     0.092 C 
ATOM      8  H11 non d ame     -11.517   6.258  69.533  0.00  0.00     0.088 H 
BRANCH   7   9
ATOM      9  N3  non d ame      -9.858   5.377  68.665  0.00  0.00    -0.346 N 
ATOM     10  C7  non d ame     -10.379   5.462  67.322  0.00  0.00     0.240 C 
ATOM     11  O3  non d ame     -11.272   6.179  67.083  0.00  0.00    -0.271 OA
ATOM     12  H10 non d ame      -9.088   4.752  68.856  0.00  0.00     0.163 HD
BRANCH  10  13
ATOM     13  C6  non d ame      -9.749   4.589  66.192  0.00  0.00     0.086 C 
ATOM     14  H6  non d ame     -10.426   3.816  65.830  0.00  0.00     0.086 H 
BRANCH  13  15
ATOM     15  N2  non d ame      -9.445   5.441  65.054  0.00  0.00    -0.343 N 
ATOM     16  C5  non d ame      -8.567   6.599  65.234  0.00  0.00     0.273 C 
ATOM     17  O2  non d ame      -8.113   6.839  66.299  0.00  0.00    -0.266 OA
ATOM     18  H5  non d ame      -9.839   5.230  64.148  0.00  0.00     0.163 HD
BRANCH  16  19
ATOM     19  C4  non d ame      -8.235   7.507  64.040  0.00  0.00     0.154 A 
ATOM     20  C1  non d ame      -8.362   8.930  63.974  0.00  0.00    -0.017 A 
ATOM     21  C2  non d ame      -7.932   9.274  62.673  0.00  0.00     0.077 A 
ATOM     22  H1  non d ame      -8.714   9.610  64.751  0.00  0.00     0.091 H 
ATOM     23  O1  non d ame      -7.597   8.170  62.072  0.00  0.00    -0.218 OA
ATOM     24  N1  non d ame      -7.765   7.125  62.849  0.00  0.00    -0.123 NA
BRANCH  21  25
ATOM     25  C3  non d ame      -7.870  10.678  62.085  0.00  0.00    -0.029 C 
ATOM     26  H2  non d ame      -8.567  10.753  61.250  0.00  0.00     0.036 H 
ATOM     27  H3  non d ame      -8.141  11.404  62.851  0.00  0.00     0.036 H 
ATOM     28  H4  non d ame      -6.858  10.881  61.734  0.00  0.00     0.036 H 
ENDBRANCH  21  25
ENDBRANCH  16  19
ENDBRANCH  13  15
BRANCH  13  29
ATOM     29  C8  non d ame      -8.490   3.936  66.700  0.00  0.00    -0.049 C 
ATOM     30  H7  non d ame      -7.858   3.658  65.856  0.00  0.00     0.030 H 
ATOM     31  H8  non d ame      -7.952   4.633  67.342  0.00  0.00     0.030 H 
ATOM     32  H9  non d ame      -8.748   3.043  67.269  0.00  0.00     0.030 H 
ENDBRANCH  13  29
ENDBRANCH  10  13
ENDBRANCH   7   9
BRANCH   7  33
ATOM     33  C11 non d ame     -10.147   5.533  71.110  0.00  0.00    -0.033 C 
ATOM     34  H12 non d ame      -9.269   6.027  71.526  0.00  0.00     0.042 H 
BRANCH  33  35
ATOM     35  C12 non d ame     -11.324   5.748  72.111  0.00  0.00    -0.071 C 
ATOM     36  H13 non d ame     -11.103   5.235  73.047  0.00  0.00     0.028 H 
ATOM     37  H14 non d ame     -11.449   6.814  72.302  0.00  0.00     0.028 H 
ATOM     38  H15 non d ame     -12.242   5.345  71.684  0.00  0.00     0.028 H 
ENDBRANCH  33  35
BRANCH  33  39
ATOM     39  C13 non d ame      -9.814   4.016  70.944  0.00  0.00    -0.071 C 
ATOM     40  H16 non d ame      -9.459   3.616  71.893  0.00  0.00     0.028 H 
ATOM     41  H17 non d ame     -10.711   3.478  70.636  0.00  0.00     0.028 H 
ATOM     42  H18 non d ame      -9.040   3.895  70.186  0.00  0.00     0.028 H 
ENDBRANCH  33  39
ENDBRANCH   7  33
ENDBRANCH   4   7
ENDBRANCH   1   3
BRANCH   1  43
ATOM     43  C15 non d ame     -11.128  11.022  68.832  0.00  0.00     0.240 C 
ATOM     44  O5  non d ame     -12.055  10.854  68.107  0.00  0.00    -0.271 OA
ATOM     45  N6  non d ame     -11.096  12.208  69.733  0.00  0.00    -0.355 N 
ATOM     46  H46 non d ame     -10.316  12.359  70.357  0.00  0.00     0.162 HD
BRANCH  45  47
ATOM     47  C20 non d ame     -12.217  13.173  69.714  0.00  0.00     0.013 C 
ATOM     48  H30 non d ame     -13.042  12.719  69.165  0.00  0.00     0.072 H 
BRANCH  47  49
ATOM     49  C21 non d ame     -11.773  14.442  69.022  0.00  0.00    -0.038 C 
ATOM     50  H31 non d ame     -12.416  15.231  69.411  0.00  0.00     0.036 H 
ATOM     51  H32 non d ame     -10.694  14.495  69.170  0.00  0.00     0.036 H 
BRANCH  49  52
ATOM     52  C22 non d ame     -12.002  14.404  67.496  0.00  0.00     0.018 C 
ATOM     53  H33 non d ame     -12.617  13.523  67.311  0.00  0.00     0.048 H 
ATOM     54  H34 non d ame     -12.374  15.394  67.228  0.00  0.00     0.048 H 
BRANCH  52  55
ATOM     55  C23 non d ame     -10.701  14.198  66.671  0.00  0.00     0.259 C 
ATOM     56  O7  non d ame     -10.449  13.139  66.197  0.00  0.00    -0.265 OA
BRANCH  55  57
ATOM     57  O8  non d ame      -9.805  15.290  66.500  0.00  0.00    -0.317 OA
BRANCH  57  58
ATOM     58  C29 non d ame     -10.357  16.387  65.766  0.00  0.00     0.052 C 
ATOM     59  H47 non d ame      -9.725  16.500  64.886  0.00  0.00     0.082 H 
ATOM     60  H48 non d ame     -11.417  16.161  65.651  0.00  0.00     0.082 H 
BRANCH  58  61
ATOM     61  C35 non d ame     -10.219  17.663  66.638  0.00  0.00    -0.034 A 
ATOM     62  C30 non d ame      -9.929  17.553  67.994  0.00  0.00    -0.075 A 
ATOM     63  C31 non d ame      -9.805  18.700  68.777  0.00  0.00    -0.082 A 
ATOM     64  H49 non d ame      -9.798  16.569  68.443  0.00  0.00     0.084 H 
ATOM     65  C32 non d ame      -9.975  19.961  68.199  0.00  0.00    -0.083 A 
ATOM     66  H50 non d ame      -9.576  18.611  69.839  0.00  0.00     0.083 H 
ATOM     67  C33 non d ame     -10.268  20.066  66.846  0.00  0.00    -0.082 A 
ATOM     68  H51 non d ame      -9.880  20.863  68.804  0.00  0.00     0.083 H 
ATOM     69  C34 non d ame     -10.390  18.922  66.059  0.00  0.00    -0.075 A 
ATOM     70  H52 non d ame     -10.402  21.051  66.399  0.00  0.00     0.083 H 
ATOM     71  H53 non d ame     -10.619  19.013  64.997  0.00  0.00     0.084 H 
ENDBRANCH  58  61
ENDBRANCH  57  58
ENDBRANCH  55  57
ENDBRANCH  52  55
ENDBRANCH  49  52
ENDBRANCH  47  49
BRANCH  47  72
ATOM     72  C24 non d ame     -12.646  13.496  71.144  0.00  0.00    -0.039 C 
ATOM     73  H35 non d ame     -13.622  13.025  71.267  0.00  0.00     0.036 H 
ATOM     74  H36 non d ame     -11.810  13.189  71.774  0.00  0.00     0.036 H 
BRANCH  72  75
ATOM     75  C25 non d ame     -12.849  15.070  71.361  0.00  0.00    -0.001 C 
ATOM     76  C26 non d ame     -11.744  15.633  72.442  0.00  0.00    -0.035 C 
ATOM     77  C27 non d ame     -12.392  16.335  73.402  0.00  0.00     0.085 C 
ATOM     78  H38 non d ame     -11.300  14.802  72.990  0.00  0.00     0.036 H 
ATOM     79  H39 non d ame     -11.105  16.378  71.969  0.00  0.00     0.036 H 
ATOM     80  N5  non d ame     -13.863  16.028  73.257  0.00  0.00    -0.049 N 
ATOM     81  H40 non d ame     -12.036  15.929  74.350  0.00  0.00     0.075 H 
ATOM     82  H41 non d ame     -12.223  17.384  73.160  0.00  0.00     0.075 H 
ATOM     83  C28 non d ame     -14.031  15.331  71.811  0.00  0.00     0.193 C 
ATOM     84  H42 non d ame     -14.085  15.347  73.970  0.00  0.00     0.280 HD
ATOM     85  H43 non d ame     -14.341  16.918  73.243  0.00  0.00     0.280 HD
ATOM     86  H44 non d ame     -14.442  15.891  70.971  0.00  0.00     0.129 H 
ATOM     87  H37 non d ame     -12.939  15.609  70.418  0.00  0.00     0.046 H 
BRANCH  83  88
ATOM     88  O6  non d ame     -14.838  14.157  71.919  0.00  0.00    -0.369 OA
ATOM     89  H45 non d ame     -15.208  13.943  71.060  0.00  0.00     0.212 HD
ENDBRANCH  83  88
ENDBRANCH  72  75
ENDBRANCH  47  72
ENDBRANCH  45  47
ENDBRANCH   1  43
BRANCH   1  90
ATOM     90  C16 non d ame      -9.133  10.151  67.573  0.00  0.00    -0.035 C 
ATOM     91  H21 non d ame      -8.987   9.138  67.198  0.00  0.00     0.037 H 
ATOM     92  H22 non d ame      -9.668  10.883  66.968  0.00  0.00     0.037 H 
BRANCH  90  93
ATOM     93  C17 non d ame      -7.708  10.740  67.820  0.00  0.00    -0.059 C 
ATOM     94  H23 non d ame      -7.686  11.743  67.395  0.00  0.00     0.038 H 
BRANCH  93  95
ATOM     95  C18 non d ame      -7.376  10.861  69.342  0.00  0.00    -0.073 C 
ATOM     96  H24 non d ame      -6.780  11.757  69.514  0.00  0.00     0.028 H 
ATOM     97  H25 non d ame      -8.304  10.927  69.912  0.00  0.00     0.028 H 
ATOM     98  H26 non d ame      -6.814   9.984  69.662  0.00  0.00     0.028 H 
ENDBRANCH  93  95
BRANCH  93  99
ATOM     99  C19 non d ame      -6.642   9.916  67.094  0.00  0.00    -0.073 C 
ATOM    100  H27 non d ame      -6.431  10.367  66.124  0.00  0.00     0.028 H 
ATOM    101  H28 non d ame      -5.730   9.895  67.691  0.00  0.00     0.028 H 
ATOM    102  H29 non d ame      -7.005   8.898  66.951  0.00  0.00     0.028 H 
ENDBRANCH  93  99
ENDBRANCH  90  93
ENDBRANCH   1  90
TORSDOF 26
ENDMDL
MODEL 6
REMARK VINA RESULT:      -6.4      1.907      3.515
REMARK  26 active torsions:
REMARK  status: ('A' for Active; 'I' for Inactive)
REMARK    1  A    between atoms: C2_2  and  C3_3 
REMARK    2  A    between atoms: C4_6  and  C5_7 
REMARK       I    between atoms: C5_7  and  N2_9 
REMARK    3  A    between atoms: N2_9  and  C6_10 
REMARK    4  A    between atoms: C6_10  and  C7_11 
REMARK    5  A    between atoms: C6_10  and  C8_13 
REMARK       I    between atoms: C7_11  and  N3_14 
REMARK    6  A    between atoms: N3_14  and  C9_15 
REMARK    7  A    between atoms: C9_15  and  C10_16 
REMARK    8  A    between atoms: C9_15  and  C11_18 
REMARK       I    between atoms: C10_16  and  N4_21 
REMARK    9  A    between atoms: C11_18  and  C12_19 
REMARK   10  A    between atoms: C11_18  and  C13_20 
REMARK   11  A    between atoms: N4_21  and  C14_22 
REMARK   12  A    between atoms: C14_22  and  C15_23 
REMARK   13  A    between atoms: C14_22  and  C16_25 
REMARK       I    between atoms: C15_23  and  N6_40 
REMARK   14  A    between atoms: C16_25  and  C17_26 
REMARK   15  A    between atoms: C17_26  and  C18_27 
REMARK   16  A    between atoms: C17_26  and  C19_28 
REMARK   17  A    between atoms: C20_29  and  C21_30 
REMARK   18  A    between atoms: C20_29  and  C24_33 
REMARK   19  A    between atoms: C20_29  and  N6_40 
REMARK   20  A    between atoms: C21_30  and  C22_31 
REMARK   21  A    between atoms: C22_31  and  C23_32 
REMARK   22  A    between atoms: C23_32  and  O8_43 
REMARK   23  A    between atoms: C24_33  and  C25_34 
REMARK   24  A    between atoms: C28_38  and  O6_39 
REMARK   25  A    between atoms: C29_42  and  O8_43 
REMARK   26  A    between atoms: C29_42  and  C35_49 
ROOT
ATOM      1  C14 non d ame     -10.247  10.252  68.778  0.00  0.00     0.089 C 
ATOM      2  H20 non d ame      -9.587  10.239  69.647  0.00  0.00     0.087 H 
ENDROOT
BRANCH   1   3
ATOM      3  N4  non d ame     -10.902   8.954  68.707  0.00  0.00    -0.346 N 
ATOM      4  C10 non d ame     -10.252   7.738  69.317  0.00  0.00     0.241 C 
ATOM      5  O4  non d ame      -9.199   7.828  69.858  0.00  0.00    -0.271 OA
ATOM      6  H19 non d ame     -11.796   8.899  68.241  0.00  0.00     0.163 HD
BRANCH   4   7
ATOM      7  C9  non d ame     -10.947   6.404  69.239  0.00  0.00     0.092 C 
ATOM      8  H11 non d ame     -11.935   6.540  68.800  0.00  0.00     0.088 H 
BRANCH   7   9
ATOM      9  N3  non d ame     -10.196   5.512  68.351  0.00  0.00    -0.346 N 
ATOM     10  C7  non d ame     -10.362   5.613  66.922  0.00  0.00     0.240 C 
ATOM     11  O3  non d ame     -11.096   6.404  66.470  0.00  0.00    -0.271 OA
ATOM     12  H10 non d ame      -9.560   4.823  68.726  0.00  0.00     0.163 HD
BRANCH  10  13
ATOM     13  C6  non d ame      -9.562   4.659  65.981  0.00  0.00     0.086 C 
ATOM     14  H6  non d ame     -10.121   4.381  65.088  0.00  0.00     0.086 H 
BRANCH  13  15
ATOM     15  N2  non d ame      -8.363   5.342  65.525  0.00  0.00    -0.343 N 
ATOM     16  C5  non d ame      -8.084   5.430  64.090  0.00  0.00     0.273 C 
ATOM     17  O2  non d ame      -8.828   4.945  63.311  0.00  0.00    -0.266 OA
ATOM     18  H5  non d ame      -7.730   5.751  66.199  0.00  0.00     0.163 HD
BRANCH  16  19
ATOM     19  C4  non d ame      -6.820   6.151  63.595  0.00  0.00     0.154 A 
ATOM     20  C1  non d ame      -6.597   7.563  63.538  0.00  0.00    -0.017 A 
ATOM     21  C2  non d ame      -5.293   7.704  63.012  0.00  0.00     0.077 A 
ATOM     22  H1  non d ame      -7.276   8.363  63.834  0.00  0.00     0.091 H 
ATOM     23  O1  non d ame      -4.831   6.507  62.797  0.00  0.00    -0.218 OA
ATOM     24  N1  non d ame      -5.704   5.584  63.129  0.00  0.00    -0.123 NA
BRANCH  21  25
ATOM     25  C3  non d ame      -4.564   9.014  62.748  0.00  0.00    -0.029 C 
ATOM     26  H2  non d ame      -5.018   9.517  61.894  0.00  0.00     0.036 H 
ATOM     27  H3  non d ame      -4.637   9.654  63.627  0.00  0.00     0.036 H 
ATOM     28  H4  non d ame      -3.514   8.810  62.534  0.00  0.00     0.036 H 
ENDBRANCH  21  25
ENDBRANCH  16  19
ENDBRANCH  13  15
BRANCH  13  29
ATOM     29  C8  non d ame      -9.189   3.405  66.731  0.00  0.00    -0.049 C 
ATOM     30  H7  non d ame      -8.774   3.673  67.703  0.00  0.00     0.030 H 
ATOM     31  H8  non d ame     -10.076   2.789  66.873  0.00  0.00     0.030 H 
ATOM     32  H9  non d ame      -8.446   2.849  66.161  0.00  0.00     0.030 H 
ENDBRANCH  13  29
ENDBRANCH  10  13
ENDBRANCH   7   9
BRANCH   7  33
ATOM     33  C11 non d ame     -11.021   5.774  70.661  0.00  0.00    -0.033 C 
ATOM     34  H12 non d ame     -11.808   5.020  70.646  0.00  0.00     0.042 H 
BRANCH  33  35
ATOM     35  C12 non d ame      -9.688   5.053  71.033  0.00  0.00    -0.071 C 
ATOM     36  H13 non d ame      -9.824   4.491  71.957  0.00  0.00     0.028 H 
ATOM     37  H14 non d ame      -9.409   4.369  70.231  0.00  0.00     0.028 H 
ATOM     38  H15 non d ame      -8.900   5.793  71.170  0.00  0.00     0.028 H 
ENDBRANCH  33  35
BRANCH  33  39
ATOM     39  C13 non d ame     -11.400   6.848  71.730  0.00  0.00    -0.071 C 
ATOM     40  H16 non d ame     -10.588   6.949  72.449  0.00  0.00     0.028 H 
ATOM     41  H17 non d ame     -11.571   7.806  71.238  0.00  0.00     0.028 H 
ATOM     42  H18 non d ame     -12.308   6.539  72.249  0.00  0.00     0.028 H 
ENDBRANCH  33  39
ENDBRANCH   7  33
ENDBRANCH   4   7
ENDBRANCH   1   3
BRANCH   1  43
ATOM     43  C15 non d ame     -11.339  11.353  68.886  0.00  0.00     0.240 C 
ATOM     44  O5  non d ame     -12.454  11.116  68.547  0.00  0.00    -0.271 OA
ATOM     45  N6  non d ame     -10.998  12.703  69.420  0.00  0.00    -0.355 N 
ATOM     46  H46 non d ame     -10.057  12.915  69.715  0.00  0.00     0.162 HD
BRANCH  45  47
ATOM     47  C20 non d ame     -12.049  13.739  69.517  0.00  0.00     0.013 C 
ATOM     48  H30 non d ame     -12.867  13.451  68.858  0.00  0.00     0.072 H 
BRANCH  47  49
ATOM     49  C21 non d ame     -11.480  15.070  69.082  0.00  0.00    -0.038 C 
ATOM     50  H31 non d ame     -12.045  15.358  68.196  0.00  0.00     0.036 H 
ATOM     51  H32 non d ame     -11.499  15.703  69.970  0.00  0.00     0.036 H 
BRANCH  49  52
ATOM     52  C22 non d ame     -10.002  14.976  68.645  0.00  0.00     0.018 C 
ATOM     53  H33 non d ame      -9.415  15.196  69.538  0.00  0.00     0.048 H 
ATOM     54  H34 non d ame      -9.901  14.009  68.151  0.00  0.00     0.048 H 
BRANCH  52  55
ATOM     55  C23 non d ame      -9.591  16.041  67.591  0.00  0.00     0.259 C 
ATOM     56  O7  non d ame      -9.411  15.729  66.458  0.00  0.00    -0.265 OA
BRANCH  55  57
ATOM     57  O8  non d ame      -9.420  17.393  67.996  0.00  0.00    -0.317 OA
BRANCH  57  58
ATOM     58  C29 non d ame      -8.915  18.250  66.968  0.00  0.00     0.052 C 
ATOM     59  H47 non d ame      -8.447  17.590  66.238  0.00  0.00     0.082 H 
ATOM     60  H48 non d ame      -9.751  18.883  66.673  0.00  0.00     0.082 H 
BRANCH  58  61
ATOM     61  C35 non d ame      -7.815  19.150  67.592  0.00  0.00    -0.034 A 
ATOM     62  C30 non d ame      -7.303  20.225  66.873  0.00  0.00    -0.075 A 
ATOM     63  C31 non d ame      -6.315  21.033  67.433  0.00  0.00    -0.082 A 
ATOM     64  H49 non d ame      -7.676  20.434  65.870  0.00  0.00     0.084 H 
ATOM     65  C32 non d ame      -5.837  20.761  68.718  0.00  0.00    -0.083 A 
ATOM     66  H50 non d ame      -5.918  21.876  66.868  0.00  0.00     0.083 H 
ATOM     67  C33 non d ame      -6.348  19.685  69.430  0.00  0.00    -0.082 A 
ATOM     68  H51 non d ame      -5.065  21.388  69.164  0.00  0.00     0.083 H 
ATOM     69  C34 non d ame      -7.337  18.876  68.875  0.00  0.00    -0.075 A 
ATOM     70  H52 non d ame      -5.971  19.474  70.432  0.00  0.00     0.083 H 
ATOM     71  H53 non d ame      -7.735  18.033  69.442  0.00  0.00     0.084 H 
ENDBRANCH  58  61
ENDBRANCH  57  58
ENDBRANCH  55  57
ENDBRANCH  52  55
ENDBRANCH  49  52
ENDBRANCH  47  49
BRANCH  47  72
ATOM     72  C24 non d ame     -12.541  13.842  70.960  0.00  0.00    -0.039 C 
ATOM     73  H35 non d ame     -13.489  13.302  70.982  0.00  0.00     0.036 H 
ATOM     74  H36 non d ame     -11.708  13.504  71.575  0.00  0.00     0.036 H 
BRANCH  72  75
ATOM     75  C25 non d ame     -12.851  15.358  71.374  0.00  0.00    -0.001 C 
ATOM     76  C26 non d ame     -11.762  15.865  72.496  0.00  0.00    -0.035 C 
ATOM     77  C27 non d ame     -12.433  16.394  73.547  0.00  0.00     0.085 C 
ATOM     78  H38 non d ame     -11.245  15.009  72.929  0.00  0.00     0.036 H 
ATOM     79  H39 non d ame     -11.190  16.708  72.108  0.00  0.00     0.036 H 
ATOM     80  N5  non d ame     -13.881  15.998  73.391  0.00  0.00    -0.049 N 
ATOM     81  H40 non d ame     -12.023  15.904  74.431  0.00  0.00     0.075 H 
ATOM     82  H41 non d ame     -12.346  17.474  73.434  0.00  0.00     0.075 H 
ATOM     83  C28 non d ame     -14.036  15.473  71.872  0.00  0.00     0.193 C 
ATOM     84  H42 non d ame     -14.034  15.221  74.017  0.00  0.00     0.280 HD
ATOM     85  H43 non d ame     -14.422  16.845  73.495  0.00  0.00     0.280 HD
ATOM     86  H44 non d ame     -14.509  16.100  71.116  0.00  0.00     0.129 H 
ATOM     87  H37 non d ame     -13.004  16.000  70.506  0.00  0.00     0.046 H 
BRANCH  83  88
ATOM     88  O6  non d ame     -14.754  14.238  71.849  0.00  0.00    -0.369 OA
ATOM     89  H45 non d ame     -14.249  13.566  72.312  0.00  0.00     0.212 HD
ENDBRANCH  83  88
ENDBRANCH  72  75
ENDBRANCH  47  72
ENDBRANCH  45  47
ENDBRANCH   1  43
BRANCH   1  90
ATOM     90  C16 non d ame      -9.429  10.464  67.514  0.00  0.00    -0.035 C 
ATOM     91  H21 non d ame      -9.304  11.544  67.429  0.00  0.00     0.037 H 
ATOM     92  H22 non d ame      -8.555   9.822  67.624  0.00  0.00     0.037 H 
BRANCH  90  93
ATOM     93  C17 non d ame     -10.157  10.001  66.212  0.00  0.00    -0.059 C 
ATOM     94  H23 non d ame     -11.051   9.454  66.510  0.00  0.00     0.038 H 
BRANCH  93  95
ATOM     95  C18 non d ame     -10.608  11.207  65.328  0.00  0.00    -0.073 C 
ATOM     96  H24 non d ame      -9.898  12.026  65.442  0.00  0.00     0.028 H 
ATOM     97  H25 non d ame     -10.642  10.899  64.283  0.00  0.00     0.028 H 
ATOM     98  H26 non d ame     -11.598  11.537  65.642  0.00  0.00     0.028 H 
ENDBRANCH  93  95
BRANCH  93  99
ATOM     99  C19 non d ame      -9.280   9.036  65.410  0.00  0.00    -0.073 C 
ATOM    100  H27 non d ame      -9.111   9.442  64.412  0.00  0.00     0.028 H 
ATOM    101  H28 non d ame      -8.323   8.907  65.917  0.00  0.00     0.028 H 
ATOM    102  H29 non d ame      -9.780   8.071  65.330  0.00  0.00     0.028 H 
ENDBRANCH  93  99
ENDBRANCH  90  93
ENDBRANCH   1  90
TORSDOF 26
ENDMDL
