MODEL 1
REMARK VINA RESULT:      -7.6      0.000      0.000
REMARK  26 active torsions:
REMARK  status: ('A' for Active; 'I' for Inactive)
REMARK    1  A    between atoms: C2_2  and  C3_3 
REMARK    2  A    between atoms: C4_6  and  C5_7 
REMARK       I    between atoms: C5_7  and  N2_9 
REMARK    3  A    between atoms: N2_9  and  C6_10 
REMARK    4  A    between atoms: C6_10  and  C7_11 
REMARK    5  A    between atoms: C6_10  and  C8_13 
REMARK       I    between atoms: C7_11  and  N3_14 
REMARK    6  A    between atoms: N3_14  and  C9_15 
REMARK    7  A    between atoms: C9_15  and  C10_16 
REMARK    8  A    between atoms: C9_15  and  C11_18 
REMARK       I    between atoms: C10_16  and  N4_21 
REMARK    9  A    between atoms: C11_18  and  C12_19 
REMARK   10  A    between atoms: C11_18  and  C13_20 
REMARK   11  A    between atoms: N4_21  and  C14_22 
REMARK   12  A    between atoms: C14_22  and  C15_23 
REMARK   13  A    between atoms: C14_22  and  C16_25 
REMARK       I    between atoms: C15_23  and  N6_40 
REMARK   14  A    between atoms: C16_25  and  C17_26 
REMARK   15  A    between atoms: C17_26  and  C18_27 
REMARK   16  A    between atoms: C17_26  and  C19_28 
REMARK   17  A    between atoms: C20_29  and  C21_30 
REMARK   18  A    between atoms: C20_29  and  C24_33 
REMARK   19  A    between atoms: C20_29  and  N6_40 
REMARK   20  A    between atoms: C21_30  and  C22_31 
REMARK   21  A    between atoms: C22_31  and  C23_32 
REMARK   22  A    between atoms: C23_32  and  O8_43 
REMARK   23  A    between atoms: C24_33  and  C25_34 
REMARK   24  A    between atoms: C28_38  and  O6_39 
REMARK   25  A    between atoms: C29_42  and  O8_43 
REMARK   26  A    between atoms: C29_42  and  C35_49 
ROOT
ATOM      1  C14 non d ame     -11.946  14.110  69.545  0.00  0.00     0.089 C 
ATOM      2  H20 non d ame     -12.887  14.044  68.998  0.00  0.00     0.087 H 
ENDROOT
BRANCH   1   3
ATOM      3  N4  non d ame     -11.604  12.768  69.991  0.00  0.00    -0.346 N 
ATOM      4  C10 non d ame     -11.786  11.589  69.069  0.00  0.00     0.241 C 
ATOM      5  O4  non d ame     -12.212  11.745  67.972  0.00  0.00    -0.271 OA
ATOM      6  H19 non d ame     -11.245  12.656  70.929  0.00  0.00     0.163 HD
BRANCH   4   7
ATOM      7  C9  non d ame     -11.421  10.207  69.545  0.00  0.00     0.092 C 
ATOM      8  H11 non d ame     -12.095   9.482  69.091  0.00  0.00     0.088 H 
BRANCH   7   9
ATOM      9  N3  non d ame     -10.064   9.878  69.098  0.00  0.00    -0.346 N 
ATOM     10  C7  non d ame      -9.843   8.732  68.251  0.00  0.00     0.240 C 
ATOM     11  O3  non d ame     -10.746   8.063  67.921  0.00  0.00    -0.271 OA
ATOM     12  H10 non d ame      -9.276  10.445  69.375  0.00  0.00     0.163 HD
BRANCH  10  13
ATOM     13  C6  non d ame      -8.397   8.384  67.780  0.00  0.00     0.086 C 
ATOM     14  H6  non d ame      -8.216   7.311  67.729  0.00  0.00     0.086 H 
BRANCH  13  15
ATOM     15  N2  non d ame      -8.201   8.903  66.437  0.00  0.00    -0.343 N 
ATOM     16  C5  non d ame      -8.406   8.021  65.286  0.00  0.00     0.273 C 
ATOM     17  O2  non d ame      -8.725   6.895  65.451  0.00  0.00    -0.266 OA
ATOM     18  H5  non d ame      -7.925   9.866  66.304  0.00  0.00     0.163 HD
BRANCH  16  19
ATOM     19  C4  non d ame      -8.204   8.557  63.860  0.00  0.00     0.154 A 
ATOM     20  C1  non d ame      -7.970   9.914  63.471  0.00  0.00    -0.017 A 
ATOM     21  C2  non d ame      -7.854   9.874  62.063  0.00  0.00     0.077 A 
ATOM     22  H1  non d ame      -7.896  10.793  64.111  0.00  0.00     0.091 H 
ATOM     23  O1  non d ame      -8.004   8.635  61.697  0.00  0.00    -0.218 OA
ATOM     24  N1  non d ame      -8.209   7.847  62.728  0.00  0.00    -0.123 NA
BRANCH  21  25
ATOM     25  C3  non d ame      -7.599  11.063  61.146  0.00  0.00    -0.029 C 
ATOM     26  H2  non d ame      -7.151  10.714  60.215  0.00  0.00     0.036 H 
ATOM     27  H3  non d ame      -8.543  11.563  60.929  0.00  0.00     0.036 H 
ATOM     28  H4  non d ame      -6.922  11.762  61.636  0.00  0.00     0.036 H 
ENDBRANCH  21  25
ENDBRANCH  16  19
ENDBRANCH  13  15
BRANCH  13  29
ATOM     29  C8  non d ame      -7.396   9.002  68.723  0.00  0.00    -0.049 C 
ATOM     30  H7  non d ame      -7.844   9.106  69.712  0.00  0.00     0.030 H 
ATOM     31  H8  non d ame      -6.516   8.364  68.788  0.00  0.00     0.030 H 
ATOM     32  H9  non d ame      -7.107   9.985  68.352  0.00  0.00     0.030 H 
ENDBRANCH  13  29
ENDBRANCH  10  13
ENDBRANCH   7   9
BRANCH   7  33
ATOM     33  C11 non d ame     -11.475  10.164  71.101  0.00  0.00    -0.033 C 
ATOM     34  H12 non d ame     -11.040  11.092  71.471  0.00  0.00     0.042 H 
BRANCH  33  35
ATOM     35  C12 non d ame     -12.947  10.099  71.616  0.00  0.00    -0.071 C 
ATOM     36  H13 non d ame     -13.510  10.941  71.215  0.00  0.00     0.028 H 
ATOM     37  H14 non d ame     -13.406   9.166  71.287  0.00  0.00     0.028 H 
ATOM     38  H15 non d ame     -12.953  10.142  72.705  0.00  0.00     0.028 H 
ENDBRANCH  33  35
BRANCH  33  39
ATOM     39  C13 non d ame     -10.627   8.976  71.657  0.00  0.00    -0.071 C 
ATOM     40  H16 non d ame      -9.582   9.114  71.380  0.00  0.00     0.028 H 
ATOM     41  H17 non d ame     -10.713   8.946  72.744  0.00  0.00     0.028 H 
ATOM     42  H18 non d ame     -10.994   8.040  71.238  0.00  0.00     0.028 H 
ENDBRANCH  33  39
ENDBRANCH   7  33
ENDBRANCH   4   7
ENDBRANCH   1   3
BRANCH   1  43
ATOM     43  C15 non d ame     -10.788  14.648  68.657  0.00  0.00     0.240 C 
ATOM     44  O5  non d ame      -9.663  14.367  68.920  0.00  0.00    -0.271 OA
ATOM     45  N6  non d ame     -11.081  15.505  67.473  0.00  0.00    -0.355 N 
ATOM     46  H46 non d ame     -12.033  15.745  67.237  0.00  0.00     0.162 HD
BRANCH  45  47
ATOM     47  C20 non d ame      -9.968  16.007  66.638  0.00  0.00     0.013 C 
ATOM     48  H30 non d ame      -9.034  15.770  67.147  0.00  0.00     0.072 H 
BRANCH  47  49
ATOM     49  C21 non d ame     -10.102  17.504  66.475  0.00  0.00    -0.038 C 
ATOM     50  H31 non d ame      -9.090  17.874  66.314  0.00  0.00     0.036 H 
ATOM     51  H32 non d ame     -10.865  17.649  65.710  0.00  0.00     0.036 H 
BRANCH  49  52
ATOM     52  C22 non d ame     -10.624  18.201  67.750  0.00  0.00     0.018 C 
ATOM     53  H33 non d ame     -11.611  18.588  67.492  0.00  0.00     0.048 H 
ATOM     54  H34 non d ame     -10.518  17.470  68.551  0.00  0.00     0.048 H 
BRANCH  52  55
ATOM     55  C23 non d ame      -9.780  19.433  68.180  0.00  0.00     0.259 C 
ATOM     56  O7  non d ame      -9.671  19.718  69.329  0.00  0.00    -0.265 OA
BRANCH  55  57
ATOM     57  O8  non d ame      -9.148  20.227  67.184  0.00  0.00    -0.317 OA
BRANCH  57  58
ATOM     58  C29 non d ame      -7.774  20.518  67.456  0.00  0.00     0.052 C 
ATOM     59  H47 non d ame      -7.666  21.593  67.311  0.00  0.00     0.082 H 
ATOM     60  H48 non d ame      -7.566  20.077  68.431  0.00  0.00     0.082 H 
BRANCH  58  61
ATOM     61  C35 non d ame      -6.910  19.789  66.393  0.00  0.00    -0.034 A 
ATOM     62  C30 non d ame      -6.595  20.424  65.196  0.00  0.00    -0.075 A 
ATOM     63  C31 non d ame      -5.819  19.770  64.241  0.00  0.00    -0.082 A 
ATOM     64  H49 non d ame      -6.957  21.435  65.007  0.00  0.00     0.084 H 
ATOM     65  C32 non d ame      -5.359  18.473  64.486  0.00  0.00    -0.083 A 
ATOM     66  H50 non d ame      -5.573  20.271  63.305  0.00  0.00     0.083 H 
ATOM     67  C33 non d ame      -5.678  17.842  65.680  0.00  0.00    -0.082 A 
ATOM     68  H51 non d ame      -4.751  17.954  63.745  0.00  0.00     0.083 H 
ATOM     69  C34 non d ame      -6.452  18.493  66.639  0.00  0.00    -0.075 A 
ATOM     70  H52 non d ame      -5.319  16.829  65.867  0.00  0.00     0.083 H 
ATOM     71  H53 non d ame      -6.697  17.991  67.575  0.00  0.00     0.084 H 
ENDBRANCH  58  61
ENDBRANCH  57  58
ENDBRANCH  55  57
ENDBRANCH  52  55
ENDBRANCH  49  52
ENDBRANCH  47  49
BRANCH  47  72
ATOM     72  C24 non d ame     -10.010  15.338  65.266  0.00  0.00    -0.039 C 
ATOM     73  H35 non d ame     -10.210  16.143  64.557  0.00  0.00     0.036 H 
ATOM     74  H36 non d ame      -9.085  14.766  65.194  0.00  0.00     0.036 H 
BRANCH  72  75
ATOM     75  C25 non d ame     -11.221  14.296  65.151  0.00  0.00    -0.001 C 
ATOM     76  C26 non d ame     -10.659  12.838  64.640  0.00  0.00    -0.035 C 
ATOM     77  C27 non d ame     -11.401  12.430  63.583  0.00  0.00     0.085 C 
ATOM     78  H38 non d ame      -9.659  12.949  64.222  0.00  0.00     0.036 H 
ATOM     79  H39 non d ame     -10.852  12.076  65.396  0.00  0.00     0.036 H 
ATOM     80  N5  non d ame     -12.204  13.622  63.121  0.00  0.00    -0.049 N 
ATOM     81  H40 non d ame     -10.681  12.164  62.807  0.00  0.00     0.075 H 
ATOM     82  H41 non d ame     -12.080  11.676  63.978  0.00  0.00     0.075 H 
ATOM     83  C28 non d ame     -12.114  14.707  64.313  0.00  0.00     0.193 C 
ATOM     84  H42 non d ame     -11.726  13.993  62.312  0.00  0.00     0.280 HD
ATOM     85  H43 non d ame     -13.161  13.309  63.043  0.00  0.00     0.280 HD
ATOM     86  H44 non d ame     -12.958  14.864  64.984  0.00  0.00     0.129 H 
ATOM     87  H37 non d ame     -11.855  14.300  66.038  0.00  0.00     0.046 H 
BRANCH  83  88
ATOM     88  O6  non d ame     -11.802  15.996  63.783  0.00  0.00    -0.369 OA
ATOM     89  H45 non d ame     -11.032  16.350  64.233  0.00  0.00     0.212 HD
ENDBRANCH  83  88
ENDBRANCH  72  75
ENDBRANCH  47  72
ENDBRANCH  45  47
ENDBRANCH   1  43
BRANCH   1  90
ATOM     90  C16 non d ame     -12.119  15.008  70.760  0.00  0.00    -0.035 C 
ATOM     91  H21 non d ame     -11.138  15.041  71.236  0.00  0.00     0.037 H 
ATOM     92  H22 non d ame     -12.570  15.924  70.380  0.00  0.00     0.037 H 
BRANCH  90  93
ATOM     93  C17 non d ame     -13.108  14.437  71.826  0.00  0.00    -0.059 C 
ATOM     94  H23 non d ame     -13.113  13.352  71.724  0.00  0.00     0.038 H 
BRANCH  93  95
ATOM     95  C18 non d ame     -12.662  14.777  73.284  0.00  0.00    -0.073 C 
ATOM     96  H24 non d ame     -13.462  14.516  73.978  0.00  0.00     0.028 H 
ATOM     97  H25 non d ame     -11.766  14.208  73.532  0.00  0.00     0.028 H 
ATOM     98  H26 non d ame     -12.448  15.843  73.359  0.00  0.00     0.028 H 
ENDBRANCH  93  95
BRANCH  93  99
ATOM     99  C19 non d ame     -14.535  14.926  71.564  0.00  0.00    -0.073 C 
ATOM    100  H27 non d ame     -15.187  14.069  71.396  0.00  0.00     0.028 H 
ATOM    101  H28 non d ame     -14.889  15.490  72.428  0.00  0.00     0.028 H 
ATOM    102  H29 non d ame     -14.543  15.568  70.684  0.00  0.00     0.028 H 
ENDBRANCH  93  99
ENDBRANCH  90  93
ENDBRANCH   1  90
TORSDOF 26
ENDMDL
MODEL 2
REMARK VINA RESULT:      -7.2      2.456      3.495
REMARK  26 active torsions:
REMARK  status: ('A' for Active; 'I' for Inactive)
REMARK    1  A    between atoms: C2_2  and  C3_3 
REMARK    2  A    between atoms: C4_6  and  C5_7 
REMARK       I    between atoms: C5_7  and  N2_9 
REMARK    3  A    between atoms: N2_9  and  C6_10 
REMARK    4  A    between atoms: C6_10  and  C7_11 
REMARK    5  A    between atoms: C6_10  and  C8_13 
REMARK       I    between atoms: C7_11  and  N3_14 
REMARK    6  A    between atoms: N3_14  and  C9_15 
REMARK    7  A    between atoms: C9_15  and  C10_16 
REMARK    8  A    between atoms: C9_15  and  C11_18 
REMARK       I    between atoms: C10_16  and  N4_21 
REMARK    9  A    between atoms: C11_18  and  C12_19 
REMARK   10  A    between atoms: C11_18  and  C13_20 
REMARK   11  A    between atoms: N4_21  and  C14_22 
REMARK   12  A    between atoms: C14_22  and  C15_23 
REMARK   13  A    between atoms: C14_22  and  C16_25 
REMARK       I    between atoms: C15_23  and  N6_40 
REMARK   14  A    between atoms: C16_25  and  C17_26 
REMARK   15  A    between atoms: C17_26  and  C18_27 
REMARK   16  A    between atoms: C17_26  and  C19_28 
REMARK   17  A    between atoms: C20_29  and  C21_30 
REMARK   18  A    between atoms: C20_29  and  C24_33 
REMARK   19  A    between atoms: C20_29  and  N6_40 
REMARK   20  A    between atoms: C21_30  and  C22_31 
REMARK   21  A    between atoms: C22_31  and  C23_32 
REMARK   22  A    between atoms: C23_32  and  O8_43 
REMARK   23  A    between atoms: C24_33  and  C25_34 
REMARK   24  A    between atoms: C28_38  and  O6_39 
REMARK   25  A    between atoms: C29_42  and  O8_43 
REMARK   26  A    between atoms: C29_42  and  C35_49 
ROOT
ATOM      1  C14 non d ame     -11.852  14.286  70.043  0.00  0.00     0.089 C 
ATOM      2  H20 non d ame     -12.833  14.365  69.574  0.00  0.00     0.087 H 
ENDROOT
BRANCH   1   3
ATOM      3  N4  non d ame     -11.578  12.872  70.252  0.00  0.00    -0.346 N 
ATOM      4  C10 non d ame     -11.750  11.887  69.124  0.00  0.00     0.241 C 
ATOM      5  O4  non d ame     -12.112  12.256  68.055  0.00  0.00    -0.271 OA
ATOM      6  H19 non d ame     -11.273  12.578  71.170  0.00  0.00     0.163 HD
BRANCH   4   7
ATOM      7  C9  non d ame     -11.456  10.429  69.357  0.00  0.00     0.092 C 
ATOM      8  H11 non d ame     -12.115   9.826  68.732  0.00  0.00     0.088 H 
BRANCH   7   9
ATOM      9  N3  non d ame     -10.080  10.135  68.946  0.00  0.00    -0.346 N 
ATOM     10  C7  non d ame      -9.833   9.227  67.853  0.00  0.00     0.240 C 
ATOM     11  O3  non d ame     -10.729   8.723  67.294  0.00  0.00    -0.271 OA
ATOM     12  H10 non d ame      -9.296  10.560  69.420  0.00  0.00     0.163 HD
BRANCH  10  13
ATOM     13  C6  non d ame      -8.366   8.915  67.423  0.00  0.00     0.086 C 
ATOM     14  H6  non d ame      -8.260   8.787  66.346  0.00  0.00     0.086 H 
BRANCH  13  15
ATOM     15  N2  non d ame      -7.518  10.037  67.793  0.00  0.00    -0.343 N 
ATOM     16  C5  non d ame      -7.228  11.079  66.805  0.00  0.00     0.273 C 
ATOM     17  O2  non d ame      -7.680  11.004  65.715  0.00  0.00    -0.266 OA
ATOM     18  H5  non d ame      -7.134  10.091  68.725  0.00  0.00     0.163 HD
BRANCH  16  19
ATOM     19  C4  non d ame      -6.335  12.271  67.183  0.00  0.00     0.154 A 
ATOM     20  C1  non d ame      -6.695  13.403  67.980  0.00  0.00    -0.017 A 
ATOM     21  C2  non d ame      -5.530  14.200  68.027  0.00  0.00     0.077 A 
ATOM     22  H1  non d ame      -7.655  13.613  68.453  0.00  0.00     0.091 H 
ATOM     23  O1  non d ame      -4.614  13.588  67.336  0.00  0.00    -0.218 OA
ATOM     24  N1  non d ame      -5.060  12.460  66.833  0.00  0.00    -0.123 NA
BRANCH  21  25
ATOM     25  C3  non d ame      -5.376  15.529  68.754  0.00  0.00    -0.029 C 
ATOM     26  H2  non d ame      -5.406  15.361  69.831  0.00  0.00     0.036 H 
ATOM     27  H3  non d ame      -4.422  15.982  68.484  0.00  0.00     0.036 H 
ATOM     28  H4  non d ame      -6.189  16.197  68.468  0.00  0.00     0.036 H 
ENDBRANCH  21  25
ENDBRANCH  16  19
ENDBRANCH  13  15
BRANCH  13  29
ATOM     29  C8  non d ame      -7.892   7.661  68.112  0.00  0.00    -0.049 C 
ATOM     30  H7  non d ame      -8.294   7.629  69.125  0.00  0.00     0.030 H 
ATOM     31  H8  non d ame      -8.237   6.789  67.556  0.00  0.00     0.030 H 
ATOM     32  H9  non d ame      -6.803   7.659  68.154  0.00  0.00     0.030 H 
ENDBRANCH  13  29
ENDBRANCH  10  13
ENDBRANCH   7   9
BRANCH   7  33
ATOM     33  C11 non d ame     -11.624  10.102  70.870  0.00  0.00    -0.033 C 
ATOM     34  H12 non d ame     -11.354  10.996  71.431  0.00  0.00     0.042 H 
BRANCH  33  35
ATOM     35  C12 non d ame     -13.107   9.761  71.216  0.00  0.00    -0.071 C 
ATOM     36  H13 non d ame     -13.362   8.785  70.803  0.00  0.00     0.028 H 
ATOM     37  H14 non d ame     -13.232   9.741  72.299  0.00  0.00     0.028 H 
ATOM     38  H15 non d ame     -13.763  10.519  70.789  0.00  0.00     0.028 H 
ENDBRANCH  33  35
BRANCH  33  39
ATOM     39  C13 non d ame     -10.663   8.949  71.303  0.00  0.00    -0.071 C 
ATOM     40  H16 non d ame     -10.122   9.245  72.201  0.00  0.00     0.028 H 
ATOM     41  H17 non d ame     -11.243   8.049  71.509  0.00  0.00     0.028 H 
ATOM     42  H18 non d ame      -9.953   8.748  70.501  0.00  0.00     0.028 H 
ENDBRANCH  33  39
ENDBRANCH   7  33
ENDBRANCH   4   7
ENDBRANCH   1   3
BRANCH   1  43
ATOM     43  C15 non d ame     -10.725  14.882  69.151  0.00  0.00     0.240 C 
ATOM     44  O5  non d ame      -9.618  14.968  69.575  0.00  0.00    -0.271 OA
ATOM     45  N6  non d ame     -11.025  15.337  67.763  0.00  0.00    -0.355 N 
ATOM     46  H46 non d ame     -11.960  15.265  67.390  0.00  0.00     0.162 HD
BRANCH  45  47
ATOM     47  C20 non d ame      -9.942  15.900  66.927  0.00  0.00     0.013 C 
ATOM     48  H30 non d ame      -8.990  15.617  67.376  0.00  0.00     0.072 H 
BRANCH  47  49
ATOM     49  C21 non d ame     -10.069  17.406  66.892  0.00  0.00    -0.038 C 
ATOM     50  H31 non d ame      -9.508  17.729  66.015  0.00  0.00     0.036 H 
ATOM     51  H32 non d ame     -11.138  17.613  66.963  0.00  0.00     0.036 H 
BRANCH  49  52
ATOM     52  C22 non d ame      -9.410  18.092  68.109  0.00  0.00     0.018 C 
ATOM     53  H33 non d ame     -10.052  18.938  68.354  0.00  0.00     0.048 H 
ATOM     54  H34 non d ame      -9.248  17.300  68.841  0.00  0.00     0.048 H 
BRANCH  52  55
ATOM     55  C23 non d ame      -8.009  18.691  67.807  0.00  0.00     0.259 C 
ATOM     56  O7  non d ame      -7.206  18.067  67.191  0.00  0.00    -0.265 OA
BRANCH  55  57
ATOM     57  O8  non d ame      -7.689  19.991  68.286  0.00  0.00    -0.317 OA
BRANCH  57  58
ATOM     58  C29 non d ame      -6.352  20.408  67.992  0.00  0.00     0.052 C 
ATOM     59  H47 non d ame      -5.927  19.618  67.374  0.00  0.00     0.082 H 
ATOM     60  H48 non d ame      -6.439  21.420  67.599  0.00  0.00     0.082 H 
BRANCH  58  61
ATOM     61  C35 non d ame      -5.564  20.465  69.327  0.00  0.00    -0.034 A 
ATOM     62  C30 non d ame      -4.254  20.933  69.343  0.00  0.00    -0.075 A 
ATOM     63  C31 non d ame      -3.545  20.985  70.543  0.00  0.00    -0.082 A 
ATOM     64  H49 non d ame      -3.783  21.260  68.416  0.00  0.00     0.084 H 
ATOM     65  C32 non d ame      -4.151  20.564  71.730  0.00  0.00    -0.083 A 
ATOM     66  H50 non d ame      -2.520  21.354  70.552  0.00  0.00     0.083 H 
ATOM     67  C33 non d ame      -5.458  20.095  71.708  0.00  0.00    -0.082 A 
ATOM     68  H51 non d ame      -3.605  20.601  72.672  0.00  0.00     0.083 H 
ATOM     69  C34 non d ame      -6.170  20.043  70.512  0.00  0.00    -0.075 A 
ATOM     70  H52 non d ame      -5.927  19.765  72.636  0.00  0.00     0.083 H 
ATOM     71  H53 non d ame      -7.196  19.675  70.504  0.00  0.00     0.084 H 
ENDBRANCH  58  61
ENDBRANCH  57  58
ENDBRANCH  55  57
ENDBRANCH  52  55
ENDBRANCH  49  52
ENDBRANCH  47  49
BRANCH  47  72
ATOM     72  C24 non d ame     -10.045  15.346  65.507  0.00  0.00    -0.039 C 
ATOM     73  H35 non d ame     -10.148  16.219  64.862  0.00  0.00     0.036 H 
ATOM     74  H36 non d ame      -9.189  14.682  65.392  0.00  0.00     0.036 H 
BRANCH  72  75
ATOM     75  C25 non d ame     -11.363  14.457  65.312  0.00  0.00    -0.001 C 
ATOM     76  C26 non d ame     -10.946  12.920  64.903  0.00  0.00    -0.035 C 
ATOM     77  C27 non d ame     -11.636  12.561  63.794  0.00  0.00     0.085 C 
ATOM     78  H38 non d ame      -9.906  12.889  64.577  0.00  0.00     0.036 H 
ATOM     79  H39 non d ame     -11.300  12.221  65.661  0.00  0.00     0.036 H 
ATOM     80  N5  non d ame     -12.238  13.821  63.221  0.00  0.00    -0.049 N 
ATOM     81  H40 non d ame     -10.890  12.175  63.098  0.00  0.00     0.075 H 
ATOM     82  H41 non d ame     -12.438  11.913  64.147  0.00  0.00     0.075 H 
ATOM     83  C28 non d ame     -12.118  14.937  64.381  0.00  0.00     0.193 C 
ATOM     84  H42 non d ame     -11.647  14.095  62.449  0.00  0.00     0.280 HD
ATOM     85  H43 non d ame     -13.216  13.625  63.064  0.00  0.00     0.280 HD
ATOM     86  H44 non d ame     -12.993  15.226  64.965  0.00  0.00     0.129 H 
ATOM     87  H37 non d ame     -12.068  14.577  66.135  0.00  0.00     0.046 H 
BRANCH  83  88
ATOM     88  O6  non d ame     -11.600  16.155  63.842  0.00  0.00    -0.369 OA
ATOM     89  H45 non d ame     -10.699  16.282  64.148  0.00  0.00     0.212 HD
ENDBRANCH  83  88
ENDBRANCH  72  75
ENDBRANCH  47  72
ENDBRANCH  45  47
ENDBRANCH   1  43
BRANCH   1  90
ATOM     90  C16 non d ame     -11.866  14.994  71.388  0.00  0.00    -0.035 C 
ATOM     91  H21 non d ame     -11.616  14.226  72.121  0.00  0.00     0.037 H 
ATOM     92  H22 non d ame     -11.217  15.861  71.265  0.00  0.00     0.037 H 
BRANCH  90  93
ATOM     93  C17 non d ame     -13.271  15.547  71.790  0.00  0.00    -0.059 C 
ATOM     94  H23 non d ame     -13.474  16.418  71.167  0.00  0.00     0.038 H 
BRANCH  93  95
ATOM     95  C18 non d ame     -14.408  14.505  71.539  0.00  0.00    -0.073 C 
ATOM     96  H24 non d ame     -15.173  14.950  70.903  0.00  0.00     0.028 H 
ATOM     97  H25 non d ame     -13.993  13.625  71.048  0.00  0.00     0.028 H 
ATOM     98  H26 non d ame     -14.850  14.214  72.492  0.00  0.00     0.028 H 
ENDBRANCH  93  95
BRANCH  93  99
ATOM     99  C19 non d ame     -13.276  16.019  73.247  0.00  0.00    -0.073 C 
ATOM    100  H27 non d ame     -12.310  15.800  73.703  0.00  0.00     0.028 H 
ATOM    101  H28 non d ame     -13.459  17.093  73.279  0.00  0.00     0.028 H 
ATOM    102  H29 non d ame     -14.063  15.500  73.794  0.00  0.00     0.028 H 
ENDBRANCH  93  99
ENDBRANCH  90  93
ENDBRANCH   1  90
TORSDOF 26
ENDMDL
MODEL 3
REMARK VINA RESULT:      -7.2      2.503      9.263
REMARK  26 active torsions:
REMARK  status: ('A' for Active; 'I' for Inactive)
REMARK    1  A    between atoms: C2_2  and  C3_3 
REMARK    2  A    between atoms: C4_6  and  C5_7 
REMARK       I    between atoms: C5_7  and  N2_9 
REMARK    3  A    between atoms: N2_9  and  C6_10 
REMARK    4  A    between atoms: C6_10  and  C7_11 
REMARK    5  A    between atoms: C6_10  and  C8_13 
REMARK       I    between atoms: C7_11  and  N3_14 
REMARK    6  A    between atoms: N3_14  and  C9_15 
REMARK    7  A    between atoms: C9_15  and  C10_16 
REMARK    8  A    between atoms: C9_15  and  C11_18 
REMARK       I    between atoms: C10_16  and  N4_21 
REMARK    9  A    between atoms: C11_18  and  C12_19 
REMARK   10  A    between atoms: C11_18  and  C13_20 
REMARK   11  A    between atoms: N4_21  and  C14_22 
REMARK   12  A    between atoms: C14_22  and  C15_23 
REMARK   13  A    between atoms: C14_22  and  C16_25 
REMARK       I    between atoms: C15_23  and  N6_40 
REMARK   14  A    between atoms: C16_25  and  C17_26 
REMARK   15  A    between atoms: C17_26  and  C18_27 
REMARK   16  A    between atoms: C17_26  and  C19_28 
REMARK   17  A    between atoms: C20_29  and  C21_30 
REMARK   18  A    between atoms: C20_29  and  C24_33 
REMARK   19  A    between atoms: C20_29  and  N6_40 
REMARK   20  A    between atoms: C21_30  and  C22_31 
REMARK   21  A    between atoms: C22_31  and  C23_32 
REMARK   22  A    between atoms: C23_32  and  O8_43 
REMARK   23  A    between atoms: C24_33  and  C25_34 
REMARK   24  A    between atoms: C28_38  and  O6_39 
REMARK   25  A    between atoms: C29_42  and  O8_43 
REMARK   26  A    between atoms: C29_42  and  C35_49 
ROOT
ATOM      1  C14 non d ame      -9.195   6.969  66.356  0.00  0.00     0.089 C 
ATOM      2  H20 non d ame      -9.637   6.558  65.448  0.00  0.00     0.087 H 
ENDROOT
BRANCH   1   3
ATOM      3  N4  non d ame      -8.769   8.329  66.059  0.00  0.00    -0.346 N 
ATOM      4  C10 non d ame      -8.266   8.686  64.684  0.00  0.00     0.241 C 
ATOM      5  O4  non d ame      -8.211   7.862  63.832  0.00  0.00    -0.271 OA
ATOM      6  H19 non d ame      -8.822   9.015  66.799  0.00  0.00     0.163 HD
BRANCH   4   7
ATOM      7  C9  non d ame      -7.835  10.100  64.393  0.00  0.00     0.092 C 
ATOM      8  H11 non d ame      -7.726  10.227  63.316  0.00  0.00     0.088 H 
BRANCH   7   9
ATOM      9  N3  non d ame      -8.878  11.030  64.836  0.00  0.00    -0.346 N 
ATOM     10  C7  non d ame      -9.884  11.480  63.906  0.00  0.00     0.240 C 
ATOM     11  O3  non d ame      -9.869  11.105  62.797  0.00  0.00    -0.271 OA
ATOM     12  H10 non d ame      -8.902  11.364  65.788  0.00  0.00     0.163 HD
BRANCH  10  13
ATOM     13  C6  non d ame     -10.989  12.473  64.382  0.00  0.00     0.086 C 
ATOM     14  H6  non d ame     -11.532  12.112  65.256  0.00  0.00     0.086 H 
BRANCH  13  15
ATOM     15  N2  non d ame     -10.362  13.726  64.770  0.00  0.00    -0.343 N 
ATOM     16  C5  non d ame     -11.025  14.592  65.748  0.00  0.00     0.273 C 
ATOM     17  O2  non d ame     -12.064  14.273  66.213  0.00  0.00    -0.266 OA
ATOM     18  H5  non d ame      -9.476  13.991  64.365  0.00  0.00     0.163 HD
BRANCH  16  19
ATOM     19  C4  non d ame     -10.373  15.918  66.169  0.00  0.00     0.154 A 
ATOM     20  C1  non d ame     -10.571  16.628  67.396  0.00  0.00    -0.017 A 
ATOM     21  C2  non d ame      -9.750  17.773  67.289  0.00  0.00     0.077 A 
ATOM     22  H1  non d ame     -11.211  16.353  68.234  0.00  0.00     0.091 H 
ATOM     23  O1  non d ame      -9.155  17.717  66.134  0.00  0.00    -0.218 OA
ATOM     24  N1  non d ame      -9.503  16.644  65.461  0.00  0.00    -0.123 NA
BRANCH  21  25
ATOM     25  C3  non d ame      -9.592  18.869  68.335  0.00  0.00    -0.029 C 
ATOM     26  H2  non d ame      -9.727  19.843  67.864  0.00  0.00     0.036 H 
ATOM     27  H3  non d ame     -10.340  18.736  69.116  0.00  0.00     0.036 H 
ATOM     28  H4  non d ame      -8.595  18.812  68.773  0.00  0.00     0.036 H 
ENDBRANCH  21  25
ENDBRANCH  16  19
ENDBRANCH  13  15
BRANCH  13  29
ATOM     29  C8  non d ame     -11.971  12.712  63.263  0.00  0.00    -0.049 C 
ATOM     30  H7  non d ame     -12.913  13.073  63.676  0.00  0.00     0.030 H 
ATOM     31  H8  non d ame     -11.566  13.456  62.577  0.00  0.00     0.030 H 
ATOM     32  H9  non d ame     -12.144  11.779  62.727  0.00  0.00     0.030 H 
ENDBRANCH  13  29
ENDBRANCH  10  13
ENDBRANCH   7   9
BRANCH   7  33
ATOM     33  C11 non d ame      -6.513  10.406  65.155  0.00  0.00    -0.033 C 
ATOM     34  H12 non d ame      -5.984  11.181  64.600  0.00  0.00     0.042 H 
BRANCH  33  35
ATOM     35  C12 non d ame      -6.797  10.964  66.584  0.00  0.00    -0.071 C 
ATOM     36  H13 non d ame      -6.917  10.135  67.281  0.00  0.00     0.028 H 
ATOM     37  H14 non d ame      -5.961  11.587  66.903  0.00  0.00     0.028 H 
ATOM     38  H15 non d ame      -7.709  11.560  66.566  0.00  0.00     0.028 H 
ENDBRANCH  33  35
BRANCH  33  39
ATOM     39  C13 non d ame      -5.595   9.142  65.213  0.00  0.00    -0.071 C 
ATOM     40  H16 non d ame      -6.062   8.329  64.658  0.00  0.00     0.028 H 
ATOM     41  H17 non d ame      -4.627   9.376  64.770  0.00  0.00     0.028 H 
ATOM     42  H18 non d ame      -5.457   8.842  66.251  0.00  0.00     0.028 H 
ENDBRANCH  33  39
ENDBRANCH   7  33
ENDBRANCH   4   7
ENDBRANCH   1   3
BRANCH   1  43
ATOM     43  C15 non d ame     -10.209   7.013  67.535  0.00  0.00     0.240 C 
ATOM     44  O5  non d ame     -11.230   6.409  67.460  0.00  0.00    -0.271 OA
ATOM     45  N6  non d ame      -9.904   7.803  68.762  0.00  0.00    -0.355 N 
ATOM     46  H46 non d ame      -9.038   8.317  68.839  0.00  0.00     0.162 HD
BRANCH  45  47
ATOM     47  C20 non d ame     -10.878   7.834  69.874  0.00  0.00     0.013 C 
ATOM     48  H30 non d ame     -11.820   7.429  69.507  0.00  0.00     0.072 H 
BRANCH  47  49
ATOM     49  C21 non d ame     -11.072   9.263  70.329  0.00  0.00    -0.038 C 
ATOM     50  H31 non d ame     -12.116   9.498  70.125  0.00  0.00     0.036 H 
ATOM     51  H32 non d ame     -10.693   9.301  71.351  0.00  0.00     0.036 H 
BRANCH  49  52
ATOM     52  C22 non d ame     -10.231  10.271  69.515  0.00  0.00     0.018 C 
ATOM     53  H33 non d ame     -10.006  11.089  70.199  0.00  0.00     0.048 H 
ATOM     54  H34 non d ame      -9.420   9.690  69.074  0.00  0.00     0.048 H 
BRANCH  52  55
ATOM     55  C23 non d ame     -10.998  10.908  68.323  0.00  0.00     0.259 C 
ATOM     56  O7  non d ame     -10.828  10.511  67.215  0.00  0.00    -0.265 OA
BRANCH  55  57
ATOM     57  O8  non d ame     -11.898  11.981  68.567  0.00  0.00    -0.317 OA
BRANCH  57  58
ATOM     58  C29 non d ame     -11.280  13.142  69.130  0.00  0.00     0.052 C 
ATOM     59  H47 non d ame     -10.340  12.797  69.561  0.00  0.00     0.082 H 
ATOM     60  H48 non d ame     -11.274  13.888  68.336  0.00  0.00     0.082 H 
BRANCH  58  61
ATOM     61  C35 non d ame     -12.187  13.657  70.280  0.00  0.00    -0.034 A 
ATOM     62  C30 non d ame     -12.423  15.021  70.423  0.00  0.00    -0.075 A 
ATOM     63  C31 non d ame     -13.237  15.484  71.456  0.00  0.00    -0.082 A 
ATOM     64  H49 non d ame     -11.971  15.727  69.727  0.00  0.00     0.084 H 
ATOM     65  C32 non d ame     -13.814  14.577  72.349  0.00  0.00    -0.083 A 
ATOM     66  H50 non d ame     -13.422  16.552  71.564  0.00  0.00     0.083 H 
ATOM     67  C33 non d ame     -13.573  13.217  72.204  0.00  0.00    -0.082 A 
ATOM     68  H51 non d ame     -14.453  14.930  73.159  0.00  0.00     0.083 H 
ATOM     69  C34 non d ame     -12.762  12.750  71.172  0.00  0.00    -0.075 A 
ATOM     70  H52 non d ame     -14.023  12.513  72.904  0.00  0.00     0.083 H 
ATOM     71  H53 non d ame     -12.578  11.681  71.064  0.00  0.00     0.084 H 
ENDBRANCH  58  61
ENDBRANCH  57  58
ENDBRANCH  55  57
ENDBRANCH  52  55
ENDBRANCH  49  52
ENDBRANCH  47  49
BRANCH  47  72
ATOM     72  C24 non d ame     -10.358   6.995  71.039  0.00  0.00    -0.039 C 
ATOM     73  H35 non d ame     -11.130   6.248  71.226  0.00  0.00     0.036 H 
ATOM     74  H36 non d ame      -9.356   6.681  70.746  0.00  0.00     0.036 H 
BRANCH  72  75
ATOM     75  C25 non d ame     -10.208   7.865  72.376  0.00  0.00    -0.001 C 
ATOM     76  C26 non d ame      -8.620   7.995  72.784  0.00  0.00    -0.035 C 
ATOM     77  C27 non d ame      -8.473   7.637  74.082  0.00  0.00     0.085 C 
ATOM     78  H38 non d ame      -8.034   7.252  72.246  0.00  0.00     0.036 H 
ATOM     79  H39 non d ame      -8.316   9.042  72.773  0.00  0.00     0.036 H 
ATOM     80  N5  non d ame      -9.756   6.962  74.503  0.00  0.00    -0.049 N 
ATOM     81  H40 non d ame      -7.666   6.903  74.092  0.00  0.00     0.075 H 
ATOM     82  H41 non d ame      -8.366   8.571  74.632  0.00  0.00     0.075 H 
ATOM     83  C28 non d ame     -10.840   7.320  73.362  0.00  0.00     0.193 C 
ATOM     84  H42 non d ame      -9.579   5.968  74.478  0.00  0.00     0.280 HD
ATOM     85  H43 non d ame     -10.041   7.402  75.366  0.00  0.00     0.280 HD
ATOM     86  H44 non d ame     -11.609   8.072  73.544  0.00  0.00     0.129 H 
ATOM     87  H37 non d ame     -10.787   8.787  72.336  0.00  0.00     0.046 H 
BRANCH  83  88
ATOM     88  O6  non d ame     -11.545   6.142  72.965  0.00  0.00    -0.369 OA
ATOM     89  H45 non d ame     -11.533   6.070  72.008  0.00  0.00     0.212 HD
ENDBRANCH  83  88
ENDBRANCH  72  75
ENDBRANCH  47  72
ENDBRANCH  45  47
ENDBRANCH   1  43
BRANCH   1  90
ATOM     90  C16 non d ame      -7.982   6.145  66.756  0.00  0.00    -0.035 C 
ATOM     91  H21 non d ame      -7.607   5.713  65.828  0.00  0.00     0.037 H 
ATOM     92  H22 non d ame      -7.352   6.821  67.335  0.00  0.00     0.037 H 
BRANCH  90  93
ATOM     93  C17 non d ame      -8.322   4.945  67.696  0.00  0.00    -0.059 C 
ATOM     94  H23 non d ame      -9.334   5.094  68.070  0.00  0.00     0.038 H 
BRANCH  93  95
ATOM     95  C18 non d ame      -8.290   3.577  66.940  0.00  0.00    -0.073 C 
ATOM     96  H24 non d ame      -8.803   2.822  67.535  0.00  0.00     0.028 H 
ATOM     97  H25 non d ame      -8.791   3.683  65.977  0.00  0.00     0.028 H 
ATOM     98  H26 non d ame      -7.255   3.275  66.780  0.00  0.00     0.028 H 
ENDBRANCH  93  95
BRANCH  93  99
ATOM     99  C19 non d ame      -7.388   4.918  68.908  0.00  0.00    -0.073 C 
ATOM    100  H27 non d ame      -6.604   5.665  68.780  0.00  0.00     0.028 H 
ATOM    101  H28 non d ame      -7.958   5.141  69.811  0.00  0.00     0.028 H 
ATOM    102  H29 non d ame      -6.937   3.930  68.999  0.00  0.00     0.028 H 
ENDBRANCH  93  99
ENDBRANCH  90  93
ENDBRANCH   1  90
TORSDOF 26
ENDMDL
MODEL 4
REMARK VINA RESULT:      -7.2      3.248      7.545
REMARK  26 active torsions:
REMARK  status: ('A' for Active; 'I' for Inactive)
REMARK    1  A    between atoms: C2_2  and  C3_3 
REMARK    2  A    between atoms: C4_6  and  C5_7 
REMARK       I    between atoms: C5_7  and  N2_9 
REMARK    3  A    between atoms: N2_9  and  C6_10 
REMARK    4  A    between atoms: C6_10  and  C7_11 
REMARK    5  A    between atoms: C6_10  and  C8_13 
REMARK       I    between atoms: C7_11  and  N3_14 
REMARK    6  A    between atoms: N3_14  and  C9_15 
REMARK    7  A    between atoms: C9_15  and  C10_16 
REMARK    8  A    between atoms: C9_15  and  C11_18 
REMARK       I    between atoms: C10_16  and  N4_21 
REMARK    9  A    between atoms: C11_18  and  C12_19 
REMARK   10  A    between atoms: C11_18  and  C13_20 
REMARK   11  A    between atoms: N4_21  and  C14_22 
REMARK   12  A    between atoms: C14_22  and  C15_23 
REMARK   13  A    between atoms: C14_22  and  C16_25 
REMARK       I    between atoms: C15_23  and  N6_40 
REMARK   14  A    between atoms: C16_25  and  C17_26 
REMARK   15  A    between atoms: C17_26  and  C18_27 
REMARK   16  A    between atoms: C17_26  and  C19_28 
REMARK   17  A    between atoms: C20_29  and  C21_30 
REMARK   18  A    between atoms: C20_29  and  C24_33 
REMARK   19  A    between atoms: C20_29  and  N6_40 
REMARK   20  A    between atoms: C21_30  and  C22_31 
REMARK   21  A    between atoms: C22_31  and  C23_32 
REMARK   22  A    between atoms: C23_32  and  O8_43 
REMARK   23  A    between atoms: C24_33  and  C25_34 
REMARK   24  A    between atoms: C28_38  and  O6_39 
REMARK   25  A    between atoms: C29_42  and  O8_43 
REMARK   26  A    between atoms: C29_42  and  C35_49 
ROOT
ATOM      1  C14 non d ame     -12.051  14.219  69.952  0.00  0.00     0.089 C 
ATOM      2  H20 non d ame     -13.086  13.881  69.883  0.00  0.00     0.087 H 
ENDROOT
BRANCH   1   3
ATOM      3  N4  non d ame     -11.198  13.047  69.824  0.00  0.00    -0.346 N 
ATOM      4  C10 non d ame     -11.780  11.663  69.959  0.00  0.00     0.241 C 
ATOM      5  O4  non d ame     -12.938  11.517  70.175  0.00  0.00    -0.271 OA
ATOM      6  H19 non d ame     -10.215  13.193  69.643  0.00  0.00     0.163 HD
BRANCH   4   7
ATOM      7  C9  non d ame     -10.884  10.461  69.818  0.00  0.00     0.092 C 
ATOM      8  H11 non d ame     -10.162  10.454  70.635  0.00  0.00     0.088 H 
BRANCH   7   9
ATOM      9  N3  non d ame     -11.683   9.238  69.935  0.00  0.00    -0.346 N 
ATOM     10  C7  non d ame     -11.724   8.521  71.186  0.00  0.00     0.240 C 
ATOM     11  O3  non d ame     -11.119   8.913  72.108  0.00  0.00    -0.271 OA
ATOM     12  H10 non d ame     -12.209   8.886  69.148  0.00  0.00     0.163 HD
BRANCH  10  13
ATOM     13  C6  non d ame     -12.574   7.218  71.304  0.00  0.00     0.086 C 
ATOM     14  H6  non d ame     -12.404   6.527  70.478  0.00  0.00     0.086 H 
BRANCH  13  15
ATOM     15  N2  non d ame     -12.195   6.515  72.518  0.00  0.00    -0.343 N 
ATOM     16  C5  non d ame     -11.147   5.493  72.463  0.00  0.00     0.273 C 
ATOM     17  O2  non d ame     -10.618   5.242  71.436  0.00  0.00    -0.266 OA
ATOM     18  H5  non d ame     -12.654   6.735  73.391  0.00  0.00     0.163 HD
BRANCH  16  19
ATOM     19  C4  non d ame     -10.734   4.744  73.739  0.00  0.00     0.154 A 
ATOM     20  C1  non d ame     -10.483   3.342  73.876  0.00  0.00    -0.017 A 
ATOM     21  C2  non d ame     -10.140   3.164  75.235  0.00  0.00     0.077 A 
ATOM     22  H1  non d ame     -10.540   2.571  73.107  0.00  0.00     0.091 H 
ATOM     23  O1  non d ame     -10.191   4.334  75.803  0.00  0.00    -0.218 OA
ATOM     24  N1  non d ame     -10.536   5.271  74.951  0.00  0.00    -0.123 NA
BRANCH  21  25
ATOM     25  C3  non d ame      -9.778   1.848  75.909  0.00  0.00    -0.029 C 
ATOM     26  H2  non d ame     -10.563   1.571  76.612  0.00  0.00     0.036 H 
ATOM     27  H3  non d ame      -9.676   1.069  75.153  0.00  0.00     0.036 H 
ATOM     28  H4  non d ame      -8.834   1.960  76.444  0.00  0.00     0.036 H 
ENDBRANCH  21  25
ENDBRANCH  16  19
ENDBRANCH  13  15
BRANCH  13  29
ATOM     29  C8  non d ame     -14.039   7.572  71.349  0.00  0.00    -0.049 C 
ATOM     30  H7  non d ame     -14.171   8.502  71.902  0.00  0.00     0.030 H 
ATOM     31  H8  non d ame     -14.414   7.698  70.333  0.00  0.00     0.030 H 
ATOM     32  H9  non d ame     -14.591   6.774  71.844  0.00  0.00     0.030 H 
ENDBRANCH  13  29
ENDBRANCH  10  13
ENDBRANCH   7   9
BRANCH   7  33
ATOM     33  C11 non d ame     -10.190  10.492  68.424  0.00  0.00    -0.033 C 
ATOM     34  H12 non d ame     -10.427  11.450  67.961  0.00  0.00     0.042 H 
BRANCH  33  35
ATOM     35  C12 non d ame      -8.638  10.409  68.560  0.00  0.00    -0.071 C 
ATOM     36  H13 non d ame      -8.188  10.375  67.567  0.00  0.00     0.028 H 
ATOM     37  H14 non d ame      -8.272  11.285  69.094  0.00  0.00     0.028 H 
ATOM     38  H15 non d ame      -8.370   9.508  69.112  0.00  0.00     0.028 H 
ENDBRANCH  33  35
BRANCH  33  39
ATOM     39  C13 non d ame     -10.740   9.359  67.500  0.00  0.00    -0.071 C 
ATOM     40  H16 non d ame     -11.371   8.689  68.083  0.00  0.00     0.028 H 
ATOM     41  H17 non d ame     -11.327   9.800  66.694  0.00  0.00     0.028 H 
ATOM     42  H18 non d ame      -9.906   8.798  67.078  0.00  0.00     0.028 H 
ENDBRANCH  33  39
ENDBRANCH   7  33
ENDBRANCH   4   7
ENDBRANCH   1   3
BRANCH   1  43
ATOM     43  C15 non d ame     -11.685  15.225  68.823  0.00  0.00     0.240 C 
ATOM     44  O5  non d ame     -12.141  16.322  68.838  0.00  0.00    -0.271 OA
ATOM     45  N6  non d ame     -10.759  14.822  67.727  0.00  0.00    -0.355 N 
ATOM     46  H46 non d ame     -10.361  13.894  67.706  0.00  0.00     0.162 HD
BRANCH  45  47
ATOM     47  C20 non d ame     -10.419  15.790  66.662  0.00  0.00     0.013 C 
ATOM     48  H30 non d ame     -11.168  16.581  66.676  0.00  0.00     0.072 H 
BRANCH  47  49
ATOM     49  C21 non d ame     -10.437  15.086  65.324  0.00  0.00    -0.038 C 
ATOM     50  H31 non d ame     -10.716  15.847  64.594  0.00  0.00     0.036 H 
ATOM     51  H32 non d ame      -9.473  14.582  65.244  0.00  0.00     0.036 H 
BRANCH  49  52
ATOM     52  C22 non d ame     -11.515  13.984  65.240  0.00  0.00     0.018 C 
ATOM     53  H33 non d ame     -11.328  13.323  66.086  0.00  0.00     0.048 H 
ATOM     54  H34 non d ame     -12.467  14.508  65.158  0.00  0.00     0.048 H 
BRANCH  52  55
ATOM     55  C23 non d ame     -11.405  13.096  63.970  0.00  0.00     0.259 C 
ATOM     56  O7  non d ame     -12.309  13.025  63.202  0.00  0.00    -0.265 OA
BRANCH  55  57
ATOM     57  O8  non d ame     -10.213  12.354  63.739  0.00  0.00    -0.317 OA
BRANCH  57  58
ATOM     58  C29 non d ame     -10.403  10.937  63.722  0.00  0.00     0.052 C 
ATOM     59  H47 non d ame     -10.628  10.657  64.751  0.00  0.00     0.082 H 
ATOM     60  H48 non d ame     -11.130  10.746  62.933  0.00  0.00     0.082 H 
BRANCH  58  61
ATOM     61  C35 non d ame      -9.057  10.278  63.317  0.00  0.00    -0.034 A 
ATOM     62  C30 non d ame      -8.571   9.189  64.033  0.00  0.00    -0.075 A 
ATOM     63  C31 non d ame      -7.362   8.597  63.670  0.00  0.00    -0.082 A 
ATOM     64  H49 non d ame      -9.138   8.798  64.878  0.00  0.00     0.084 H 
ATOM     65  C32 non d ame      -6.636   9.101  62.587  0.00  0.00    -0.083 A 
ATOM     66  H50 non d ame      -6.985   7.742  64.231  0.00  0.00     0.083 H 
ATOM     67  C33 non d ame      -7.124  10.190  61.877  0.00  0.00    -0.082 A 
ATOM     68  H51 non d ame      -5.691   8.644  62.296  0.00  0.00     0.083 H 
ATOM     69  C34 non d ame      -8.332  10.783  62.235  0.00  0.00    -0.075 A 
ATOM     70  H52 non d ame      -6.554  10.582  61.034  0.00  0.00     0.083 H 
ATOM     71  H53 non d ame      -8.709  11.638  61.673  0.00  0.00     0.084 H 
ENDBRANCH  58  61
ENDBRANCH  57  58
ENDBRANCH  55  57
ENDBRANCH  52  55
ENDBRANCH  49  52
ENDBRANCH  47  49
BRANCH  47  72
ATOM     72  C24 non d ame      -9.029  16.370  66.915  0.00  0.00    -0.039 C 
ATOM     73  H35 non d ame      -8.594  15.749  67.698  0.00  0.00     0.036 H 
ATOM     74  H36 non d ame      -8.554  16.424  65.935  0.00  0.00     0.036 H 
BRANCH  72  75
ATOM     75  C25 non d ame      -9.106  17.865  67.485  0.00  0.00    -0.001 C 
ATOM     76  C26 non d ame     -10.557  18.537  67.100  0.00  0.00    -0.035 C 
ATOM     77  C27 non d ame     -10.339  19.739  66.514  0.00  0.00     0.085 C 
ATOM     78  H38 non d ame     -11.042  17.956  66.317  0.00  0.00     0.036 H 
ATOM     79  H39 non d ame     -11.104  18.792  68.008  0.00  0.00     0.036 H 
ATOM     80  N5  non d ame      -8.871  19.802  66.168  0.00  0.00    -0.049 N 
ATOM     81  H40 non d ame     -10.921  19.723  65.592  0.00  0.00     0.075 H 
ATOM     82  H41 non d ame     -10.555  20.481  67.282  0.00  0.00     0.075 H 
ATOM     83  C28 non d ame      -8.169  18.603  66.990  0.00  0.00     0.193 C 
ATOM     84  H42 non d ame      -8.801  19.599  65.181  0.00  0.00     0.280 HD
ATOM     85  H43 non d ame      -8.529  20.681  66.528  0.00  0.00     0.280 HD
ATOM     86  H44 non d ame      -7.588  18.814  67.888  0.00  0.00     0.129 H 
ATOM     87  H37 non d ame      -8.792  17.926  68.527  0.00  0.00     0.046 H 
BRANCH  83  88
ATOM     88  O6  non d ame      -7.296  17.864  66.135  0.00  0.00    -0.369 OA
ATOM     89  H45 non d ame      -7.416  18.153  65.228  0.00  0.00     0.212 HD
ENDBRANCH  83  88
ENDBRANCH  72  75
ENDBRANCH  47  72
ENDBRANCH  45  47
ENDBRANCH   1  43
BRANCH   1  90
ATOM     90  C16 non d ame     -11.809  14.863  71.308  0.00  0.00    -0.035 C 
ATOM     91  H21 non d ame     -10.927  14.365  71.711  0.00  0.00     0.037 H 
ATOM     92  H22 non d ame     -11.790  15.936  71.119  0.00  0.00     0.037 H 
BRANCH  90  93
ATOM     93  C17 non d ame     -12.962  14.617  72.333  0.00  0.00    -0.059 C 
ATOM     94  H23 non d ame     -13.082  13.539  72.443  0.00  0.00     0.038 H 
BRANCH  93  95
ATOM     95  C18 non d ame     -12.633  15.206  73.743  0.00  0.00    -0.073 C 
ATOM     96  H24 non d ame     -11.564  15.405  73.812  0.00  0.00     0.028 H 
ATOM     97  H25 non d ame     -13.186  16.134  73.886  0.00  0.00     0.028 H 
ATOM     98  H26 non d ame     -12.921  14.489  74.512  0.00  0.00     0.028 H 
ENDBRANCH  93  95
BRANCH  93  99
ATOM     99  C19 non d ame     -14.289  15.171  71.808  0.00  0.00    -0.073 C 
ATOM    100  H27 non d ame     -14.266  15.195  70.718  0.00  0.00     0.028 H 
ATOM    101  H28 non d ame     -15.107  14.531  72.140  0.00  0.00     0.028 H 
ATOM    102  H29 non d ame     -14.438  16.180  72.191  0.00  0.00     0.028 H 
ENDBRANCH  93  99
ENDBRANCH  90  93
ENDBRANCH   1  90
TORSDOF 26
ENDMDL
MODEL 5
REMARK VINA RESULT:      -7.2      2.293      3.857
REMARK  26 active torsions:
REMARK  status: ('A' for Active; 'I' for Inactive)
REMARK    1  A    between atoms: C2_2  and  C3_3 
REMARK    2  A    between atoms: C4_6  and  C5_7 
REMARK       I    between atoms: C5_7  and  N2_9 
REMARK    3  A    between atoms: N2_9  and  C6_10 
REMARK    4  A    between atoms: C6_10  and  C7_11 
REMARK    5  A    between atoms: C6_10  and  C8_13 
REMARK       I    between atoms: C7_11  and  N3_14 
REMARK    6  A    between atoms: N3_14  and  C9_15 
REMARK    7  A    between atoms: C9_15  and  C10_16 
REMARK    8  A    between atoms: C9_15  and  C11_18 
REMARK       I    between atoms: C10_16  and  N4_21 
REMARK    9  A    between atoms: C11_18  and  C12_19 
REMARK   10  A    between atoms: C11_18  and  C13_20 
REMARK   11  A    between atoms: N4_21  and  C14_22 
REMARK   12  A    between atoms: C14_22  and  C15_23 
REMARK   13  A    between atoms: C14_22  and  C16_25 
REMARK       I    between atoms: C15_23  and  N6_40 
REMARK   14  A    between atoms: C16_25  and  C17_26 
REMARK   15  A    between atoms: C17_26  and  C18_27 
REMARK   16  A    between atoms: C17_26  and  C19_28 
REMARK   17  A    between atoms: C20_29  and  C21_30 
REMARK   18  A    between atoms: C20_29  and  C24_33 
REMARK   19  A    between atoms: C20_29  and  N6_40 
REMARK   20  A    between atoms: C21_30  and  C22_31 
REMARK   21  A    between atoms: C22_31  and  C23_32 
REMARK   22  A    between atoms: C23_32  and  O8_43 
REMARK   23  A    between atoms: C24_33  and  C25_34 
REMARK   24  A    between atoms: C28_38  and  O6_39 
REMARK   25  A    between atoms: C29_42  and  O8_43 
REMARK   26  A    between atoms: C29_42  and  C35_49 
ROOT
ATOM      1  C14 non d ame     -12.095  13.671  69.379  0.00  0.00     0.089 C 
ATOM      2  H20 non d ame     -12.979  13.386  68.808  0.00  0.00     0.087 H 
ENDROOT
BRANCH   1   3
ATOM      3  N4  non d ame     -11.611  12.479  70.061  0.00  0.00    -0.346 N 
ATOM      4  C10 non d ame     -11.716  11.128  69.400  0.00  0.00     0.241 C 
ATOM      5  O4  non d ame     -12.197  11.024  68.320  0.00  0.00    -0.271 OA
ATOM      6  H19 non d ame     -11.207  12.589  70.980  0.00  0.00     0.163 HD
BRANCH   4   7
ATOM      7  C9  non d ame     -11.205   9.906  70.117  0.00  0.00     0.092 C 
ATOM      8  H11 non d ame     -11.342   9.033  69.480  0.00  0.00     0.088 H 
BRANCH   7   9
ATOM      9  N3  non d ame      -9.766  10.046  70.357  0.00  0.00    -0.346 N 
ATOM     10  C7  non d ame      -8.823   9.409  69.471  0.00  0.00     0.240 C 
ATOM     11  O3  non d ame      -9.205   8.779  68.562  0.00  0.00    -0.271 OA
ATOM     12  H10 non d ame      -9.421  10.586  71.138  0.00  0.00     0.163 HD
BRANCH  10  13
ATOM     13  C6  non d ame      -7.292   9.559  69.733  0.00  0.00     0.086 C 
ATOM     14  H6  non d ame      -6.687   9.286  68.869  0.00  0.00     0.086 H 
BRANCH  13  15
ATOM     15  N2  non d ame      -6.998  10.952  70.024  0.00  0.00    -0.343 N 
ATOM     16  C5  non d ame      -5.745  11.540  69.543  0.00  0.00     0.273 C 
ATOM     17  O2  non d ame      -4.980  10.883  68.927  0.00  0.00    -0.266 OA
ATOM     18  H5  non d ame      -7.656  11.506  70.553  0.00  0.00     0.163 HD
BRANCH  16  19
ATOM     19  C4  non d ame      -5.422  13.013  69.841  0.00  0.00     0.154 A 
ATOM     20  C1  non d ame      -6.194  14.160  69.473  0.00  0.00    -0.017 A 
ATOM     21  C2  non d ame      -5.471  15.263  69.979  0.00  0.00     0.077 A 
ATOM     22  H1  non d ame      -7.135  14.187  68.923  0.00  0.00     0.091 H 
ATOM     23  O1  non d ame      -4.411  14.794  70.568  0.00  0.00    -0.218 OA
ATOM     24  N1  non d ame      -4.360  13.483  70.501  0.00  0.00    -0.123 NA
BRANCH  21  25
ATOM     25  C3  non d ame      -5.863  16.730  69.857  0.00  0.00    -0.029 C 
ATOM     26  H2  non d ame      -4.990  17.316  69.569  0.00  0.00     0.036 H 
ATOM     27  H3  non d ame      -6.639  16.837  69.099  0.00  0.00     0.036 H 
ATOM     28  H4  non d ame      -6.240  17.086  70.816  0.00  0.00     0.036 H 
ENDBRANCH  21  25
ENDBRANCH  16  19
ENDBRANCH  13  15
BRANCH  13  29
ATOM     29  C8  non d ame      -6.892   8.693  70.900  0.00  0.00    -0.049 C 
ATOM     30  H7  non d ame      -5.966   8.169  70.664  0.00  0.00     0.030 H 
ATOM     31  H8  non d ame      -6.741   9.317  71.781  0.00  0.00     0.030 H 
ATOM     32  H9  non d ame      -7.679   7.966  71.099  0.00  0.00     0.030 H 
ENDBRANCH  13  29
ENDBRANCH  10  13
ENDBRANCH   7   9
BRANCH   7  33
ATOM     33  C11 non d ame     -11.943   9.759  71.480  0.00  0.00    -0.033 C 
ATOM     34  H12 non d ame     -11.703  10.636  72.081  0.00  0.00     0.042 H 
BRANCH  33  35
ATOM     35  C12 non d ame     -13.492   9.731  71.288  0.00  0.00    -0.071 C 
ATOM     36  H13 non d ame     -13.802   8.732  70.980  0.00  0.00     0.028 H 
ATOM     37  H14 non d ame     -13.979   9.989  72.228  0.00  0.00     0.028 H 
ATOM     38  H15 non d ame     -13.775  10.452  70.521  0.00  0.00     0.028 H 
ENDBRANCH  33  35
BRANCH  33  39
ATOM     39  C13 non d ame     -11.446   8.494  72.251  0.00  0.00    -0.071 C 
ATOM     40  H16 non d ame     -12.226   7.734  72.244  0.00  0.00     0.028 H 
ATOM     41  H17 non d ame     -10.552   8.101  71.767  0.00  0.00     0.028 H 
ATOM     42  H18 non d ame     -11.212   8.766  73.280  0.00  0.00     0.028 H 
ENDBRANCH  33  39
ENDBRANCH   7  33
ENDBRANCH   4   7
ENDBRANCH   1   3
BRANCH   1  43
ATOM     43  C15 non d ame     -10.958  14.217  68.469  0.00  0.00     0.240 C 
ATOM     44  O5  non d ame      -9.823  14.080  68.794  0.00  0.00    -0.271 OA
ATOM     45  N6  non d ame     -11.284  14.903  67.186  0.00  0.00    -0.355 N 
ATOM     46  H46 non d ame     -12.244  15.021  66.897  0.00  0.00     0.162 HD
BRANCH  45  47
ATOM     47  C20 non d ame     -10.192  15.415  66.330  0.00  0.00     0.013 C 
ATOM     48  H30 non d ame      -9.247  15.210  66.834  0.00  0.00     0.072 H 
BRANCH  47  49
ATOM     49  C21 non d ame     -10.363  16.905  66.140  0.00  0.00    -0.038 C 
ATOM     50  H31 non d ame      -9.414  17.262  65.740  0.00  0.00     0.036 H 
ATOM     51  H32 non d ame     -11.278  17.024  65.560  0.00  0.00     0.036 H 
BRANCH  49  52
ATOM     52  C22 non d ame     -10.587  17.657  67.470  0.00  0.00     0.018 C 
ATOM     53  H33 non d ame     -11.646  17.538  67.702  0.00  0.00     0.048 H 
ATOM     54  H34 non d ame      -9.832  17.274  68.157  0.00  0.00     0.048 H 
BRANCH  52  55
ATOM     55  C23 non d ame     -10.340  19.188  67.372  0.00  0.00     0.259 C 
ATOM     56  O7  non d ame     -10.836  19.825  66.500  0.00  0.00    -0.265 OA
BRANCH  55  57
ATOM     57  O8  non d ame      -9.503  19.821  68.332  0.00  0.00    -0.317 OA
BRANCH  57  58
ATOM     58  C29 non d ame      -8.268  19.139  68.567  0.00  0.00     0.052 C 
ATOM     59  H47 non d ame      -7.814  19.638  69.424  0.00  0.00     0.082 H 
ATOM     60  H48 non d ame      -8.522  18.081  68.625  0.00  0.00     0.082 H 
BRANCH  58  61
ATOM     61  C35 non d ame      -7.356  19.359  67.331  0.00  0.00    -0.034 A 
ATOM     62  C30 non d ame      -6.928  20.640  66.999  0.00  0.00    -0.075 A 
ATOM     63  C31 non d ame      -6.110  20.838  65.888  0.00  0.00    -0.082 A 
ATOM     64  H49 non d ame      -7.234  21.490  67.610  0.00  0.00     0.084 H 
ATOM     65  C32 non d ame      -5.721  19.747  65.106  0.00  0.00    -0.083 A 
ATOM     66  H50 non d ame      -5.774  21.843  65.633  0.00  0.00     0.083 H 
ATOM     67  C33 non d ame      -6.153  18.471  65.438  0.00  0.00    -0.082 A 
ATOM     68  H51 non d ame      -5.081  19.893  64.236  0.00  0.00     0.083 H 
ATOM     69  C34 non d ame      -6.970  18.269  66.549  0.00  0.00    -0.075 A 
ATOM     70  H52 non d ame      -5.850  17.622  64.824  0.00  0.00     0.083 H 
ATOM     71  H53 non d ame      -7.304  17.263  66.804  0.00  0.00     0.084 H 
ENDBRANCH  58  61
ENDBRANCH  57  58
ENDBRANCH  55  57
ENDBRANCH  52  55
ENDBRANCH  49  52
ENDBRANCH  47  49
BRANCH  47  72
ATOM     72  C24 non d ame     -10.230  14.719  64.971  0.00  0.00    -0.039 C 
ATOM     73  H35 non d ame     -10.735  15.417  64.303  0.00  0.00     0.036 H 
ATOM     74  H36 non d ame      -9.202  14.419  64.770  0.00  0.00     0.036 H 
BRANCH  72  75
ATOM     75  C25 non d ame     -11.113  13.383  65.015  0.00  0.00    -0.001 C 
ATOM     76  C26 non d ame     -10.195  12.091  64.576  0.00  0.00    -0.035 C 
ATOM     77  C27 non d ame     -10.842  11.406  63.604  0.00  0.00     0.085 C 
ATOM     78  H38 non d ame      -9.283  12.430  64.086  0.00  0.00     0.036 H 
ATOM     79  H39 non d ame     -10.139  11.376  65.398  0.00  0.00     0.036 H 
ATOM     80  N5  non d ame     -11.961  12.291  63.110  0.00  0.00    -0.049 N 
ATOM     81  H40 non d ame     -10.112  11.275  62.804  0.00  0.00     0.075 H 
ATOM     82  H41 non d ame     -11.271  10.534  64.098  0.00  0.00     0.075 H 
ATOM     83  C28 non d ame     -12.120  13.462  64.210  0.00  0.00     0.193 C 
ATOM     84  H42 non d ame     -11.639  12.703  62.245  0.00  0.00     0.280 HD
ATOM     85  H43 non d ame     -12.798  11.726  63.119  0.00  0.00     0.280 HD
ATOM     86  H44 non d ame     -12.945  13.444  64.922  0.00  0.00     0.129 H 
ATOM     87  H37 non d ame     -11.684  13.295  65.939  0.00  0.00     0.046 H 
BRANCH  83  88
ATOM     88  O6  non d ame     -12.197  14.735  63.566  0.00  0.00    -0.369 OA
ATOM     89  H45 non d ame     -11.575  15.339  63.977  0.00  0.00     0.212 HD
ENDBRANCH  83  88
ENDBRANCH  72  75
ENDBRANCH  47  72
ENDBRANCH  45  47
ENDBRANCH   1  43
BRANCH   1  90
ATOM     90  C16 non d ame     -12.467  14.719  70.416  0.00  0.00    -0.035 C 
ATOM     91  H21 non d ame     -11.650  15.440  70.403  0.00  0.00     0.037 H 
ATOM     92  H22 non d ame     -13.477  15.035  70.157  0.00  0.00     0.037 H 
BRANCH  90  93
ATOM     93  C17 non d ame     -12.540  14.160  71.873  0.00  0.00    -0.059 C 
ATOM     94  H23 non d ame     -11.924  13.262  71.914  0.00  0.00     0.038 H 
BRANCH  93  95
ATOM     95  C18 non d ame     -11.976  15.173  72.921  0.00  0.00    -0.073 C 
ATOM     96  H24 non d ame     -11.068  14.766  73.366  0.00  0.00     0.028 H 
ATOM     97  H25 non d ame     -11.747  16.117  72.427  0.00  0.00     0.028 H 
ATOM     98  H26 non d ame     -12.719  15.341  73.700  0.00  0.00     0.028 H 
ENDBRANCH  93  95
BRANCH  93  99
ATOM     99  C19 non d ame     -13.970  13.748  72.229  0.00  0.00    -0.073 C 
ATOM    100  H27 non d ame     -14.662  14.534  71.924  0.00  0.00     0.028 H 
ATOM    101  H28 non d ame     -14.221  12.822  71.711  0.00  0.00     0.028 H 
ATOM    102  H29 non d ame     -14.047  13.594  73.305  0.00  0.00     0.028 H 
ENDBRANCH  93  99
ENDBRANCH  90  93
ENDBRANCH   1  90
TORSDOF 26
ENDMDL
MODEL 6
REMARK VINA RESULT:      -7.1      2.424      7.002
REMARK  26 active torsions:
REMARK  status: ('A' for Active; 'I' for Inactive)
REMARK    1  A    between atoms: C2_2  and  C3_3 
REMARK    2  A    between atoms: C4_6  and  C5_7 
REMARK       I    between atoms: C5_7  and  N2_9 
REMARK    3  A    between atoms: N2_9  and  C6_10 
REMARK    4  A    between atoms: C6_10  and  C7_11 
REMARK    5  A    between atoms: C6_10  and  C8_13 
REMARK       I    between atoms: C7_11  and  N3_14 
REMARK    6  A    between atoms: N3_14  and  C9_15 
REMARK    7  A    between atoms: C9_15  and  C10_16 
REMARK    8  A    between atoms: C9_15  and  C11_18 
REMARK       I    between atoms: C10_16  and  N4_21 
REMARK    9  A    between atoms: C11_18  and  C12_19 
REMARK   10  A    between atoms: C11_18  and  C13_20 
REMARK   11  A    between atoms: N4_21  and  C14_22 
REMARK   12  A    between atoms: C14_22  and  C15_23 
REMARK   13  A    between atoms: C14_22  and  C16_25 
REMARK       I    between atoms: C15_23  and  N6_40 
REMARK   14  A    between atoms: C16_25  and  C17_26 
REMARK   15  A    between atoms: C17_26  and  C18_27 
REMARK   16  A    between atoms: C17_26  and  C19_28 
REMARK   17  A    between atoms: C20_29  and  C21_30 
REMARK   18  A    between atoms: C20_29  and  C24_33 
REMARK   19  A    between atoms: C20_29  and  N6_40 
REMARK   20  A    between atoms: C21_30  and  C22_31 
REMARK   21  A    between atoms: C22_31  and  C23_32 
REMARK   22  A    between atoms: C23_32  and  O8_43 
REMARK   23  A    between atoms: C24_33  and  C25_34 
REMARK   24  A    between atoms: C28_38  and  O6_39 
REMARK   25  A    between atoms: C29_42  and  O8_43 
REMARK   26  A    between atoms: C29_42  and  C35_49 
ROOT
ATOM      1  C14 non d ame      -8.585   9.293  64.445  0.00  0.00     0.089 C 
ATOM      2  H20 non d ame      -7.550   9.522  64.699  0.00  0.00     0.087 H 
ENDROOT
BRANCH   1   3
ATOM      3  N4  non d ame      -8.993   8.153  65.252  0.00  0.00    -0.346 N 
ATOM      4  C10 non d ame      -8.032   7.533  66.236  0.00  0.00     0.241 C 
ATOM      5  O4  non d ame      -6.934   7.969  66.358  0.00  0.00    -0.271 OA
ATOM      6  H19 non d ame      -9.930   7.796  65.132  0.00  0.00     0.163 HD
BRANCH   4   7
ATOM      7  C9  non d ame      -8.472   6.357  67.067  0.00  0.00     0.092 C 
ATOM      8  H11 non d ame      -7.706   5.584  67.028  0.00  0.00     0.088 H 
BRANCH   7   9
ATOM      9  N3  non d ame      -8.601   6.770  68.468  0.00  0.00    -0.346 N 
ATOM     10  C7  non d ame      -7.870   6.069  69.495  0.00  0.00     0.240 C 
ATOM     11  O3  non d ame      -7.175   5.171  69.213  0.00  0.00    -0.271 OA
ATOM     12  H10 non d ame      -9.198   7.542  68.728  0.00  0.00     0.163 HD
BRANCH  10  13
ATOM     13  C6  non d ame      -8.014   6.511  70.985  0.00  0.00     0.086 C 
ATOM     14  H6  non d ame      -7.465   7.426  71.208  0.00  0.00     0.086 H 
BRANCH  13  15
ATOM     15  N2  non d ame      -9.414   6.787  71.262  0.00  0.00    -0.343 N 
ATOM     16  C5  non d ame      -9.918   8.156  71.134  0.00  0.00     0.273 C 
ATOM     17  O2  non d ame      -9.189   9.028  70.811  0.00  0.00    -0.266 OA
ATOM     18  H5  non d ame     -10.029   6.036  71.541  0.00  0.00     0.163 HD
BRANCH  16  19
ATOM     19  C4  non d ame     -11.396   8.462  71.423  0.00  0.00     0.154 A 
ATOM     20  C1  non d ame     -12.481   7.529  71.460  0.00  0.00    -0.017 A 
ATOM     21  C2  non d ame     -13.619   8.308  71.764  0.00  0.00     0.077 A 
ATOM     22  H1  non d ame     -12.447   6.452  71.292  0.00  0.00     0.091 H 
ATOM     23  O1  non d ame     -13.224   9.541  71.887  0.00  0.00    -0.218 OA
ATOM     24  N1  non d ame     -11.930   9.656  71.691  0.00  0.00    -0.123 NA
BRANCH  21  25
ATOM     25  C3  non d ame     -15.045   7.797  71.921  0.00  0.00    -0.029 C 
ATOM     26  H2  non d ame     -15.026   6.764  72.271  0.00  0.00     0.036 H 
ATOM     27  H3  non d ame     -15.575   8.416  72.645  0.00  0.00     0.036 H 
ATOM     28  H4  non d ame     -15.557   7.845  70.959  0.00  0.00     0.036 H 
ENDBRANCH  21  25
ENDBRANCH  16  19
ENDBRANCH  13  15
BRANCH  13  29
ATOM     29  C8  non d ame      -7.515   5.411  71.888  0.00  0.00    -0.049 C 
ATOM     30  H7  non d ame      -6.425   5.414  71.897  0.00  0.00     0.030 H 
ATOM     31  H8  non d ame      -7.887   5.576  72.900  0.00  0.00     0.030 H 
ATOM     32  H9  non d ame      -7.873   4.450  71.521  0.00  0.00     0.030 H 
ENDBRANCH  13  29
ENDBRANCH  10  13
ENDBRANCH   7   9
BRANCH   7  33
ATOM     33  C11 non d ame      -9.849   5.844  66.552  0.00  0.00    -0.033 C 
ATOM     34  H12 non d ame     -10.047   6.336  65.600  0.00  0.00     0.042 H 
BRANCH  33  35
ATOM     35  C12 non d ame      -9.820   4.306  66.289  0.00  0.00    -0.071 C 
ATOM     36  H13 non d ame     -10.090   3.776  67.202  0.00  0.00     0.028 H 
ATOM     37  H14 non d ame     -10.532   4.059  65.502  0.00  0.00     0.028 H 
ATOM     38  H15 non d ame      -8.818   4.010  65.979  0.00  0.00     0.028 H 
ENDBRANCH  33  35
BRANCH  33  39
ATOM     39  C13 non d ame     -10.995   6.228  67.542  0.00  0.00    -0.071 C 
ATOM     40  H16 non d ame     -11.259   5.361  68.146  0.00  0.00     0.028 H 
ATOM     41  H17 non d ame     -10.658   7.035  68.193  0.00  0.00     0.028 H 
ATOM     42  H18 non d ame     -11.867   6.557  66.977  0.00  0.00     0.028 H 
ENDBRANCH  33  39
ENDBRANCH   7  33
ENDBRANCH   4   7
ENDBRANCH   1   3
BRANCH   1  43
ATOM     43  C15 non d ame      -9.541  10.482  64.749  0.00  0.00     0.240 C 
ATOM     44  O5  non d ame     -10.503  10.655  64.073  0.00  0.00    -0.271 OA
ATOM     45  N6  non d ame      -9.262  11.401  65.889  0.00  0.00    -0.355 N 
ATOM     46  H46 non d ame      -8.450  11.261  66.474  0.00  0.00     0.162 HD
BRANCH  45  47
ATOM     47  C20 non d ame     -10.181  12.526  66.166  0.00  0.00     0.013 C 
ATOM     48  H30 non d ame     -11.185  12.217  65.877  0.00  0.00     0.072 H 
BRANCH  47  49
ATOM     49  C21 non d ame      -9.756  13.729  65.355  0.00  0.00    -0.038 C 
ATOM     50  H31 non d ame      -9.320  14.427  66.069  0.00  0.00     0.036 H 
ATOM     51  H32 non d ame      -9.151  13.334  64.538  0.00  0.00     0.036 H 
BRANCH  49  52
ATOM     52  C22 non d ame     -10.948  14.461  64.701  0.00  0.00     0.018 C 
ATOM     53  H33 non d ame     -10.781  14.397  63.625  0.00  0.00     0.048 H 
ATOM     54  H34 non d ame     -11.843  14.020  65.140  0.00  0.00     0.048 H 
BRANCH  52  55
ATOM     55  C23 non d ame     -11.011  15.978  65.034  0.00  0.00     0.259 C 
ATOM     56  O7  non d ame     -11.323  16.766  64.202  0.00  0.00    -0.265 OA
BRANCH  55  57
ATOM     57  O8  non d ame     -10.678  16.417  66.345  0.00  0.00    -0.317 OA
BRANCH  57  58
ATOM     58  C29 non d ame      -9.808  17.552  66.376  0.00  0.00     0.052 C 
ATOM     59  H47 non d ame      -9.776  17.927  65.353  0.00  0.00     0.082 H 
ATOM     60  H48 non d ame     -10.180  18.188  67.178  0.00  0.00     0.082 H 
BRANCH  58  61
ATOM     61  C35 non d ame      -8.388  17.057  66.761  0.00  0.00    -0.034 A 
ATOM     62  C30 non d ame      -7.269  17.585  66.124  0.00  0.00    -0.075 A 
ATOM     63  C31 non d ame      -5.994  17.140  66.470  0.00  0.00    -0.082 A 
ATOM     64  H49 non d ame      -7.392  18.347  65.355  0.00  0.00     0.084 H 
ATOM     65  C32 non d ame      -5.840  16.161  67.455  0.00  0.00    -0.083 A 
ATOM     66  H50 non d ame      -5.120  17.558  65.971  0.00  0.00     0.083 H 
ATOM     67  C33 non d ame      -6.959  15.635  68.085  0.00  0.00    -0.082 A 
ATOM     68  H51 non d ame      -4.847  15.808  67.732  0.00  0.00     0.083 H 
ATOM     69  C34 non d ame      -8.236  16.078  67.745  0.00  0.00    -0.075 A 
ATOM     70  H52 non d ame      -6.836  14.869  68.852  0.00  0.00     0.083 H 
ATOM     71  H53 non d ame      -9.110  15.660  68.245  0.00  0.00     0.084 H 
ENDBRANCH  58  61
ENDBRANCH  57  58
ENDBRANCH  55  57
ENDBRANCH  52  55
ENDBRANCH  49  52
ENDBRANCH  47  49
BRANCH  47  72
ATOM     72  C24 non d ame     -10.139  12.873  67.653  0.00  0.00    -0.039 C 
ATOM     73  H35 non d ame      -9.576  12.066  68.123  0.00  0.00     0.036 H 
ATOM     74  H36 non d ame      -9.768  13.896  67.701  0.00  0.00     0.036 H 
BRANCH  72  75
ATOM     75  C25 non d ame     -11.603  12.869  68.303  0.00  0.00    -0.001 C 
ATOM     76  C26 non d ame     -11.942  14.353  68.927  0.00  0.00    -0.035 C 
ATOM     77  C27 non d ame     -12.361  14.203  70.206  0.00  0.00     0.085 C 
ATOM     78  H38 non d ame     -11.027  14.935  69.024  0.00  0.00     0.036 H 
ATOM     79  H39 non d ame     -12.810  14.780  68.423  0.00  0.00     0.036 H 
ATOM     80  N5  non d ame     -12.027  12.790  70.618  0.00  0.00    -0.049 N 
ATOM     81  H40 non d ame     -11.757  14.896  70.793  0.00  0.00     0.075 H 
ATOM     82  H41 non d ame     -13.444  14.317  70.174  0.00  0.00     0.075 H 
ATOM     83  C28 non d ame     -11.691  11.997  69.252  0.00  0.00     0.193 C 
ATOM     84  H42 non d ame     -11.185  12.845  71.173  0.00  0.00     0.280 HD
ATOM     85  H43 non d ame     -12.869  12.401  71.016  0.00  0.00     0.280 HD
ATOM     86  H44 non d ame     -12.416  11.307  68.819  0.00  0.00     0.129 H 
ATOM     87  H37 non d ame     -12.348  12.427  67.642  0.00  0.00     0.046 H 
BRANCH  83  88
ATOM     88  O6  non d ame     -10.488  11.242  69.403  0.00  0.00    -0.369 OA
ATOM     89  H45 non d ame     -10.196  10.930  68.543  0.00  0.00     0.212 HD
ENDBRANCH  83  88
ENDBRANCH  72  75
ENDBRANCH  47  72
ENDBRANCH  45  47
ENDBRANCH   1  43
BRANCH   1  90
ATOM     90  C16 non d ame      -8.685   8.920  62.974  0.00  0.00    -0.035 C 
ATOM     91  H21 non d ame      -8.616   7.832  62.947  0.00  0.00     0.037 H 
ATOM     92  H22 non d ame      -9.584   9.418  62.610  0.00  0.00     0.037 H 
BRANCH  90  93
ATOM     93  C17 non d ame      -7.501   9.459  62.110  0.00  0.00    -0.059 C 
ATOM     94  H23 non d ame      -7.289   8.718  61.340  0.00  0.00     0.038 H 
BRANCH  93  95
ATOM     95  C18 non d ame      -7.857  10.802  61.394  0.00  0.00    -0.073 C 
ATOM     96  H24 non d ame      -6.978  11.446  61.373  0.00  0.00     0.028 H 
ATOM     97  H25 non d ame      -8.180  10.594  60.374  0.00  0.00     0.028 H 
ATOM     98  H26 non d ame      -8.661  11.300  61.936  0.00  0.00     0.028 H 
ENDBRANCH  93  95
BRANCH  93  99
ATOM     99  C19 non d ame      -6.233   9.612  62.954  0.00  0.00    -0.073 C 
ATOM    100  H27 non d ame      -5.965  10.667  63.021  0.00  0.00     0.028 H 
ATOM    101  H28 non d ame      -6.414   9.219  63.955  0.00  0.00     0.028 H 
ATOM    102  H29 non d ame      -5.418   9.058  62.489  0.00  0.00     0.028 H 
ENDBRANCH  93  99
ENDBRANCH  90  93
ENDBRANCH   1  90
TORSDOF 26
ENDMDL
MODEL 7
REMARK VINA RESULT:      -7.1      2.415      5.916
REMARK  26 active torsions:
REMARK  status: ('A' for Active; 'I' for Inactive)
REMARK    1  A    between atoms: C2_2  and  C3_3 
REMARK    2  A    between atoms: C4_6  and  C5_7 
REMARK       I    between atoms: C5_7  and  N2_9 
REMARK    3  A    between atoms: N2_9  and  C6_10 
REMARK    4  A    between atoms: C6_10  and  C7_11 
REMARK    5  A    between atoms: C6_10  and  C8_13 
REMARK       I    between atoms: C7_11  and  N3_14 
REMARK    6  A    between atoms: N3_14  and  C9_15 
REMARK    7  A    between atoms: C9_15  and  C10_16 
REMARK    8  A    between atoms: C9_15  and  C11_18 
REMARK       I    between atoms: C10_16  and  N4_21 
REMARK    9  A    between atoms: C11_18  and  C12_19 
REMARK   10  A    between atoms: C11_18  and  C13_20 
REMARK   11  A    between atoms: N4_21  and  C14_22 
REMARK   12  A    between atoms: C14_22  and  C15_23 
REMARK   13  A    between atoms: C14_22  and  C16_25 
REMARK       I    between atoms: C15_23  and  N6_40 
REMARK   14  A    between atoms: C16_25  and  C17_26 
REMARK   15  A    between atoms: C17_26  and  C18_27 
REMARK   16  A    between atoms: C17_26  and  C19_28 
REMARK   17  A    between atoms: C20_29  and  C21_30 
REMARK   18  A    between atoms: C20_29  and  C24_33 
REMARK   19  A    between atoms: C20_29  and  N6_40 
REMARK   20  A    between atoms: C21_30  and  C22_31 
REMARK   21  A    between atoms: C22_31  and  C23_32 
REMARK   22  A    between atoms: C23_32  and  O8_43 
REMARK   23  A    between atoms: C24_33  and  C25_34 
REMARK   24  A    between atoms: C28_38  and  O6_39 
REMARK   25  A    between atoms: C29_42  and  O8_43 
REMARK   26  A    between atoms: C29_42  and  C35_49 
ROOT
ATOM      1  C14 non d ame     -12.126  14.061  70.301  0.00  0.00     0.089 C 
ATOM      2  H20 non d ame     -13.188  14.162  70.076  0.00  0.00     0.087 H 
ENDROOT
BRANCH   1   3
ATOM      3  N4  non d ame     -11.780  12.654  70.163  0.00  0.00    -0.346 N 
ATOM      4  C10 non d ame     -12.496  11.609  70.982  0.00  0.00     0.241 C 
ATOM      5  O4  non d ame     -13.344  11.926  71.749  0.00  0.00    -0.271 OA
ATOM      6  H19 non d ame     -11.054  12.405  69.506  0.00  0.00     0.163 HD
BRANCH   4   7
ATOM      7  C9  non d ame     -12.129  10.157  70.822  0.00  0.00     0.092 C 
ATOM      8  H11 non d ame     -12.495   9.799  69.859  0.00  0.00     0.088 H 
BRANCH   7   9
ATOM      9  N3  non d ame     -10.670  10.020  70.809  0.00  0.00    -0.346 N 
ATOM     10  C7  non d ame      -9.990   9.676  69.584  0.00  0.00     0.240 C 
ATOM     11  O3  non d ame     -10.601   9.506  68.601  0.00  0.00    -0.271 OA
ATOM     12  H10 non d ame     -10.129  10.162  71.650  0.00  0.00     0.163 HD
BRANCH  10  13
ATOM     13  C6  non d ame      -8.436   9.528  69.577  0.00  0.00     0.086 C 
ATOM     14  H6  non d ame      -8.068   8.994  68.702  0.00  0.00     0.086 H 
BRANCH  13  15
ATOM     15  N2  non d ame      -7.837  10.852  69.539  0.00  0.00    -0.343 N 
ATOM     16  C5  non d ame      -7.367  11.394  68.262  0.00  0.00     0.273 C 
ATOM     17  O2  non d ame      -7.474  10.757  67.272  0.00  0.00    -0.266 OA
ATOM     18  H5  non d ame      -7.747  11.389  70.390  0.00  0.00     0.163 HD
BRANCH  16  19
ATOM     19  C4  non d ame      -6.733  12.793  68.206  0.00  0.00     0.154 A 
ATOM     20  C1  non d ame      -6.779  13.804  69.218  0.00  0.00    -0.017 A 
ATOM     21  C2  non d ame      -6.050  14.889  68.681  0.00  0.00     0.077 A 
ATOM     22  H1  non d ame      -7.266  13.758  70.192  0.00  0.00     0.091 H 
ATOM     23  O1  non d ame      -5.637  14.531  67.501  0.00  0.00    -0.218 OA
ATOM     24  N1  non d ame      -6.023  13.313  67.201  0.00  0.00    -0.123 NA
BRANCH  21  25
ATOM     25  C3  non d ame      -5.794  16.227  69.361  0.00  0.00    -0.029 C 
ATOM     26  H2  non d ame      -5.141  16.835  68.733  0.00  0.00     0.036 H 
ATOM     27  H3  non d ame      -6.741  16.746  69.510  0.00  0.00     0.036 H 
ATOM     28  H4  non d ame      -5.316  16.060  70.327  0.00  0.00     0.036 H 
ENDBRANCH  21  25
ENDBRANCH  16  19
ENDBRANCH  13  15
BRANCH  13  29
ATOM     29  C8  non d ame      -7.993   8.796  70.818  0.00  0.00    -0.049 C 
ATOM     30  H7  non d ame      -8.796   8.811  71.555  0.00  0.00     0.030 H 
ATOM     31  H8  non d ame      -7.751   7.764  70.564  0.00  0.00     0.030 H 
ATOM     32  H9  non d ame      -7.112   9.285  71.232  0.00  0.00     0.030 H 
ENDBRANCH  13  29
ENDBRANCH  10  13
ENDBRANCH   7   9
BRANCH   7  33
ATOM     33  C11 non d ame     -12.714   9.341  72.011  0.00  0.00    -0.033 C 
ATOM     34  H12 non d ame     -12.912  10.040  72.824  0.00  0.00     0.042 H 
BRANCH  33  35
ATOM     35  C12 non d ame     -14.070   8.670  71.628  0.00  0.00    -0.071 C 
ATOM     36  H13 non d ame     -13.928   7.593  71.534  0.00  0.00     0.028 H 
ATOM     37  H14 non d ame     -14.807   8.872  72.405  0.00  0.00     0.028 H 
ATOM     38  H15 non d ame     -14.420   9.075  70.680  0.00  0.00     0.028 H 
ENDBRANCH  33  35
BRANCH  33  39
ATOM     39  C13 non d ame     -11.684   8.284  72.524  0.00  0.00    -0.071 C 
ATOM     40  H16 non d ame     -12.179   7.320  72.641  0.00  0.00     0.028 H 
ATOM     41  H17 non d ame     -10.871   8.189  71.803  0.00  0.00     0.028 H 
ATOM     42  H18 non d ame     -11.281   8.605  73.484  0.00  0.00     0.028 H 
ENDBRANCH  33  39
ENDBRANCH   7  33
ENDBRANCH   4   7
ENDBRANCH   1   3
BRANCH   1  43
ATOM     43  C15 non d ame     -11.238  14.887  69.327  0.00  0.00     0.240 C 
ATOM     44  O5  non d ame     -10.180  15.291  69.690  0.00  0.00    -0.271 OA
ATOM     45  N6  non d ame     -11.702  15.167  67.939  0.00  0.00    -0.355 N 
ATOM     46  H46 non d ame     -12.596  14.826  67.617  0.00  0.00     0.162 HD
BRANCH  45  47
ATOM     47  C20 non d ame     -10.845  15.953  67.024  0.00  0.00     0.013 C 
ATOM     48  H30 non d ame     -11.440  16.216  66.150  0.00  0.00     0.072 H 
BRANCH  47  49
ATOM     49  C21 non d ame      -9.657  15.115  66.609  0.00  0.00    -0.038 C 
ATOM     50  H31 non d ame      -8.920  15.820  66.223  0.00  0.00     0.036 H 
ATOM     51  H32 non d ame      -9.419  14.494  67.473  0.00  0.00     0.036 H 
BRANCH  49  52
ATOM     52  C22 non d ame      -9.983  14.147  65.451  0.00  0.00     0.018 C 
ATOM     53  H33 non d ame     -10.879  14.545  64.975  0.00  0.00     0.048 H 
ATOM     54  H34 non d ame      -9.060  14.050  64.879  0.00  0.00     0.048 H 
BRANCH  52  55
ATOM     55  C23 non d ame     -10.349  12.711  65.920  0.00  0.00     0.259 C 
ATOM     56  O7  non d ame     -10.362  12.439  67.076  0.00  0.00    -0.265 OA
BRANCH  55  57
ATOM     57  O8  non d ame     -10.657  11.719  64.948  0.00  0.00    -0.317 OA
BRANCH  57  58
ATOM     58  C29 non d ame     -10.216  12.041  63.626  0.00  0.00     0.052 C 
ATOM     59  H47 non d ame     -11.112  12.026  63.005  0.00  0.00     0.082 H 
ATOM     60  H48 non d ame      -9.637  12.959  63.724  0.00  0.00     0.082 H 
BRANCH  58  61
ATOM     61  C35 non d ame      -9.267  10.910  63.148  0.00  0.00    -0.034 A 
ATOM     62  C30 non d ame      -9.139   9.745  63.897  0.00  0.00    -0.075 A 
ATOM     63  C31 non d ame      -8.287   8.729  63.468  0.00  0.00    -0.082 A 
ATOM     64  H49 non d ame      -9.708   9.627  64.820  0.00  0.00     0.084 H 
ATOM     65  C32 non d ame      -7.557   8.883  62.285  0.00  0.00    -0.083 A 
ATOM     66  H50 non d ame      -8.190   7.816  64.055  0.00  0.00     0.083 H 
ATOM     67  C33 non d ame      -7.686  10.049  61.543  0.00  0.00    -0.082 A 
ATOM     68  H51 non d ame      -6.889   8.094  61.942  0.00  0.00     0.083 H 
ATOM     69  C34 non d ame      -8.539  11.066  61.967  0.00  0.00    -0.075 A 
ATOM     70  H52 non d ame      -7.114  10.167  60.622  0.00  0.00     0.083 H 
ATOM     71  H53 non d ame      -8.635  11.979  61.378  0.00  0.00     0.084 H 
ENDBRANCH  58  61
ENDBRANCH  57  58
ENDBRANCH  55  57
ENDBRANCH  52  55
ENDBRANCH  49  52
ENDBRANCH  47  49
BRANCH  47  72
ATOM     72  C24 non d ame     -10.356  17.216  67.732  0.00  0.00    -0.039 C 
ATOM     73  H35 non d ame     -11.258  17.772  67.989  0.00  0.00     0.036 H 
ATOM     74  H36 non d ame      -9.689  16.867  68.519  0.00  0.00     0.036 H 
BRANCH  72  75
ATOM     75  C25 non d ame      -9.491  18.145  66.755  0.00  0.00    -0.001 C 
ATOM     76  C26 non d ame      -7.980  18.349  67.371  0.00  0.00    -0.035 C 
ATOM     77  C27 non d ame      -7.697  19.674  67.402  0.00  0.00     0.085 C 
ATOM     78  H38 non d ame      -7.962  18.061  68.421  0.00  0.00     0.036 H 
ATOM     79  H39 non d ame      -7.237  17.946  66.682  0.00  0.00     0.036 H 
ATOM     80  N5  non d ame      -8.996  20.408  67.171  0.00  0.00    -0.049 N 
ATOM     81  H40 non d ame      -7.350  19.874  68.416  0.00  0.00     0.075 H 
ATOM     82  H41 non d ame      -7.034  19.850  66.555  0.00  0.00     0.075 H 
ATOM     83  C28 non d ame     -10.035  19.307  66.612  0.00  0.00     0.193 C 
ATOM     84  H42 non d ame      -9.313  20.719  68.078  0.00  0.00     0.280 HD
ATOM     85  H43 non d ame      -8.817  21.082  66.440  0.00  0.00     0.280 HD
ATOM     86  H44 non d ame     -10.292  19.276  65.553  0.00  0.00     0.129 H 
ATOM     87  H37 non d ame      -9.564  17.830  65.714  0.00  0.00     0.046 H 
BRANCH  83  88
ATOM     88  O6  non d ame     -11.280  19.408  67.304  0.00  0.00    -0.369 OA
ATOM     89  H45 non d ame     -11.956  18.927  66.821  0.00  0.00     0.212 HD
ENDBRANCH  83  88
ENDBRANCH  72  75
ENDBRANCH  47  72
ENDBRANCH  45  47
ENDBRANCH   1  43
BRANCH   1  90
ATOM     90  C16 non d ame     -11.859  14.498  71.732  0.00  0.00    -0.035 C 
ATOM     91  H21 non d ame     -12.027  13.610  72.342  0.00  0.00     0.037 H 
ATOM     92  H22 non d ame     -10.875  14.967  71.712  0.00  0.00     0.037 H 
BRANCH  90  93
ATOM     93  C17 non d ame     -12.855  15.584  72.251  0.00  0.00    -0.059 C 
ATOM     94  H23 non d ame     -12.602  16.525  71.762  0.00  0.00     0.038 H 
BRANCH  93  95
ATOM     95  C18 non d ame     -14.337  15.244  71.893  0.00  0.00    -0.073 C 
ATOM     96  H24 non d ame     -14.897  16.168  71.748  0.00  0.00     0.028 H 
ATOM     97  H25 non d ame     -14.363  14.655  70.976  0.00  0.00     0.028 H 
ATOM     98  H26 non d ame     -14.784  14.671  72.706  0.00  0.00     0.028 H 
ENDBRANCH  93  95
BRANCH  93  99
ATOM     99  C19 non d ame     -12.694  15.798  73.758  0.00  0.00    -0.073 C 
ATOM    100  H27 non d ame     -13.601  15.476  74.270  0.00  0.00     0.028 H 
ATOM    101  H28 non d ame     -11.845  15.215  74.119  0.00  0.00     0.028 H 
ATOM    102  H29 non d ame     -12.519  16.855  73.959  0.00  0.00     0.028 H 
ENDBRANCH  93  99
ENDBRANCH  90  93
ENDBRANCH   1  90
TORSDOF 26
ENDMDL
MODEL 8
REMARK VINA RESULT:      -7.1      2.908      9.287
REMARK  26 active torsions:
REMARK  status: ('A' for Active; 'I' for Inactive)
REMARK    1  A    between atoms: C2_2  and  C3_3 
REMARK    2  A    between atoms: C4_6  and  C5_7 
REMARK       I    between atoms: C5_7  and  N2_9 
REMARK    3  A    between atoms: N2_9  and  C6_10 
REMARK    4  A    between atoms: C6_10  and  C7_11 
REMARK    5  A    between atoms: C6_10  and  C8_13 
REMARK       I    between atoms: C7_11  and  N3_14 
REMARK    6  A    between atoms: N3_14  and  C9_15 
REMARK    7  A    between atoms: C9_15  and  C10_16 
REMARK    8  A    between atoms: C9_15  and  C11_18 
REMARK       I    between atoms: C10_16  and  N4_21 
REMARK    9  A    between atoms: C11_18  and  C12_19 
REMARK   10  A    between atoms: C11_18  and  C13_20 
REMARK   11  A    between atoms: N4_21  and  C14_22 
REMARK   12  A    between atoms: C14_22  and  C15_23 
REMARK   13  A    between atoms: C14_22  and  C16_25 
REMARK       I    between atoms: C15_23  and  N6_40 
REMARK   14  A    between atoms: C16_25  and  C17_26 
REMARK   15  A    between atoms: C17_26  and  C18_27 
REMARK   16  A    between atoms: C17_26  and  C19_28 
REMARK   17  A    between atoms: C20_29  and  C21_30 
REMARK   18  A    between atoms: C20_29  and  C24_33 
REMARK   19  A    between atoms: C20_29  and  N6_40 
REMARK   20  A    between atoms: C21_30  and  C22_31 
REMARK   21  A    between atoms: C22_31  and  C23_32 
REMARK   22  A    between atoms: C23_32  and  O8_43 
REMARK   23  A    between atoms: C24_33  and  C25_34 
REMARK   24  A    between atoms: C28_38  and  O6_39 
REMARK   25  A    between atoms: C29_42  and  O8_43 
REMARK   26  A    between atoms: C29_42  and  C35_49 
ROOT
ATOM      1  C14 non d ame      -8.963   9.779  69.444  0.00  0.00     0.089 C 
ATOM      2  H20 non d ame      -8.465   9.097  70.134  0.00  0.00     0.087 H 
ENDROOT
BRANCH   1   3
ATOM      3  N4  non d ame      -8.244  11.044  69.482  0.00  0.00    -0.346 N 
ATOM      4  C10 non d ame      -6.744  11.063  69.634  0.00  0.00     0.241 C 
ATOM      5  O4  non d ame      -6.137  10.047  69.726  0.00  0.00    -0.271 OA
ATOM      6  H19 non d ame      -8.780  11.897  69.404  0.00  0.00     0.163 HD
BRANCH   4   7
ATOM      7  C9  non d ame      -6.016  12.381  69.665  0.00  0.00     0.092 C 
ATOM      8  H11 non d ame      -5.315  12.423  68.832  0.00  0.00     0.088 H 
BRANCH   7   9
ATOM      9  N3  non d ame      -6.975  13.474  69.480  0.00  0.00    -0.346 N 
ATOM     10  C7  non d ame      -7.050  14.160  68.214  0.00  0.00     0.240 C 
ATOM     11  O3  non d ame      -6.346  13.846  67.333  0.00  0.00    -0.271 OA
ATOM     12  H10 non d ame      -7.588  13.757  70.231  0.00  0.00     0.163 HD
BRANCH  10  13
ATOM     13  C6  non d ame      -8.071  15.325  68.024  0.00  0.00     0.086 C 
ATOM     14  H6  non d ame      -8.580  15.286  67.061  0.00  0.00     0.086 H 
BRANCH  13  15
ATOM     15  N2  non d ame      -9.101  15.220  69.044  0.00  0.00    -0.343 N 
ATOM     16  C5  non d ame     -10.508  15.142  68.643  0.00  0.00     0.273 C 
ATOM     17  O2  non d ame     -10.800  15.168  67.498  0.00  0.00    -0.266 OA
ATOM     18  H5  non d ame      -8.843  15.201  70.020  0.00  0.00     0.163 HD
BRANCH  16  19
ATOM     19  C4  non d ame     -11.607  15.029  69.710  0.00  0.00     0.154 A 
ATOM     20  C1  non d ame     -12.001  13.853  70.425  0.00  0.00    -0.017 A 
ATOM     21  C2  non d ame     -13.042  14.279  71.280  0.00  0.00     0.077 A 
ATOM     22  H1  non d ame     -11.594  12.846  70.337  0.00  0.00     0.091 H 
ATOM     23  O1  non d ame     -13.216  15.552  71.074  0.00  0.00    -0.218 OA
ATOM     24  N1  non d ame     -12.391  16.012  70.162  0.00  0.00    -0.123 NA
BRANCH  21  25
ATOM     25  C3  non d ame     -13.815  13.409  72.262  0.00  0.00    -0.029 C 
ATOM     26  H2  non d ame     -14.445  12.710  71.711  0.00  0.00     0.036 H 
ATOM     27  H3  non d ame     -13.114  12.853  72.885  0.00  0.00     0.036 H 
ATOM     28  H4  non d ame     -14.440  14.041  72.894  0.00  0.00     0.036 H 
ENDBRANCH  21  25
ENDBRANCH  16  19
ENDBRANCH  13  15
BRANCH  13  29
ATOM     29  C8  non d ame      -7.357  16.647  68.145  0.00  0.00    -0.049 C 
ATOM     30  H7  non d ame      -7.658  17.139  69.070  0.00  0.00     0.030 H 
ATOM     31  H8  non d ame      -6.280  16.479  68.156  0.00  0.00     0.030 H 
ATOM     32  H9  non d ame      -7.618  17.279  67.297  0.00  0.00     0.030 H 
ENDBRANCH  13  29
ENDBRANCH  10  13
ENDBRANCH   7   9
BRANCH   7  33
ATOM     33  C11 non d ame      -5.303  12.547  71.040  0.00  0.00    -0.033 C 
ATOM     34  H12 non d ame      -5.674  11.762  71.699  0.00  0.00     0.042 H 
BRANCH  33  35
ATOM     35  C12 non d ame      -3.760  12.358  70.906  0.00  0.00    -0.071 C 
ATOM     36  H13 non d ame      -3.314  12.297  71.899  0.00  0.00     0.028 H 
ATOM     37  H14 non d ame      -3.553  11.439  70.358  0.00  0.00     0.028 H 
ATOM     38  H15 non d ame      -3.336  13.206  70.369  0.00  0.00     0.028 H 
ENDBRANCH  33  35
BRANCH  33  39
ATOM     39  C13 non d ame      -5.652  13.925  71.687  0.00  0.00    -0.071 C 
ATOM     40  H16 non d ame      -6.353  14.461  71.048  0.00  0.00     0.028 H 
ATOM     41  H17 non d ame      -6.103  13.763  72.667  0.00  0.00     0.028 H 
ATOM     42  H18 non d ame      -4.741  14.513  71.800  0.00  0.00     0.028 H 
ENDBRANCH  33  39
ENDBRANCH   7  33
ENDBRANCH   4   7
ENDBRANCH   1   3
BRANCH   1  43
ATOM     43  C15 non d ame      -8.951   9.246  67.982  0.00  0.00     0.240 C 
ATOM     44  O5  non d ame      -9.048   8.079  67.778  0.00  0.00    -0.271 OA
ATOM     45  N6  non d ame      -8.829  10.192  66.837  0.00  0.00    -0.355 N 
ATOM     46  H46 non d ame      -8.751  11.186  66.998  0.00  0.00     0.162 HD
BRANCH  45  47
ATOM     47  C20 non d ame      -8.820   9.670  65.453  0.00  0.00     0.013 C 
ATOM     48  H30 non d ame      -8.841   8.581  65.505  0.00  0.00     0.072 H 
BRANCH  47  49
ATOM     49  C21 non d ame      -7.562  10.130  64.753  0.00  0.00    -0.038 C 
ATOM     50  H31 non d ame      -7.564  11.218  64.828  0.00  0.00     0.036 H 
ATOM     51  H32 non d ame      -6.750   9.554  65.198  0.00  0.00     0.036 H 
BRANCH  49  52
ATOM     52  C22 non d ame      -7.559   9.797  63.245  0.00  0.00     0.018 C 
ATOM     53  H33 non d ame      -8.408  10.334  62.822  0.00  0.00     0.048 H 
ATOM     54  H34 non d ame      -6.548  10.013  62.897  0.00  0.00     0.048 H 
BRANCH  52  55
ATOM     55  C23 non d ame      -7.806   8.294  62.936  0.00  0.00     0.259 C 
ATOM     56  O7  non d ame      -8.507   7.971  62.033  0.00  0.00    -0.265 OA
BRANCH  55  57
ATOM     57  O8  non d ame      -7.193   7.304  63.753  0.00  0.00    -0.317 OA
BRANCH  57  58
ATOM     58  C29 non d ame      -7.091   6.019  63.134  0.00  0.00     0.052 C 
ATOM     59  H47 non d ame      -7.117   6.206  62.061  0.00  0.00     0.082 H 
ATOM     60  H48 non d ame      -6.220   5.543  63.583  0.00  0.00     0.082 H 
BRANCH  58  61
ATOM     61  C35 non d ame      -8.351   5.200  63.520  0.00  0.00    -0.034 A 
ATOM     62  C30 non d ame      -9.105   4.574  62.533  0.00  0.00    -0.075 A 
ATOM     63  C31 non d ame     -10.238   3.839  62.880  0.00  0.00    -0.082 A 
ATOM     64  H49 non d ame      -8.809   4.660  61.487  0.00  0.00     0.084 H 
ATOM     65  C32 non d ame     -10.616   3.732  64.221  0.00  0.00    -0.083 A 
ATOM     66  H50 non d ame     -10.825   3.348  62.104  0.00  0.00     0.083 H 
ATOM     67  C33 non d ame      -9.863   4.360  65.202  0.00  0.00    -0.082 A 
ATOM     68  H51 non d ame     -11.500   3.158  64.501  0.00  0.00     0.083 H 
ATOM     69  C34 non d ame      -8.729   5.095  64.860  0.00  0.00    -0.075 A 
ATOM     70  H52 non d ame     -10.162   4.277  66.247  0.00  0.00     0.083 H 
ATOM     71  H53 non d ame      -8.142   5.585  65.637  0.00  0.00     0.084 H 
ENDBRANCH  58  61
ENDBRANCH  57  58
ENDBRANCH  55  57
ENDBRANCH  52  55
ENDBRANCH  49  52
ENDBRANCH  47  49
BRANCH  47  72
ATOM     72  C24 non d ame     -10.043  10.188  64.698  0.00  0.00    -0.039 C 
ATOM     73  H35 non d ame      -9.844   9.979  63.647  0.00  0.00     0.036 H 
ATOM     74  H36 non d ame     -10.902   9.734  65.191  0.00  0.00     0.036 H 
BRANCH  72  75
ATOM     75  C25 non d ame     -10.199  11.776  64.843  0.00  0.00    -0.001 C 
ATOM     76  C26 non d ame     -11.508  12.127  65.774  0.00  0.00    -0.035 C 
ATOM     77  C27 non d ame     -12.285  13.021  65.116  0.00  0.00     0.085 C 
ATOM     78  H38 non d ame     -12.149  11.250  65.864  0.00  0.00     0.036 H 
ATOM     79  H39 non d ame     -11.198  12.669  66.667  0.00  0.00     0.036 H 
ATOM     80  N5  non d ame     -11.797  13.062  63.688  0.00  0.00    -0.049 N 
ATOM     81  H40 non d ame     -13.292  12.602  65.135  0.00  0.00     0.075 H 
ATOM     82  H41 non d ame     -12.086  13.982  65.587  0.00  0.00     0.075 H 
ATOM     83  C28 non d ame     -10.354  12.337  63.690  0.00  0.00     0.193 C 
ATOM     84  H42 non d ame     -12.439  12.499  63.149  0.00  0.00     0.280 HD
ATOM     85  H43 non d ame     -11.666  14.037  63.459  0.00  0.00     0.280 HD
ATOM     86  H44 non d ame      -9.439  12.926  63.632  0.00  0.00     0.129 H 
ATOM     87  H37 non d ame      -9.259  12.261  65.106  0.00  0.00     0.046 H 
BRANCH  83  88
ATOM     88  O6  non d ame     -10.274  11.397  62.618  0.00  0.00    -0.369 OA
ATOM     89  H45 non d ame     -10.714  11.756  61.844  0.00  0.00     0.212 HD
ENDBRANCH  83  88
ENDBRANCH  72  75
ENDBRANCH  47  72
ENDBRANCH  45  47
ENDBRANCH   1  43
BRANCH   1  90
ATOM     90  C16 non d ame     -10.397  10.009  69.892  0.00  0.00    -0.035 C 
ATOM     91  H21 non d ame     -10.480  11.084  70.055  0.00  0.00     0.037 H 
ATOM     92  H22 non d ame     -11.017   9.523  69.139  0.00  0.00     0.037 H 
BRANCH  90  93
ATOM     93  C17 non d ame     -10.745   9.330  71.255  0.00  0.00    -0.059 C 
ATOM     94  H23 non d ame     -11.058  10.113  71.945  0.00  0.00     0.038 H 
BRANCH  93  95
ATOM     95  C18 non d ame     -11.924   8.313  71.123  0.00  0.00    -0.073 C 
ATOM     96  H24 non d ame     -12.646   8.489  71.919  0.00  0.00     0.028 H 
ATOM     97  H25 non d ame     -12.409   8.443  70.155  0.00  0.00     0.028 H 
ATOM     98  H26 non d ame     -11.537   7.296  71.201  0.00  0.00     0.028 H 
ENDBRANCH  93  95
BRANCH  93  99
ATOM     99  C19 non d ame      -9.510   8.657  71.861  0.00  0.00    -0.073 C 
ATOM    100  H27 non d ame      -9.245   9.155  72.793  0.00  0.00     0.028 H 
ATOM    101  H28 non d ame      -9.730   7.607  72.059  0.00  0.00     0.028 H 
ATOM    102  H29 non d ame      -8.678   8.727  71.161  0.00  0.00     0.028 H 
ENDBRANCH  93  99
ENDBRANCH  90  93
ENDBRANCH   1  90
TORSDOF 26
ENDMDL
MODEL 9
REMARK VINA RESULT:      -7.0      1.909      5.772
REMARK  26 active torsions:
REMARK  status: ('A' for Active; 'I' for Inactive)
REMARK    1  A    between atoms: C2_2  and  C3_3 
REMARK    2  A    between atoms: C4_6  and  C5_7 
REMARK       I    between atoms: C5_7  and  N2_9 
REMARK    3  A    between atoms: N2_9  and  C6_10 
REMARK    4  A    between atoms: C6_10  and  C7_11 
REMARK    5  A    between atoms: C6_10  and  C8_13 
REMARK       I    between atoms: C7_11  and  N3_14 
REMARK    6  A    between atoms: N3_14  and  C9_15 
REMARK    7  A    between atoms: C9_15  and  C10_16 
REMARK    8  A    between atoms: C9_15  and  C11_18 
REMARK       I    between atoms: C10_16  and  N4_21 
REMARK    9  A    between atoms: C11_18  and  C12_19 
REMARK   10  A    between atoms: C11_18  and  C13_20 
REMARK   11  A    between atoms: N4_21  and  C14_22 
REMARK   12  A    between atoms: C14_22  and  C15_23 
REMARK   13  A    between atoms: C14_22  and  C16_25 
REMARK       I    between atoms: C15_23  and  N6_40 
REMARK   14  A    between atoms: C16_25  and  C17_26 
REMARK   15  A    between atoms: C17_26  and  C18_27 
REMARK   16  A    between atoms: C17_26  and  C19_28 
REMARK   17  A    between atoms: C20_29  and  C21_30 
REMARK   18  A    between atoms: C20_29  and  C24_33 
REMARK   19  A    between atoms: C20_29  and  N6_40 
REMARK   20  A    between atoms: C21_30  and  C22_31 
REMARK   21  A    between atoms: C22_31  and  C23_32 
REMARK   22  A    between atoms: C23_32  and  O8_43 
REMARK   23  A    between atoms: C24_33  and  C25_34 
REMARK   24  A    between atoms: C28_38  and  O6_39 
REMARK   25  A    between atoms: C29_42  and  O8_43 
REMARK   26  A    between atoms: C29_42  and  C35_49 
ROOT
ATOM      1  C14 non d ame     -11.052   9.344  69.789  0.00  0.00     0.089 C 
ATOM      2  H20 non d ame     -11.596   8.478  69.412  0.00  0.00     0.087 H 
ENDROOT
BRANCH   1   3
ATOM      3  N4  non d ame      -9.840   9.480  68.994  0.00  0.00    -0.346 N 
ATOM      4  C10 non d ame      -9.103   8.256  68.513  0.00  0.00     0.241 C 
ATOM      5  O4  non d ame      -9.503   7.171  68.782  0.00  0.00    -0.271 OA
ATOM      6  H19 non d ame      -9.515  10.412  68.779  0.00  0.00     0.163 HD
BRANCH   4   7
ATOM      7  C9  non d ame      -7.854   8.415  67.687  0.00  0.00     0.092 C 
ATOM      8  H11 non d ame      -7.578   7.449  67.266  0.00  0.00     0.088 H 
BRANCH   7   9
ATOM      9  N3  non d ame      -8.123   9.317  66.563  0.00  0.00    -0.346 N 
ATOM     10  C7  non d ame      -8.403   8.776  65.256  0.00  0.00     0.240 C 
ATOM     11  O3  non d ame      -8.415   7.617  65.090  0.00  0.00    -0.271 OA
ATOM     12  H10 non d ame      -8.114  10.319  66.690  0.00  0.00     0.163 HD
BRANCH  10  13
ATOM     13  C6  non d ame      -8.685   9.741  64.063  0.00  0.00     0.086 C 
ATOM     14  H6  non d ame      -9.458   9.367  63.392  0.00  0.00     0.086 H 
BRANCH  13  15
ATOM     15  N2  non d ame      -9.167  11.009  64.586  0.00  0.00    -0.343 N 
ATOM     16  C5  non d ame     -10.402  11.587  64.052  0.00  0.00     0.273 C 
ATOM     17  O2  non d ame     -10.999  11.026  63.200  0.00  0.00    -0.266 OA
ATOM     18  H5  non d ame      -8.649  11.483  65.313  0.00  0.00     0.163 HD
BRANCH  16  19
ATOM     19  C4  non d ame     -10.924  12.926  64.597  0.00  0.00     0.154 A 
ATOM     20  C1  non d ame     -10.200  14.155  64.708  0.00  0.00    -0.017 A 
ATOM     21  C2  non d ame     -11.121  15.071  65.263  0.00  0.00     0.077 A 
ATOM     22  H1  non d ame      -9.164  14.353  64.430  0.00  0.00     0.091 H 
ATOM     23  O1  non d ame     -12.241  14.433  65.444  0.00  0.00    -0.218 OA
ATOM     24  N1  non d ame     -12.150  13.179  65.063  0.00  0.00    -0.123 NA
BRANCH  21  25
ATOM     25  C3  non d ame     -10.854  16.535  65.588  0.00  0.00    -0.029 C 
ATOM     26  H2  non d ame     -11.535  16.863  66.374  0.00  0.00     0.036 H 
ATOM     27  H3  non d ame      -9.825  16.649  65.928  0.00  0.00     0.036 H 
ATOM     28  H4  non d ame     -11.010  17.140  64.695  0.00  0.00     0.036 H 
ENDBRANCH  21  25
ENDBRANCH  16  19
ENDBRANCH  13  15
BRANCH  13  29
ATOM     29  C8  non d ame      -7.418   9.956  63.276  0.00  0.00    -0.049 C 
ATOM     30  H7  non d ame      -6.725   9.137  63.471  0.00  0.00     0.030 H 
ATOM     31  H8  non d ame      -7.652   9.987  62.212  0.00  0.00     0.030 H 
ATOM     32  H9  non d ame      -6.959  10.898  63.576  0.00  0.00     0.030 H 
ENDBRANCH  13  29
ENDBRANCH  10  13
ENDBRANCH   7   9
BRANCH   7  33
ATOM     33  C11 non d ame      -6.721   9.014  68.570  0.00  0.00    -0.033 C 
ATOM     34  H12 non d ame      -5.783   8.555  68.258  0.00  0.00     0.042 H 
BRANCH  33  35
ATOM     35  C12 non d ame      -6.585  10.554  68.353  0.00  0.00    -0.071 C 
ATOM     36  H13 non d ame      -5.736  10.754  67.699  0.00  0.00     0.028 H 
ATOM     37  H14 non d ame      -7.495  10.937  67.893  0.00  0.00     0.028 H 
ATOM     38  H15 non d ame      -6.428  11.044  69.313  0.00  0.00     0.028 H 
ENDBRANCH  33  35
BRANCH  33  39
ATOM     39  C13 non d ame      -6.948   8.674  70.078  0.00  0.00    -0.071 C 
ATOM     40  H16 non d ame      -6.331   7.818  70.354  0.00  0.00     0.028 H 
ATOM     41  H17 non d ame      -6.672   9.533  70.691  0.00  0.00     0.028 H 
ATOM     42  H18 non d ame      -7.998   8.433  70.242  0.00  0.00     0.028 H 
ENDBRANCH  33  39
ENDBRANCH   7  33
ENDBRANCH   4   7
ENDBRANCH   1   3
BRANCH   1  43
ATOM     43  C15 non d ame     -11.877  10.657  69.663  0.00  0.00     0.240 C 
ATOM     44  O5  non d ame     -13.019  10.609  69.340  0.00  0.00    -0.271 OA
ATOM     45  N6  non d ame     -11.244  11.975  69.954  0.00  0.00    -0.355 N 
ATOM     46  H46 non d ame     -10.275  12.029  70.234  0.00  0.00     0.162 HD
BRANCH  45  47
ATOM     47  C20 non d ame     -12.042  13.214  69.831  0.00  0.00     0.013 C 
ATOM     48  H30 non d ame     -12.812  13.044  69.078  0.00  0.00     0.072 H 
BRANCH  47  49
ATOM     49  C21 non d ame     -11.140  14.349  69.401  0.00  0.00    -0.038 C 
ATOM     50  H31 non d ame     -11.778  15.041  68.851  0.00  0.00     0.036 H 
ATOM     51  H32 non d ame     -10.631  14.680  70.307  0.00  0.00     0.036 H 
BRANCH  49  52
ATOM     52  C22 non d ame     -10.036  13.899  68.420  0.00  0.00     0.018 C 
ATOM     53  H33 non d ame      -9.624  12.981  68.840  0.00  0.00     0.048 H 
ATOM     54  H34 non d ame     -10.505  13.884  67.435  0.00  0.00     0.048 H 
BRANCH  52  55
ATOM     55  C23 non d ame      -8.848  14.894  68.314  0.00  0.00     0.259 C 
ATOM     56  O7  non d ame      -7.995  14.731  67.503  0.00  0.00    -0.265 OA
BRANCH  55  57
ATOM     57  O8  non d ame      -8.782  15.998  69.208  0.00  0.00    -0.317 OA
BRANCH  57  58
ATOM     58  C29 non d ame      -7.802  16.978  68.853  0.00  0.00     0.052 C 
ATOM     59  H47 non d ame      -7.437  17.385  69.796  0.00  0.00     0.082 H 
ATOM     60  H48 non d ame      -7.114  16.474  68.175  0.00  0.00     0.082 H 
BRANCH  58  61
ATOM     61  C35 non d ame      -8.519  18.112  68.073  0.00  0.00    -0.034 A 
ATOM     62  C30 non d ame      -7.955  18.619  66.907  0.00  0.00    -0.075 A 
ATOM     63  C31 non d ame      -8.598  19.638  66.206  0.00  0.00    -0.082 A 
ATOM     64  H49 non d ame      -7.009  18.218  66.542  0.00  0.00     0.084 H 
ATOM     65  C32 non d ame      -9.810  20.152  66.677  0.00  0.00    -0.083 A 
ATOM     66  H50 non d ame      -8.155  20.032  65.291  0.00  0.00     0.083 H 
ATOM     67  C33 non d ame     -10.367  19.645  67.843  0.00  0.00    -0.082 A 
ATOM     68  H51 non d ame     -10.320  20.948  66.135  0.00  0.00     0.083 H 
ATOM     69  C34 non d ame      -9.728  18.625  68.546  0.00  0.00    -0.075 A 
ATOM     70  H52 non d ame     -11.311  20.049  68.209  0.00  0.00     0.083 H 
ATOM     71  H53 non d ame     -10.173  18.231  69.460  0.00  0.00     0.084 H 
ENDBRANCH  58  61
ENDBRANCH  57  58
ENDBRANCH  55  57
ENDBRANCH  52  55
ENDBRANCH  49  52
ENDBRANCH  47  49
BRANCH  47  72
ATOM     72  C24 non d ame     -12.681  13.553  71.176  0.00  0.00    -0.039 C 
ATOM     73  H35 non d ame     -13.713  13.207  71.102  0.00  0.00     0.036 H 
ATOM     74  H36 non d ame     -12.017  13.127  71.928  0.00  0.00     0.036 H 
BRANCH  72  75
ATOM     75  C25 non d ame     -12.729  15.134  71.429  0.00  0.00    -0.001 C 
ATOM     76  C26 non d ame     -11.714  15.535  72.659  0.00  0.00    -0.035 C 
ATOM     77  C27 non d ame     -12.395  16.285  73.559  0.00  0.00     0.085 C 
ATOM     78  H38 non d ame     -11.441  14.645  73.224  0.00  0.00     0.036 H 
ATOM     79  H39 non d ame     -10.939  16.212  72.298  0.00  0.00     0.036 H 
ATOM     80  N5  non d ame     -13.861  16.158  73.221  0.00  0.00    -0.049 N 
ATOM     81  H40 non d ame     -12.211  15.817  74.527  0.00  0.00     0.075 H 
ATOM     82  H41 non d ame     -12.078  17.312  73.381  0.00  0.00     0.075 H 
ATOM     83  C28 non d ame     -13.921  15.522  71.739  0.00  0.00     0.193 C 
ATOM     84  H42 non d ame     -14.248  15.491  73.873  0.00  0.00     0.280 HD
ATOM     85  H43 non d ame     -14.228  17.098  73.183  0.00  0.00     0.280 HD
ATOM     86  H44 non d ame     -14.156  16.147  70.877  0.00  0.00     0.129 H 
ATOM     87  H37 non d ame     -12.636  15.703  70.504  0.00  0.00     0.046 H 
BRANCH  83  88
ATOM     88  O6  non d ame     -14.864  14.449  71.700  0.00  0.00    -0.369 OA
ATOM     89  H45 non d ame     -14.595  13.811  71.036  0.00  0.00     0.212 HD
ENDBRANCH  83  88
ENDBRANCH  72  75
ENDBRANCH  47  72
ENDBRANCH  45  47
ENDBRANCH   1  43
BRANCH   1  90
ATOM     90  C16 non d ame     -10.669   9.119  71.243  0.00  0.00    -0.035 C 
ATOM     91  H21 non d ame      -9.697   8.624  71.212  0.00  0.00     0.037 H 
ATOM     92  H22 non d ame     -10.769  10.093  71.722  0.00  0.00     0.037 H 
BRANCH  90  93
ATOM     93  C17 non d ame     -11.632   8.152  72.002  0.00  0.00    -0.059 C 
ATOM     94  H23 non d ame     -11.124   7.823  72.908  0.00  0.00     0.038 H 
BRANCH  93  95
ATOM     95  C18 non d ame     -12.959   8.858  72.428  0.00  0.00    -0.073 C 
ATOM     96  H24 non d ame     -13.479   9.220  71.542  0.00  0.00     0.028 H 
ATOM     97  H25 non d ame     -13.595   8.147  72.957  0.00  0.00     0.028 H 
ATOM     98  H26 non d ame     -12.729   9.697  73.085  0.00  0.00     0.028 H 
ENDBRANCH  93  95
BRANCH  93  99
ATOM     99  C19 non d ame     -11.924   6.903  71.166  0.00  0.00    -0.073 C 
ATOM    100  H27 non d ame     -11.989   6.034  71.821  0.00  0.00     0.028 H 
ATOM    101  H28 non d ame     -12.869   7.032  70.638  0.00  0.00     0.028 H 
ATOM    102  H29 non d ame     -11.122   6.754  70.443  0.00  0.00     0.028 H 
ENDBRANCH  93  99
ENDBRANCH  90  93
ENDBRANCH   1  90
TORSDOF 26
ENDMDL
MODEL 10
REMARK VINA RESULT:      -6.9      2.543      7.479
REMARK  26 active torsions:
REMARK  status: ('A' for Active; 'I' for Inactive)
REMARK    1  A    between atoms: C2_2  and  C3_3 
REMARK    2  A    between atoms: C4_6  and  C5_7 
REMARK       I    between atoms: C5_7  and  N2_9 
REMARK    3  A    between atoms: N2_9  and  C6_10 
REMARK    4  A    between atoms: C6_10  and  C7_11 
REMARK    5  A    between atoms: C6_10  and  C8_13 
REMARK       I    between atoms: C7_11  and  N3_14 
REMARK    6  A    between atoms: N3_14  and  C9_15 
REMARK    7  A    between atoms: C9_15  and  C10_16 
REMARK    8  A    between atoms: C9_15  and  C11_18 
REMARK       I    between atoms: C10_16  and  N4_21 
REMARK    9  A    between atoms: C11_18  and  C12_19 
REMARK   10  A    between atoms: C11_18  and  C13_20 
REMARK   11  A    between atoms: N4_21  and  C14_22 
REMARK   12  A    between atoms: C14_22  and  C15_23 
REMARK   13  A    between atoms: C14_22  and  C16_25 
REMARK       I    between atoms: C15_23  and  N6_40 
REMARK   14  A    between atoms: C16_25  and  C17_26 
REMARK   15  A    between atoms: C17_26  and  C18_27 
REMARK   16  A    between atoms: C17_26  and  C19_28 
REMARK   17  A    between atoms: C20_29  and  C21_30 
REMARK   18  A    between atoms: C20_29  and  C24_33 
REMARK   19  A    between atoms: C20_29  and  N6_40 
REMARK   20  A    between atoms: C21_30  and  C22_31 
REMARK   21  A    between atoms: C22_31  and  C23_32 
REMARK   22  A    between atoms: C23_32  and  O8_43 
REMARK   23  A    between atoms: C24_33  and  C25_34 
REMARK   24  A    between atoms: C28_38  and  O6_39 
REMARK   25  A    between atoms: C29_42  and  O8_43 
REMARK   26  A    between atoms: C29_42  and  C35_49 
ROOT
ATOM      1  C14 non d ame     -10.514  10.188  69.530  0.00  0.00     0.089 C 
ATOM      2  H20 non d ame     -10.640   9.216  69.052  0.00  0.00     0.087 H 
ENDROOT
BRANCH   1   3
ATOM      3  N4  non d ame      -9.097  10.518  69.484  0.00  0.00    -0.346 N 
ATOM      4  C10 non d ame      -8.250  10.077  68.318  0.00  0.00     0.241 C 
ATOM      5  O4  non d ame      -8.730   9.454  67.429  0.00  0.00    -0.271 OA
ATOM      6  H19 non d ame      -8.707  11.047  70.252  0.00  0.00     0.163 HD
BRANCH   4   7
ATOM      7  C9  non d ame      -6.787  10.432  68.284  0.00  0.00     0.092 C 
ATOM      8  H11 non d ame      -6.463  10.522  67.247  0.00  0.00     0.088 H 
BRANCH   7   9
ATOM      9  N3  non d ame      -6.586  11.740  68.915  0.00  0.00    -0.346 N 
ATOM     10  C7  non d ame      -6.177  12.870  68.117  0.00  0.00     0.240 C 
ATOM     11  O3  non d ame      -6.004  12.744  66.966  0.00  0.00    -0.271 OA
ATOM     12  H10 non d ame      -6.730  11.863  69.907  0.00  0.00     0.163 HD
BRANCH  10  13
ATOM     13  C6  non d ame      -5.963  14.259  68.795  0.00  0.00     0.086 C 
ATOM     14  H6  non d ame      -5.031  14.736  68.493  0.00  0.00     0.086 H 
BRANCH  13  15
ATOM     15  N2  non d ame      -7.037  15.151  68.392  0.00  0.00    -0.343 N 
ATOM     16  C5  non d ame      -6.771  16.200  67.405  0.00  0.00     0.273 C 
ATOM     17  O2  non d ame      -5.689  16.319  66.943  0.00  0.00    -0.266 OA
ATOM     18  H5  non d ame      -7.957  15.044  68.793  0.00  0.00     0.163 HD
BRANCH  16  19
ATOM     19  C4  non d ame      -7.897  17.149  66.968  0.00  0.00     0.154 A 
ATOM     20  C1  non d ame      -8.347  18.327  67.645  0.00  0.00    -0.017 A 
ATOM     21  C2  non d ame      -9.391  18.833  66.840  0.00  0.00     0.077 A 
ATOM     22  H1  non d ame      -7.973  18.749  68.578  0.00  0.00     0.091 H 
ATOM     23  O1  non d ame      -9.517  18.034  65.821  0.00  0.00    -0.218 OA
ATOM     24  N1  non d ame      -8.656  17.044  65.874  0.00  0.00    -0.123 NA
BRANCH  21  25
ATOM     25  C3  non d ame     -10.215  20.084  67.114  0.00  0.00    -0.029 C 
ATOM     26  H2  non d ame     -10.896  20.261  66.281  0.00  0.00     0.036 H 
ATOM     27  H3  non d ame     -10.789  19.947  68.030  0.00  0.00     0.036 H 
ATOM     28  H4  non d ame      -9.550  20.941  67.227  0.00  0.00     0.036 H 
ENDBRANCH  21  25
ENDBRANCH  16  19
ENDBRANCH  13  15
BRANCH  13  29
ATOM     29  C8  non d ame      -5.963  14.095  70.294  0.00  0.00    -0.049 C 
ATOM     30  H7  non d ame      -6.885  13.606  70.606  0.00  0.00     0.030 H 
ATOM     31  H8  non d ame      -5.109  13.486  70.593  0.00  0.00     0.030 H 
ATOM     32  H9  non d ame      -5.894  15.074  70.766  0.00  0.00     0.030 H 
ENDBRANCH  13  29
ENDBRANCH  10  13
ENDBRANCH   7   9
BRANCH   7  33
ATOM     33  C11 non d ame      -5.973   9.355  69.059  0.00  0.00    -0.033 C 
ATOM     34  H12 non d ame      -6.687   8.702  69.561  0.00  0.00     0.042 H 
BRANCH  33  35
ATOM     35  C12 non d ame      -5.131   8.470  68.088  0.00  0.00    -0.071 C 
ATOM     36  H13 non d ame      -5.186   7.428  68.405  0.00  0.00     0.028 H 
ATOM     37  H14 non d ame      -5.527   8.562  67.077  0.00  0.00     0.028 H 
ATOM     38  H15 non d ame      -4.093   8.801  68.104  0.00  0.00     0.028 H 
ENDBRANCH  33  35
BRANCH  33  39
ATOM     39  C13 non d ame      -5.071  10.014  70.151  0.00  0.00    -0.071 C 
ATOM     40  H16 non d ame      -5.432   9.732  71.140  0.00  0.00     0.028 H 
ATOM     41  H17 non d ame      -4.043   9.671  70.029  0.00  0.00     0.028 H 
ATOM     42  H18 non d ame      -5.107  11.098  70.046  0.00  0.00     0.028 H 
ENDBRANCH  33  39
ENDBRANCH   7  33
ENDBRANCH   4   7
ENDBRANCH   1   3
BRANCH   1  43
ATOM     43  C15 non d ame     -11.308  11.309  68.801  0.00  0.00     0.240 C 
ATOM     44  O5  non d ame     -12.248  11.027  68.130  0.00  0.00    -0.271 OA
ATOM     45  N6  non d ame     -10.901  12.736  68.945  0.00  0.00    -0.355 N 
ATOM     46  H46 non d ame     -10.108  12.988  69.516  0.00  0.00     0.162 HD
BRANCH  45  47
ATOM     47  C20 non d ame     -11.667  13.790  68.246  0.00  0.00     0.013 C 
ATOM     48  H30 non d ame     -12.417  13.303  67.622  0.00  0.00     0.072 H 
BRANCH  47  49
ATOM     49  C21 non d ame     -10.727  14.603  67.385  0.00  0.00    -0.038 C 
ATOM     50  H31 non d ame     -11.353  15.064  66.620  0.00  0.00     0.036 H 
ATOM     51  H32 non d ame     -10.161  15.228  68.076  0.00  0.00     0.036 H 
BRANCH  49  52
ATOM     52  C22 non d ame      -9.695  13.732  66.638  0.00  0.00     0.018 C 
ATOM     53  H33 non d ame      -8.932  14.422  66.277  0.00  0.00     0.048 H 
ATOM     54  H34 non d ame      -9.424  12.935  67.331  0.00  0.00     0.048 H 
BRANCH  52  55
ATOM     55  C23 non d ame     -10.266  13.027  65.376  0.00  0.00     0.259 C 
ATOM     56  O7  non d ame     -10.804  13.657  64.525  0.00  0.00    -0.265 OA
BRANCH  55  57
ATOM     57  O8  non d ame     -10.150  11.614  65.255  0.00  0.00    -0.317 OA
BRANCH  57  58
ATOM     58  C29 non d ame     -10.581  11.101  63.991  0.00  0.00     0.052 C 
ATOM     59  H47 non d ame     -11.334  10.347  64.221  0.00  0.00     0.082 H 
ATOM     60  H48 non d ame     -10.847  11.973  63.394  0.00  0.00     0.082 H 
BRANCH  58  61
ATOM     61  C35 non d ame      -9.370  10.398  63.322  0.00  0.00    -0.034 A 
ATOM     62  C30 non d ame      -8.969   9.139  63.755  0.00  0.00    -0.075 A 
ATOM     63  C31 non d ame      -7.881   8.507  63.154  0.00  0.00    -0.082 A 
ATOM     64  H49 non d ame      -9.506   8.646  64.566  0.00  0.00     0.084 H 
ATOM     65  C32 non d ame      -7.191   9.142  62.117  0.00  0.00    -0.083 A 
ATOM     66  H50 non d ame      -7.570   7.519  63.495  0.00  0.00     0.083 H 
ATOM     67  C33 non d ame      -7.594  10.400  61.690  0.00  0.00    -0.082 A 
ATOM     68  H51 non d ame      -6.340   8.655  61.641  0.00  0.00     0.083 H 
ATOM     69  C34 non d ame      -8.682  11.034  62.287  0.00  0.00    -0.075 A 
ATOM     70  H52 non d ame      -7.052  10.893  60.882  0.00  0.00     0.083 H 
ATOM     71  H53 non d ame      -8.992  12.022  61.945  0.00  0.00     0.084 H 
ENDBRANCH  58  61
ENDBRANCH  57  58
ENDBRANCH  55  57
ENDBRANCH  52  55
ENDBRANCH  49  52
ENDBRANCH  47  49
BRANCH  47  72
ATOM     72  C24 non d ame     -12.341  14.703  69.269  0.00  0.00    -0.039 C 
ATOM     73  H35 non d ame     -12.007  15.712  69.021  0.00  0.00     0.036 H 
ATOM     74  H36 non d ame     -13.401  14.455  69.226  0.00  0.00     0.036 H 
BRANCH  72  75
ATOM     75  C25 non d ame     -11.842  14.393  70.759  0.00  0.00    -0.001 C 
ATOM     76  C26 non d ame     -13.074  13.750  71.639  0.00  0.00    -0.035 C 
ATOM     77  C27 non d ame     -13.195  14.447  72.794  0.00  0.00     0.085 C 
ATOM     78  H38 non d ame     -14.024  13.925  71.135  0.00  0.00     0.036 H 
ATOM     79  H39 non d ame     -12.810  12.746  71.973  0.00  0.00     0.036 H 
ATOM     80  N5  non d ame     -12.378  15.707  72.638  0.00  0.00    -0.049 N 
ATOM     81  H40 non d ame     -14.250  14.714  72.864  0.00  0.00     0.075 H 
ATOM     82  H41 non d ame     -12.739  13.821  73.561  0.00  0.00     0.075 H 
ATOM     83  C28 non d ame     -11.435  15.467  71.349  0.00  0.00     0.193 C 
ATOM     84  H42 non d ame     -13.031  16.447  72.426  0.00  0.00     0.280 HD
ATOM     85  H43 non d ame     -11.791  15.771  73.458  0.00  0.00     0.280 HD
ATOM     86  H44 non d ame     -10.377  15.237  71.472  0.00  0.00     0.129 H 
ATOM     87  H37 non d ame     -10.891  13.860  70.774  0.00  0.00     0.046 H 
BRANCH  83  88
ATOM     88  O6  non d ame     -11.481  16.606  70.487  0.00  0.00    -0.369 OA
ATOM     89  H45 non d ame     -12.363  16.694  70.121  0.00  0.00     0.212 HD
ENDBRANCH  83  88
ENDBRANCH  72  75
ENDBRANCH  47  72
ENDBRANCH  45  47
ENDBRANCH   1  43
BRANCH   1  90
ATOM     90  C16 non d ame     -10.958  10.109  70.982  0.00  0.00    -0.035 C 
ATOM     91  H21 non d ame     -10.101   9.708  71.525  0.00  0.00     0.037 H 
ATOM     92  H22 non d ame     -11.338  11.102  71.222  0.00  0.00     0.037 H 
BRANCH  90  93
ATOM     93  C17 non d ame     -12.137   9.114  71.224  0.00  0.00    -0.059 C 
ATOM     94  H23 non d ame     -12.408   8.682  70.261  0.00  0.00     0.038 H 
BRANCH  93  95
ATOM     95  C18 non d ame     -11.734   7.942  72.176  0.00  0.00    -0.073 C 
ATOM     96  H24 non d ame     -10.989   7.316  71.685  0.00  0.00     0.028 H 
ATOM     97  H25 non d ame     -11.317   8.350  73.097  0.00  0.00     0.028 H 
ATOM     98  H26 non d ame     -12.616   7.344  72.409  0.00  0.00     0.028 H 
ENDBRANCH  93  95
BRANCH  93  99
ATOM     99  C19 non d ame     -13.371   9.847  71.755  0.00  0.00    -0.073 C 
ATOM    100  H27 non d ame     -14.246   9.203  71.661  0.00  0.00     0.028 H 
ATOM    101  H28 non d ame     -13.219  10.101  72.805  0.00  0.00     0.028 H 
ATOM    102  H29 non d ame     -13.527  10.760  71.180  0.00  0.00     0.028 H 
ENDBRANCH  93  99
ENDBRANCH  90  93
ENDBRANCH   1  90
TORSDOF 26
ENDMDL
MODEL 11
REMARK VINA RESULT:      -6.9      3.230      6.187
REMARK  26 active torsions:
REMARK  status: ('A' for Active; 'I' for Inactive)
REMARK    1  A    between atoms: C2_2  and  C3_3 
REMARK    2  A    between atoms: C4_6  and  C5_7 
REMARK       I    between atoms: C5_7  and  N2_9 
REMARK    3  A    between atoms: N2_9  and  C6_10 
REMARK    4  A    between atoms: C6_10  and  C7_11 
REMARK    5  A    between atoms: C6_10  and  C8_13 
REMARK       I    between atoms: C7_11  and  N3_14 
REMARK    6  A    between atoms: N3_14  and  C9_15 
REMARK    7  A    between atoms: C9_15  and  C10_16 
REMARK    8  A    between atoms: C9_15  and  C11_18 
REMARK       I    between atoms: C10_16  and  N4_21 
REMARK    9  A    between atoms: C11_18  and  C12_19 
REMARK   10  A    between atoms: C11_18  and  C13_20 
REMARK   11  A    between atoms: N4_21  and  C14_22 
REMARK   12  A    between atoms: C14_22  and  C15_23 
REMARK   13  A    between atoms: C14_22  and  C16_25 
REMARK       I    between atoms: C15_23  and  N6_40 
REMARK   14  A    between atoms: C16_25  and  C17_26 
REMARK   15  A    between atoms: C17_26  and  C18_27 
REMARK   16  A    between atoms: C17_26  and  C19_28 
REMARK   17  A    between atoms: C20_29  and  C21_30 
REMARK   18  A    between atoms: C20_29  and  C24_33 
REMARK   19  A    between atoms: C20_29  and  N6_40 
REMARK   20  A    between atoms: C21_30  and  C22_31 
REMARK   21  A    between atoms: C22_31  and  C23_32 
REMARK   22  A    between atoms: C23_32  and  O8_43 
REMARK   23  A    between atoms: C24_33  and  C25_34 
REMARK   24  A    between atoms: C28_38  and  O6_39 
REMARK   25  A    between atoms: C29_42  and  O8_43 
REMARK   26  A    between atoms: C29_42  and  C35_49 
ROOT
ATOM      1  C14 non d ame     -10.465   8.829  68.966  0.00  0.00     0.089 C 
ATOM      2  H20 non d ame     -11.508   8.587  68.759  0.00  0.00     0.087 H 
ENDROOT
BRANCH   1   3
ATOM      3  N4  non d ame      -9.642   7.962  68.136  0.00  0.00    -0.346 N 
ATOM      4  C10 non d ame     -10.284   6.961  67.209  0.00  0.00     0.241 C 
ATOM      5  O4  non d ame     -11.466   6.869  67.150  0.00  0.00    -0.271 OA
ATOM      6  H19 non d ame      -8.638   8.054  68.203  0.00  0.00     0.163 HD
BRANCH   4   7
ATOM      7  C9  non d ame      -9.416   6.075  66.354  0.00  0.00     0.092 C 
ATOM      8  H11 non d ame      -9.902   5.921  65.390  0.00  0.00     0.088 H 
BRANCH   7   9
ATOM      9  N3  non d ame      -8.139   6.746  66.093  0.00  0.00    -0.346 N 
ATOM     10  C7  non d ame      -7.667   6.894  64.738  0.00  0.00     0.240 C 
ATOM     11  O3  non d ame      -8.300   6.477  63.846  0.00  0.00    -0.271 OA
ATOM     12  H10 non d ame      -7.581   7.109  66.852  0.00  0.00     0.163 HD
BRANCH  10  13
ATOM     13  C6  non d ame      -6.305   7.606  64.467  0.00  0.00     0.086 C 
ATOM     14  H6  non d ame      -6.256   8.059  63.477  0.00  0.00     0.086 H 
BRANCH  13  15
ATOM     15  N2  non d ame      -6.138   8.685  65.427  0.00  0.00    -0.343 N 
ATOM     16  C5  non d ame      -5.607   9.974  64.978  0.00  0.00     0.273 C 
ATOM     17  O2  non d ame      -5.314  10.132  63.844  0.00  0.00    -0.266 OA
ATOM     18  H5  non d ame      -6.388   8.540  66.395  0.00  0.00     0.163 HD
BRANCH  16  19
ATOM     19  C4  non d ame      -5.426  11.123  65.982  0.00  0.00     0.154 A 
ATOM     20  C1  non d ame      -6.356  11.553  66.981  0.00  0.00    -0.017 A 
ATOM     21  C2  non d ame      -5.718  12.633  67.631  0.00  0.00     0.077 A 
ATOM     22  H1  non d ame      -7.343  11.144  67.200  0.00  0.00     0.091 H 
ATOM     23  O1  non d ame      -4.558  12.794  67.066  0.00  0.00    -0.218 OA
ATOM     24  N1  non d ame      -4.365  11.925  66.101  0.00  0.00    -0.123 NA
BRANCH  21  25
ATOM     25  C3  non d ame      -6.285  13.454  68.782  0.00  0.00    -0.029 C 
ATOM     26  H2  non d ame      -6.985  14.192  68.392  0.00  0.00     0.036 H 
ATOM     27  H3  non d ame      -6.802  12.794  69.478  0.00  0.00     0.036 H 
ATOM     28  H4  non d ame      -5.471  13.962  69.301  0.00  0.00     0.036 H 
ENDBRANCH  21  25
ENDBRANCH  16  19
ENDBRANCH  13  15
BRANCH  13  29
ATOM     29  C8  non d ame      -5.179   6.613  64.604  0.00  0.00    -0.049 C 
ATOM     30  H7  non d ame      -4.955   6.180  63.629  0.00  0.00     0.030 H 
ATOM     31  H8  non d ame      -4.294   7.119  64.990  0.00  0.00     0.030 H 
ATOM     32  H9  non d ame      -5.475   5.822  65.293  0.00  0.00     0.030 H 
ENDBRANCH  13  29
ENDBRANCH  10  13
ENDBRANCH   7   9
BRANCH   7  33
ATOM     33  C11 non d ame      -9.152   4.734  67.098  0.00  0.00    -0.033 C 
ATOM     34  H12 non d ame      -9.769   4.729  67.996  0.00  0.00     0.042 H 
BRANCH  33  35
ATOM     35  C12 non d ame      -9.577   3.509  66.230  0.00  0.00    -0.071 C 
ATOM     36  H13 non d ame      -9.479   2.595  66.817  0.00  0.00     0.028 H 
ATOM     37  H14 non d ame     -10.614   3.628  65.917  0.00  0.00     0.028 H 
ATOM     38  H15 non d ame      -8.937   3.447  65.350  0.00  0.00     0.028 H 
ENDBRANCH  33  35
BRANCH  33  39
ATOM     39  C13 non d ame      -7.656   4.624  67.538  0.00  0.00    -0.071 C 
ATOM     40  H16 non d ame      -7.530   5.091  68.514  0.00  0.00     0.028 H 
ATOM     41  H17 non d ame      -7.372   3.573  67.599  0.00  0.00     0.028 H 
ATOM     42  H18 non d ame      -7.025   5.129  66.807  0.00  0.00     0.028 H 
ENDBRANCH  33  39
ENDBRANCH   7  33
ENDBRANCH   4   7
ENDBRANCH   1   3
BRANCH   1  43
ATOM     43  C15 non d ame     -10.126  10.308  68.625  0.00  0.00     0.240 C 
ATOM     44  O5  non d ame      -9.131  10.800  69.051  0.00  0.00    -0.271 OA
ATOM     45  N6  non d ame     -11.038  11.110  67.760  0.00  0.00    -0.355 N 
ATOM     46  H46 non d ame     -11.883  10.702  67.388  0.00  0.00     0.162 HD
BRANCH  45  47
ATOM     47  C20 non d ame     -10.701  12.515  67.444  0.00  0.00     0.013 C 
ATOM     48  H30 non d ame     -10.073  12.898  68.248  0.00  0.00     0.072 H 
BRANCH  47  49
ATOM     49  C21 non d ame     -11.974  13.325  67.350  0.00  0.00    -0.038 C 
ATOM     50  H31 non d ame     -12.614  12.788  66.651  0.00  0.00     0.036 H 
ATOM     51  H32 non d ame     -12.299  13.481  68.379  0.00  0.00     0.036 H 
BRANCH  49  52
ATOM     52  C22 non d ame     -11.748  14.728  66.746  0.00  0.00     0.018 C 
ATOM     53  H33 non d ame     -11.104  14.576  65.879  0.00  0.00     0.048 H 
ATOM     54  H34 non d ame     -12.742  15.158  66.618  0.00  0.00     0.048 H 
BRANCH  52  55
ATOM     55  C23 non d ame     -10.979  15.698  67.685  0.00  0.00     0.259 C 
ATOM     56  O7  non d ame      -9.850  15.991  67.457  0.00  0.00    -0.265 OA
BRANCH  55  57
ATOM     57  O8  non d ame     -11.636  16.224  68.832  0.00  0.00    -0.317 OA
BRANCH  57  58
ATOM     58  C29 non d ame     -11.071  15.796  70.074  0.00  0.00     0.052 C 
ATOM     59  H47 non d ame     -10.259  15.118  69.811  0.00  0.00     0.082 H 
ATOM     60  H48 non d ame     -10.861  16.707  70.633  0.00  0.00     0.082 H 
BRANCH  58  61
ATOM     61  C35 non d ame     -12.154  14.990  70.840  0.00  0.00    -0.034 A 
ATOM     62  C30 non d ame     -12.123  13.599  70.833  0.00  0.00    -0.075 A 
ATOM     63  C31 non d ame     -13.096  12.875  71.520  0.00  0.00    -0.082 A 
ATOM     64  H49 non d ame     -11.336  13.076  70.289  0.00  0.00     0.084 H 
ATOM     65  C32 non d ame     -14.105  13.547  72.215  0.00  0.00    -0.083 A 
ATOM     66  H50 non d ame     -13.067  11.785  71.515  0.00  0.00     0.083 H 
ATOM     67  C33 non d ame     -14.134  14.935  72.216  0.00  0.00    -0.082 A 
ATOM     68  H51 non d ame     -14.869  12.989  72.756  0.00  0.00     0.083 H 
ATOM     69  C34 non d ame     -13.163  15.663  71.533  0.00  0.00    -0.075 A 
ATOM     70  H52 non d ame     -14.924  15.457  72.758  0.00  0.00     0.083 H 
ATOM     71  H53 non d ame     -13.192  16.753  71.539  0.00  0.00     0.084 H 
ENDBRANCH  58  61
ENDBRANCH  57  58
ENDBRANCH  55  57
ENDBRANCH  52  55
ENDBRANCH  49  52
ENDBRANCH  47  49
BRANCH  47  72
ATOM     72  C24 non d ame      -9.955  12.580  66.112  0.00  0.00    -0.039 C 
ATOM     73  H35 non d ame     -10.193  13.559  65.695  0.00  0.00     0.036 H 
ATOM     74  H36 non d ame      -8.922  12.324  66.345  0.00  0.00     0.036 H 
BRANCH  72  75
ATOM     75  C25 non d ame     -10.493  11.482  65.077  0.00  0.00    -0.001 C 
ATOM     76  C26 non d ame      -9.347  10.326  64.842  0.00  0.00    -0.035 C 
ATOM     77  C27 non d ame      -9.153  10.169  63.511  0.00  0.00     0.085 C 
ATOM     78  H38 non d ame      -8.381  10.679  65.201  0.00  0.00     0.036 H 
ATOM     79  H39 non d ame      -9.725   9.354  65.161  0.00  0.00     0.036 H 
ATOM     80  N5  non d ame      -9.820  11.337  62.826  0.00  0.00    -0.049 N 
ATOM     81  H40 non d ame      -8.074  10.239  63.363  0.00  0.00     0.075 H 
ATOM     82  H41 non d ame      -9.681   9.253  63.246  0.00  0.00     0.075 H 
ATOM     83  C28 non d ame     -10.777  12.014  63.936  0.00  0.00     0.193 C 
ATOM     84  H42 non d ame      -9.085  11.990  62.594  0.00  0.00     0.280 HD
ATOM     85  H43 non d ame     -10.400  10.948  62.096  0.00  0.00     0.280 HD
ATOM     86  H44 non d ame     -11.856  11.857  63.907  0.00  0.00     0.129 H 
ATOM     87  H37 non d ame     -11.499  11.140  65.323  0.00  0.00     0.046 H 
BRANCH  83  88
ATOM     88  O6  non d ame     -10.598  13.432  63.943  0.00  0.00    -0.369 OA
ATOM     89  H45 non d ame      -9.882  13.660  64.539  0.00  0.00     0.212 HD
ENDBRANCH  83  88
ENDBRANCH  72  75
ENDBRANCH  47  72
ENDBRANCH  45  47
ENDBRANCH   1  43
BRANCH   1  90
ATOM     90  C16 non d ame     -10.154   8.557  70.429  0.00  0.00    -0.035 C 
ATOM     91  H21 non d ame      -9.460   7.716  70.426  0.00  0.00     0.037 H 
ATOM     92  H22 non d ame      -9.842   9.517  70.841  0.00  0.00     0.037 H 
BRANCH  90  93
ATOM     93  C17 non d ame     -11.395   8.102  71.260  0.00  0.00    -0.059 C 
ATOM     94  H23 non d ame     -11.057   7.895  72.275  0.00  0.00     0.038 H 
BRANCH  93  95
ATOM     95  C18 non d ame     -12.490   9.214  71.341  0.00  0.00    -0.073 C 
ATOM     96  H24 non d ame     -13.466   8.779  71.123  0.00  0.00     0.028 H 
ATOM     97  H25 non d ame     -12.498   9.644  72.343  0.00  0.00     0.028 H 
ATOM     98  H26 non d ame     -12.269   9.995  70.612  0.00  0.00     0.028 H 
ENDBRANCH  93  95
BRANCH  93  99
ATOM     99  C19 non d ame     -11.980   6.802  70.702  0.00  0.00    -0.073 C 
ATOM    100  H27 non d ame     -11.170   6.111  70.465  0.00  0.00     0.028 H 
ATOM    101  H28 non d ame     -12.637   6.351  71.446  0.00  0.00     0.028 H 
ATOM    102  H29 non d ame     -12.550   7.018  69.798  0.00  0.00     0.028 H 
ENDBRANCH  93  99
ENDBRANCH  90  93
ENDBRANCH   1  90
TORSDOF 26
ENDMDL
MODEL 12
REMARK VINA RESULT:      -6.9      2.572      4.406
REMARK  26 active torsions:
REMARK  status: ('A' for Active; 'I' for Inactive)
REMARK    1  A    between atoms: C2_2  and  C3_3 
REMARK    2  A    between atoms: C4_6  and  C5_7 
REMARK       I    between atoms: C5_7  and  N2_9 
REMARK    3  A    between atoms: N2_9  and  C6_10 
REMARK    4  A    between atoms: C6_10  and  C7_11 
REMARK    5  A    between atoms: C6_10  and  C8_13 
REMARK       I    between atoms: C7_11  and  N3_14 
REMARK    6  A    between atoms: N3_14  and  C9_15 
REMARK    7  A    between atoms: C9_15  and  C10_16 
REMARK    8  A    between atoms: C9_15  and  C11_18 
REMARK       I    between atoms: C10_16  and  N4_21 
REMARK    9  A    between atoms: C11_18  and  C12_19 
REMARK   10  A    between atoms: C11_18  and  C13_20 
REMARK   11  A    between atoms: N4_21  and  C14_22 
REMARK   12  A    between atoms: C14_22  and  C15_23 
REMARK   13  A    between atoms: C14_22  and  C16_25 
REMARK       I    between atoms: C15_23  and  N6_40 
REMARK   14  A    between atoms: C16_25  and  C17_26 
REMARK   15  A    between atoms: C17_26  and  C18_27 
REMARK   16  A    between atoms: C17_26  and  C19_28 
REMARK   17  A    between atoms: C20_29  and  C21_30 
REMARK   18  A    between atoms: C20_29  and  C24_33 
REMARK   19  A    between atoms: C20_29  and  N6_40 
REMARK   20  A    between atoms: C21_30  and  C22_31 
REMARK   21  A    between atoms: C22_31  and  C23_32 
REMARK   22  A    between atoms: C23_32  and  O8_43 
REMARK   23  A    between atoms: C24_33  and  C25_34 
REMARK   24  A    between atoms: C28_38  and  O6_39 
REMARK   25  A    between atoms: C29_42  and  O8_43 
REMARK   26  A    between atoms: C29_42  and  C35_49 
ROOT
ATOM      1  C14 non d ame     -12.172  14.435  70.148  0.00  0.00     0.089 C 
ATOM      2  H20 non d ame     -13.136  14.334  69.647  0.00  0.00     0.087 H 
ENDROOT
BRANCH   1   3
ATOM      3  N4  non d ame     -11.639  13.096  70.348  0.00  0.00    -0.346 N 
ATOM      4  C10 non d ame     -11.717  12.072  69.244  0.00  0.00     0.241 C 
ATOM      5  O4  non d ame     -12.217  12.349  68.203  0.00  0.00    -0.271 OA
ATOM      6  H19 non d ame     -11.220  12.880  71.241  0.00  0.00     0.163 HD
BRANCH   4   7
ATOM      7  C9  non d ame     -11.155  10.693  69.466  0.00  0.00     0.092 C 
ATOM      8  H11 non d ame     -11.485  10.037  68.661  0.00  0.00     0.088 H 
BRANCH   7   9
ATOM      9  N3  non d ame      -9.691  10.746  69.409  0.00  0.00    -0.346 N 
ATOM     10  C7  non d ame      -9.006  10.419  68.183  0.00  0.00     0.240 C 
ATOM     11  O3  non d ame      -9.616  10.109  67.234  0.00  0.00    -0.271 OA
ATOM     12  H10 non d ame      -9.151  11.010  70.221  0.00  0.00     0.163 HD
BRANCH  10  13
ATOM     13  C6  non d ame      -7.447  10.475  68.129  0.00  0.00     0.086 C 
ATOM     14  H6  non d ame      -7.075  11.024  67.265  0.00  0.00     0.086 H 
BRANCH  13  15
ATOM     15  N2  non d ame      -6.960  11.172  69.308  0.00  0.00    -0.343 N 
ATOM     16  C5  non d ame      -6.224  12.428  69.150  0.00  0.00     0.273 C 
ATOM     17  O2  non d ame      -6.028  12.868  68.070  0.00  0.00    -0.266 OA
ATOM     18  H5  non d ame      -7.130  10.787  70.226  0.00  0.00     0.163 HD
BRANCH  16  19
ATOM     19  C4  non d ame      -5.704  13.177  70.387  0.00  0.00     0.154 A 
ATOM     20  C1  non d ame      -5.072  12.610  71.539  0.00  0.00    -0.017 A 
ATOM     21  C2  non d ame      -4.789  13.711  72.377  0.00  0.00     0.077 A 
ATOM     22  H1  non d ame      -4.852  11.560  71.735  0.00  0.00     0.091 H 
ATOM     23  O1  non d ame      -5.211  14.780  71.769  0.00  0.00    -0.218 OA
ATOM     24  N1  non d ame      -5.750  14.494  70.606  0.00  0.00    -0.123 NA
BRANCH  21  25
ATOM     25  C3  non d ame      -4.112  13.655  73.741  0.00  0.00    -0.029 C 
ATOM     26  H2  non d ame      -3.038  13.799  73.620  0.00  0.00     0.036 H 
ATOM     27  H3  non d ame      -4.515  14.442  74.378  0.00  0.00     0.036 H 
ATOM     28  H4  non d ame      -4.300  12.684  74.200  0.00  0.00     0.036 H 
ENDBRANCH  21  25
ENDBRANCH  16  19
ENDBRANCH  13  15
BRANCH  13  29
ATOM     29  C8  non d ame      -6.893   9.073  68.092  0.00  0.00    -0.049 C 
ATOM     30  H7  non d ame      -6.061   9.030  67.389  0.00  0.00     0.030 H 
ATOM     31  H8  non d ame      -6.543   8.794  69.086  0.00  0.00     0.030 H 
ATOM     32  H9  non d ame      -7.673   8.383  67.773  0.00  0.00     0.030 H 
ENDBRANCH  13  29
ENDBRANCH  10  13
ENDBRANCH   7   9
BRANCH   7  33
ATOM     33  C11 non d ame     -11.599  10.171  70.865  0.00  0.00    -0.033 C 
ATOM     34  H12 non d ame     -11.341  10.936  71.597  0.00  0.00     0.042 H 
BRANCH  33  35
ATOM     35  C12 non d ame     -13.144   9.961  70.929  0.00  0.00    -0.071 C 
ATOM     36  H13 non d ame     -13.631  10.627  70.217  0.00  0.00     0.028 H 
ATOM     37  H14 non d ame     -13.380   8.927  70.679  0.00  0.00     0.028 H 
ATOM     38  H15 non d ame     -13.498  10.183  71.935  0.00  0.00     0.028 H 
ENDBRANCH  33  35
BRANCH  33  39
ATOM     39  C13 non d ame     -10.833   8.863  71.242  0.00  0.00    -0.071 C 
ATOM     40  H16 non d ame     -11.473   8.001  71.059  0.00  0.00     0.028 H 
ATOM     41  H17 non d ame      -9.931   8.781  70.634  0.00  0.00     0.028 H 
ATOM     42  H18 non d ame     -10.558   8.895  72.297  0.00  0.00     0.028 H 
ENDBRANCH  33  39
ENDBRANCH   7  33
ENDBRANCH   4   7
ENDBRANCH   1   3
BRANCH   1  43
ATOM     43  C15 non d ame     -11.154  15.253  69.302  0.00  0.00     0.240 C 
ATOM     44  O5  non d ame     -10.194  15.720  69.822  0.00  0.00    -0.271 OA
ATOM     45  N6  non d ame     -11.373  15.445  67.840  0.00  0.00    -0.355 N 
ATOM     46  H46 non d ame     -12.183  15.049  67.385  0.00  0.00     0.162 HD
BRANCH  45  47
ATOM     47  C20 non d ame     -10.395  16.224  67.049  0.00  0.00     0.013 C 
ATOM     48  H30 non d ame      -9.418  16.109  67.518  0.00  0.00     0.072 H 
BRANCH  47  49
ATOM     49  C21 non d ame     -10.800  17.680  67.048  0.00  0.00    -0.038 C 
ATOM     50  H31 non d ame     -11.775  17.715  66.561  0.00  0.00     0.036 H 
ATOM     51  H32 non d ame     -10.694  18.016  68.079  0.00  0.00     0.036 H 
BRANCH  49  52
ATOM     52  C22 non d ame      -9.858  18.563  66.201  0.00  0.00     0.018 C 
ATOM     53  H33 non d ame      -8.979  17.950  66.001  0.00  0.00     0.048 H 
ATOM     54  H34 non d ame     -10.465  18.933  65.374  0.00  0.00     0.048 H 
BRANCH  52  55
ATOM     55  C23 non d ame      -9.341  19.823  66.949  0.00  0.00     0.259 C 
ATOM     56  O7  non d ame     -10.103  20.638  67.358  0.00  0.00    -0.265 OA
BRANCH  55  57
ATOM     57  O8  non d ame      -7.941  20.000  67.129  0.00  0.00    -0.317 OA
BRANCH  57  58
ATOM     58  C29 non d ame      -7.468  19.622  68.425  0.00  0.00     0.052 C 
ATOM     59  H47 non d ame      -6.972  20.505  68.827  0.00  0.00     0.082 H 
ATOM     60  H48 non d ame      -8.329  19.197  68.941  0.00  0.00     0.082 H 
BRANCH  58  61
ATOM     61  C35 non d ame      -6.407  18.504  68.239  0.00  0.00    -0.034 A 
ATOM     62  C30 non d ame      -6.748  17.319  67.596  0.00  0.00    -0.075 A 
ATOM     63  C31 non d ame      -5.795  16.316  67.429  0.00  0.00    -0.082 A 
ATOM     64  H49 non d ame      -7.762  17.177  67.221  0.00  0.00     0.084 H 
ATOM     65  C32 non d ame      -4.496  16.499  67.912  0.00  0.00    -0.083 A 
ATOM     66  H50 non d ame      -6.065  15.389  66.922  0.00  0.00     0.083 H 
ATOM     67  C33 non d ame      -4.161  17.682  68.557  0.00  0.00    -0.082 A 
ATOM     68  H51 non d ame      -3.745  15.720  67.786  0.00  0.00     0.083 H 
ATOM     69  C34 non d ame      -5.110  18.689  68.723  0.00  0.00    -0.075 A 
ATOM     70  H52 non d ame      -3.148  17.822  68.934  0.00  0.00     0.083 H 
ATOM     71  H53 non d ame      -4.839  19.616  69.230  0.00  0.00     0.084 H 
ENDBRANCH  58  61
ENDBRANCH  57  58
ENDBRANCH  55  57
ENDBRANCH  52  55
ENDBRANCH  49  52
ENDBRANCH  47  49
BRANCH  47  72
ATOM     72  C24 non d ame     -10.360  15.702  65.614  0.00  0.00    -0.039 C 
ATOM     73  H35 non d ame     -10.649  16.549  64.991  0.00  0.00     0.036 H 
ATOM     74  H36 non d ame      -9.376  15.249  65.494  0.00  0.00     0.036 H 
BRANCH  72  75
ATOM     75  C25 non d ame     -11.445  14.548  65.376  0.00  0.00    -0.001 C 
ATOM     76  C26 non d ame     -10.686  13.117  65.091  0.00  0.00    -0.035 C 
ATOM     77  C27 non d ame     -11.190  12.573  63.958  0.00  0.00     0.085 C 
ATOM     78  H38 non d ame      -9.639  13.291  64.846  0.00  0.00     0.036 H 
ATOM     79  H39 non d ame     -10.952  12.393  65.862  0.00  0.00     0.036 H 
ATOM     80  N5  non d ame     -11.988  13.652  63.268  0.00  0.00    -0.049 N 
ATOM     81  H40 non d ame     -10.324  12.323  63.344  0.00  0.00     0.075 H 
ATOM     82  H41 non d ame     -11.869  11.787  64.289  0.00  0.00     0.075 H 
ATOM     83  C28 non d ame     -12.201  14.818  64.364  0.00  0.00     0.193 C 
ATOM     84  H42 non d ame     -11.403  14.011  62.526  0.00  0.00     0.280 HD
ATOM     85  H43 non d ame     -12.888  13.248  63.050  0.00  0.00     0.280 HD
ATOM     86  H44 non d ame     -13.162  14.941  64.863  0.00  0.00     0.129 H 
ATOM     87  H37 non d ame     -12.226  14.552  66.136  0.00  0.00     0.046 H 
BRANCH  83  88
ATOM     88  O6  non d ame     -11.901  16.093  63.793  0.00  0.00    -0.369 OA
ATOM     89  H45 non d ame     -12.193  16.110  62.879  0.00  0.00     0.212 HD
ENDBRANCH  83  88
ENDBRANCH  72  75
ENDBRANCH  47  72
ENDBRANCH  45  47
ENDBRANCH   1  43
BRANCH   1  90
ATOM     90  C16 non d ame     -12.363  15.101  71.501  0.00  0.00    -0.035 C 
ATOM     91  H21 non d ame     -11.542  14.738  72.120  0.00  0.00     0.037 H 
ATOM     92  H22 non d ame     -12.455  16.166  71.289  0.00  0.00     0.037 H 
BRANCH  90  93
ATOM     93  C17 non d ame     -13.681  14.680  72.227  0.00  0.00    -0.059 C 
ATOM     94  H23 non d ame     -13.687  15.159  73.206  0.00  0.00     0.038 H 
BRANCH  93  95
ATOM     95  C18 non d ame     -14.954  15.155  71.456  0.00  0.00    -0.073 C 
ATOM     96  H24 non d ame     -15.763  15.332  72.166  0.00  0.00     0.028 H 
ATOM     97  H25 non d ame     -14.732  16.078  70.921  0.00  0.00     0.028 H 
ATOM     98  H26 non d ame     -15.256  14.386  70.745  0.00  0.00     0.028 H 
ENDBRANCH  93  95
BRANCH  93  99
ATOM     99  C19 non d ame     -13.717  13.168  72.460  0.00  0.00    -0.073 C 
ATOM    100  H27 non d ame     -12.895  12.696  71.921  0.00  0.00     0.028 H 
ATOM    101  H28 non d ame     -13.618  12.962  73.526  0.00  0.00     0.028 H 
ATOM    102  H29 non d ame     -14.665  12.767  72.100  0.00  0.00     0.028 H 
ENDBRANCH  93  99
ENDBRANCH  90  93
ENDBRANCH   1  90
TORSDOF 26
ENDMDL
MODEL 13
REMARK VINA RESULT:      -6.9      2.734      7.273
REMARK  26 active torsions:
REMARK  status: ('A' for Active; 'I' for Inactive)
REMARK    1  A    between atoms: C2_2  and  C3_3 
REMARK    2  A    between atoms: C4_6  and  C5_7 
REMARK       I    between atoms: C5_7  and  N2_9 
REMARK    3  A    between atoms: N2_9  and  C6_10 
REMARK    4  A    between atoms: C6_10  and  C7_11 
REMARK    5  A    between atoms: C6_10  and  C8_13 
REMARK       I    between atoms: C7_11  and  N3_14 
REMARK    6  A    between atoms: N3_14  and  C9_15 
REMARK    7  A    between atoms: C9_15  and  C10_16 
REMARK    8  A    between atoms: C9_15  and  C11_18 
REMARK       I    between atoms: C10_16  and  N4_21 
REMARK    9  A    between atoms: C11_18  and  C12_19 
REMARK   10  A    between atoms: C11_18  and  C13_20 
REMARK   11  A    between atoms: N4_21  and  C14_22 
REMARK   12  A    between atoms: C14_22  and  C15_23 
REMARK   13  A    between atoms: C14_22  and  C16_25 
REMARK       I    between atoms: C15_23  and  N6_40 
REMARK   14  A    between atoms: C16_25  and  C17_26 
REMARK   15  A    between atoms: C17_26  and  C18_27 
REMARK   16  A    between atoms: C17_26  and  C19_28 
REMARK   17  A    between atoms: C20_29  and  C21_30 
REMARK   18  A    between atoms: C20_29  and  C24_33 
REMARK   19  A    between atoms: C20_29  and  N6_40 
REMARK   20  A    between atoms: C21_30  and  C22_31 
REMARK   21  A    between atoms: C22_31  and  C23_32 
REMARK   22  A    between atoms: C23_32  and  O8_43 
REMARK   23  A    between atoms: C24_33  and  C25_34 
REMARK   24  A    between atoms: C28_38  and  O6_39 
REMARK   25  A    between atoms: C29_42  and  O8_43 
REMARK   26  A    between atoms: C29_42  and  C35_49 
ROOT
ATOM      1  C14 non d ame      -9.777  11.767  65.727  0.00  0.00     0.089 C 
ATOM      2  H20 non d ame      -9.636  12.156  64.718  0.00  0.00     0.087 H 
ENDROOT
BRANCH   1   3
ATOM      3  N4  non d ame      -9.128  10.466  65.790  0.00  0.00    -0.346 N 
ATOM      4  C10 non d ame      -8.905   9.664  64.533  0.00  0.00     0.241 C 
ATOM      5  O4  non d ame      -9.260  10.086  63.481  0.00  0.00    -0.271 OA
ATOM      6  H19 non d ame      -8.836  10.124  66.695  0.00  0.00     0.163 HD
BRANCH   4   7
ATOM      7  C9  non d ame      -8.227   8.322  64.616  0.00  0.00     0.092 C 
ATOM      8  H11 non d ame      -7.320   8.415  65.214  0.00  0.00     0.088 H 
BRANCH   7   9
ATOM      9  N3  non d ame      -9.105   7.372  65.304  0.00  0.00    -0.346 N 
ATOM     10  C7  non d ame      -8.756   6.890  66.618  0.00  0.00     0.240 C 
ATOM     11  O3  non d ame      -7.772   7.255  67.135  0.00  0.00    -0.271 OA
ATOM     12  H10 non d ame      -9.957   7.046  64.870  0.00  0.00     0.163 HD
BRANCH  10  13
ATOM     13  C6  non d ame      -9.694   5.876  67.345  0.00  0.00     0.086 C 
ATOM     14  H6  non d ame      -9.156   5.224  68.034  0.00  0.00     0.086 H 
BRANCH  13  15
ATOM     15  N2  non d ame     -10.660   6.615  68.141  0.00  0.00    -0.343 N 
ATOM     16  C5  non d ame     -10.367   6.904  69.546  0.00  0.00     0.273 C 
ATOM     17  O2  non d ame      -9.353   6.535  70.028  0.00  0.00    -0.266 OA
ATOM     18  H5  non d ame     -11.526   6.924  67.721  0.00  0.00     0.163 HD
BRANCH  16  19
ATOM     19  C4  non d ame     -11.379   7.685  70.399  0.00  0.00     0.154 A 
ATOM     20  C1  non d ame     -11.498   9.106  70.513  0.00  0.00    -0.017 A 
ATOM     21  C2  non d ame     -12.571   9.310  71.410  0.00  0.00     0.077 A 
ATOM     22  H1  non d ame     -10.898   9.872  70.022  0.00  0.00     0.091 H 
ATOM     23  O1  non d ame     -13.010   8.137  71.761  0.00  0.00    -0.218 OA
ATOM     24  N1  non d ame     -12.331   7.173  71.185  0.00  0.00    -0.123 NA
BRANCH  21  25
ATOM     25  C3  non d ame     -13.113  10.655  71.876  0.00  0.00    -0.029 C 
ATOM     26  H2  non d ame     -13.412  11.247  71.011  0.00  0.00     0.036 H 
ATOM     27  H3  non d ame     -13.976  10.494  72.522  0.00  0.00     0.036 H 
ATOM     28  H4  non d ame     -12.339  11.187  72.430  0.00  0.00     0.036 H 
ENDBRANCH  21  25
ENDBRANCH  16  19
ENDBRANCH  13  15
BRANCH  13  29
ATOM     29  C8  non d ame     -10.407   5.026  66.325  0.00  0.00    -0.049 C 
ATOM     30  H7  non d ame      -9.767   4.892  65.452  0.00  0.00     0.030 H 
ATOM     31  H8  non d ame     -10.638   4.054  66.759  0.00  0.00     0.030 H 
ATOM     32  H9  non d ame     -11.331   5.519  66.023  0.00  0.00     0.030 H 
ENDBRANCH  13  29
ENDBRANCH  10  13
ENDBRANCH   7   9
BRANCH   7  33
ATOM     33  C11 non d ame      -7.929   7.802  63.179  0.00  0.00    -0.033 C 
ATOM     34  H12 non d ame      -8.656   8.258  62.507  0.00  0.00     0.042 H 
BRANCH  33  35
ATOM     35  C12 non d ame      -6.510   8.237  62.699  0.00  0.00    -0.071 C 
ATOM     36  H13 non d ame      -6.470   8.210  61.610  0.00  0.00     0.028 H 
ATOM     37  H14 non d ame      -6.305   9.250  63.045  0.00  0.00     0.028 H 
ATOM     38  H15 non d ame      -5.764   7.555  63.107  0.00  0.00     0.028 H 
ENDBRANCH  33  35
BRANCH  33  39
ATOM     39  C13 non d ame      -8.104   6.251  63.098  0.00  0.00    -0.071 C 
ATOM     40  H16 non d ame      -7.368   5.769  63.742  0.00  0.00     0.028 H 
ATOM     41  H17 non d ame      -9.107   5.980  63.428  0.00  0.00     0.028 H 
ATOM     42  H18 non d ame      -7.958   5.922  62.070  0.00  0.00     0.028 H 
ENDBRANCH  33  39
ENDBRANCH   7  33
ENDBRANCH   4   7
ENDBRANCH   1   3
BRANCH   1  43
ATOM     43  C15 non d ame      -9.142  12.690  66.806  0.00  0.00     0.240 C 
ATOM     44  O5  non d ame      -8.951  12.273  67.903  0.00  0.00    -0.271 OA
ATOM     45  N6  non d ame      -8.763  14.092  66.470  0.00  0.00    -0.355 N 
ATOM     46  H46 non d ame      -8.916  14.456  65.541  0.00  0.00     0.162 HD
BRANCH  45  47
ATOM     47  C20 non d ame      -8.159  14.957  67.507  0.00  0.00     0.013 C 
ATOM     48  H30 non d ame      -8.596  14.684  68.467  0.00  0.00     0.072 H 
BRANCH  47  49
ATOM     49  C21 non d ame      -8.466  16.403  67.192  0.00  0.00    -0.038 C 
ATOM     50  H31 non d ame      -7.503  16.870  66.982  0.00  0.00     0.036 H 
ATOM     51  H32 non d ame      -9.239  16.380  66.424  0.00  0.00     0.036 H 
BRANCH  49  52
ATOM     52  C22 non d ame      -9.067  17.164  68.394  0.00  0.00     0.018 C 
ATOM     53  H33 non d ame      -8.992  16.483  69.242  0.00  0.00     0.048 H 
ATOM     54  H34 non d ame      -8.554  18.126  68.421  0.00  0.00     0.048 H 
BRANCH  52  55
ATOM     55  C23 non d ame     -10.578  17.489  68.237  0.00  0.00     0.259 C 
ATOM     56  O7  non d ame     -10.927  18.513  67.745  0.00  0.00    -0.265 OA
BRANCH  55  57
ATOM     57  O8  non d ame     -11.544  16.553  68.699  0.00  0.00    -0.317 OA
BRANCH  57  58
ATOM     58  C29 non d ame     -11.009  15.540  69.556  0.00  0.00     0.052 C 
ATOM     59  H47 non d ame     -11.060  14.613  68.983  0.00  0.00     0.082 H 
ATOM     60  H48 non d ame     -10.045  15.918  69.895  0.00  0.00     0.082 H 
BRANCH  58  61
ATOM     61  C35 non d ame     -11.945  15.409  70.786  0.00  0.00    -0.034 A 
ATOM     62  C30 non d ame     -11.726  16.192  71.915  0.00  0.00    -0.075 A 
ATOM     63  C31 non d ame     -12.566  16.075  73.021  0.00  0.00    -0.082 A 
ATOM     64  H49 non d ame     -10.895  16.898  71.933  0.00  0.00     0.084 H 
ATOM     65  C32 non d ame     -13.629  15.168  72.996  0.00  0.00    -0.083 A 
ATOM     66  H50 non d ame     -12.393  16.692  73.903  0.00  0.00     0.083 H 
ATOM     67  C33 non d ame     -13.843  14.386  71.869  0.00  0.00    -0.082 A 
ATOM     68  H51 non d ame     -14.292  15.071  73.856  0.00  0.00     0.083 H 
ATOM     69  C34 non d ame     -13.006  14.502  70.761  0.00  0.00    -0.075 A 
ATOM     70  H52 non d ame     -14.671  13.678  71.854  0.00  0.00     0.083 H 
ATOM     71  H53 non d ame     -13.181  13.885  69.879  0.00  0.00     0.084 H 
ENDBRANCH  58  61
ENDBRANCH  57  58
ENDBRANCH  55  57
ENDBRANCH  52  55
ENDBRANCH  49  52
ENDBRANCH  47  49
BRANCH  47  72
ATOM     72  C24 non d ame      -6.646  14.750  67.534  0.00  0.00    -0.039 C 
ATOM     73  H35 non d ame      -6.468  13.835  66.969  0.00  0.00     0.036 H 
ATOM     74  H36 non d ame      -6.218  15.693  67.192  0.00  0.00     0.036 H 
BRANCH  72  75
ATOM     75  C25 non d ame      -6.109  14.500  69.022  0.00  0.00    -0.001 C 
ATOM     76  C26 non d ame      -4.880  15.541  69.357  0.00  0.00    -0.035 C 
ATOM     77  C27 non d ame      -3.825  14.833  69.828  0.00  0.00     0.085 C 
ATOM     78  H38 non d ame      -4.501  15.980  68.434  0.00  0.00     0.036 H 
ATOM     79  H39 non d ame      -5.151  16.182  70.195  0.00  0.00     0.036 H 
ATOM     80  N5  non d ame      -4.104  13.378  69.538  0.00  0.00    -0.049 N 
ATOM     81  H40 non d ame      -2.969  15.156  69.234  0.00  0.00     0.075 H 
ATOM     82  H41 non d ame      -3.830  14.988  70.906  0.00  0.00     0.075 H 
ATOM     83  C28 non d ame      -5.673  13.293  69.165  0.00  0.00     0.193 C 
ATOM     84  H42 non d ame      -3.565  13.141  68.718  0.00  0.00     0.280 HD
ATOM     85  H43 non d ame      -3.953  12.880  70.404  0.00  0.00     0.280 HD
ATOM     86  H44 non d ame      -6.393  12.906  69.886  0.00  0.00     0.129 H 
ATOM     87  H37 non d ame      -6.919  14.439  69.749  0.00  0.00     0.046 H 
BRANCH  83  88
ATOM     88  O6  non d ame      -5.856  12.510  67.984  0.00  0.00    -0.369 OA
ATOM     89  H45 non d ame      -6.789  12.315  67.871  0.00  0.00     0.212 HD
ENDBRANCH  83  88
ENDBRANCH  72  75
ENDBRANCH  47  72
ENDBRANCH  45  47
ENDBRANCH   1  43
BRANCH   1  90
ATOM     90  C16 non d ame     -11.261  11.596  66.010  0.00  0.00    -0.035 C 
ATOM     91  H21 non d ame     -11.497  10.576  65.704  0.00  0.00     0.037 H 
ATOM     92  H22 non d ame     -11.393  11.897  67.050  0.00  0.00     0.037 H 
BRANCH  90  93
ATOM     93  C17 non d ame     -12.174  12.535  65.159  0.00  0.00    -0.059 C 
ATOM     94  H23 non d ame     -13.141  12.044  65.048  0.00  0.00     0.038 H 
BRANCH  93  95
ATOM     95  C18 non d ame     -12.415  13.912  65.856  0.00  0.00    -0.073 C 
ATOM     96  H24 non d ame     -12.432  13.774  66.937  0.00  0.00     0.028 H 
ATOM     97  H25 non d ame     -11.612  14.599  65.590  0.00  0.00     0.028 H 
ATOM     98  H26 non d ame     -13.369  14.324  65.527  0.00  0.00     0.028 H 
ENDBRANCH  93  95
BRANCH  93  99
ATOM     99  C19 non d ame     -11.599  12.729  63.754  0.00  0.00    -0.073 C 
ATOM    100  H27 non d ame     -10.686  12.141  63.649  0.00  0.00     0.028 H 
ATOM    101  H28 non d ame     -12.329  12.400  63.014  0.00  0.00     0.028 H 
ATOM    102  H29 non d ame     -11.372  13.783  63.596  0.00  0.00     0.028 H 
ENDBRANCH  93  99
ENDBRANCH  90  93
ENDBRANCH   1  90
TORSDOF 26
ENDMDL
MODEL 14
REMARK VINA RESULT:      -6.9      3.522     10.558
REMARK  26 active torsions:
REMARK  status: ('A' for Active; 'I' for Inactive)
REMARK    1  A    between atoms: C2_2  and  C3_3 
REMARK    2  A    between atoms: C4_6  and  C5_7 
REMARK       I    between atoms: C5_7  and  N2_9 
REMARK    3  A    between atoms: N2_9  and  C6_10 
REMARK    4  A    between atoms: C6_10  and  C7_11 
REMARK    5  A    between atoms: C6_10  and  C8_13 
REMARK       I    between atoms: C7_11  and  N3_14 
REMARK    6  A    between atoms: N3_14  and  C9_15 
REMARK    7  A    between atoms: C9_15  and  C10_16 
REMARK    8  A    between atoms: C9_15  and  C11_18 
REMARK       I    between atoms: C10_16  and  N4_21 
REMARK    9  A    between atoms: C11_18  and  C12_19 
REMARK   10  A    between atoms: C11_18  and  C13_20 
REMARK   11  A    between atoms: N4_21  and  C14_22 
REMARK   12  A    between atoms: C14_22  and  C15_23 
REMARK   13  A    between atoms: C14_22  and  C16_25 
REMARK       I    between atoms: C15_23  and  N6_40 
REMARK   14  A    between atoms: C16_25  and  C17_26 
REMARK   15  A    between atoms: C17_26  and  C18_27 
REMARK   16  A    between atoms: C17_26  and  C19_28 
REMARK   17  A    between atoms: C20_29  and  C21_30 
REMARK   18  A    between atoms: C20_29  and  C24_33 
REMARK   19  A    between atoms: C20_29  and  N6_40 
REMARK   20  A    between atoms: C21_30  and  C22_31 
REMARK   21  A    between atoms: C22_31  and  C23_32 
REMARK   22  A    between atoms: C23_32  and  O8_43 
REMARK   23  A    between atoms: C24_33  and  C25_34 
REMARK   24  A    between atoms: C28_38  and  O6_39 
REMARK   25  A    between atoms: C29_42  and  O8_43 
REMARK   26  A    between atoms: C29_42  and  C35_49 
ROOT
ATOM      1  C14 non d ame      -7.937   8.447  63.964  0.00  0.00     0.089 C 
ATOM      2  H20 non d ame      -7.957   8.723  62.909  0.00  0.00     0.087 H 
ENDROOT
BRANCH   1   3
ATOM      3  N4  non d ame      -8.838   9.346  64.669  0.00  0.00    -0.346 N 
ATOM      4  C10 non d ame      -9.455  10.522  63.954  0.00  0.00     0.241 C 
ATOM      5  O4  non d ame      -9.209  10.725  62.811  0.00  0.00    -0.271 OA
ATOM      6  H19 non d ame      -9.032   9.157  65.643  0.00  0.00     0.163 HD
BRANCH   4   7
ATOM      7  C9  non d ame     -10.389  11.440  64.698  0.00  0.00     0.092 C 
ATOM      8  H11 non d ame     -11.063  10.843  65.313  0.00  0.00     0.088 H 
BRANCH   7   9
ATOM      9  N3  non d ame      -9.616  12.293  65.605  0.00  0.00    -0.346 N 
ATOM     10  C7  non d ame      -9.335  11.848  66.949  0.00  0.00     0.240 C 
ATOM     11  O3  non d ame      -9.725  10.808  67.316  0.00  0.00    -0.271 OA
ATOM     12  H10 non d ame      -9.275  13.194  65.303  0.00  0.00     0.163 HD
BRANCH  10  13
ATOM     13  C6  non d ame      -8.515  12.763  67.911  0.00  0.00     0.086 C 
ATOM     14  H6  non d ame      -8.059  13.611  67.400  0.00  0.00     0.086 H 
BRANCH  13  15
ATOM     15  N2  non d ame      -9.410  13.313  68.915  0.00  0.00    -0.343 N 
ATOM     16  C5  non d ame     -10.302  14.419  68.558  0.00  0.00     0.273 C 
ATOM     17  O2  non d ame     -10.289  14.860  67.461  0.00  0.00    -0.266 OA
ATOM     18  H5  non d ame      -9.412  12.932  69.851  0.00  0.00     0.163 HD
BRANCH  16  19
ATOM     19  C4  non d ame     -11.254  15.010  69.609  0.00  0.00     0.154 A 
ATOM     20  C1  non d ame     -12.468  14.432  70.098  0.00  0.00    -0.017 A 
ATOM     21  C2  non d ame     -12.960  15.362  71.041  0.00  0.00     0.077 A 
ATOM     22  H1  non d ame     -12.923  13.483  69.812  0.00  0.00     0.091 H 
ATOM     23  O1  non d ame     -12.119  16.353  71.082  0.00  0.00    -0.218 OA
ATOM     24  N1  non d ame     -11.115  16.171  70.255  0.00  0.00    -0.123 NA
BRANCH  21  25
ATOM     25  C3  non d ame     -14.238  15.227  71.858  0.00  0.00    -0.029 C 
ATOM     26  H2  non d ame     -15.100  15.247  71.191  0.00  0.00     0.036 H 
ATOM     27  H3  non d ame     -14.222  14.284  72.404  0.00  0.00     0.036 H 
ATOM     28  H4  non d ame     -14.307  16.055  72.565  0.00  0.00     0.036 H 
ENDBRANCH  21  25
ENDBRANCH  16  19
ENDBRANCH  13  15
BRANCH  13  29
ATOM     29  C8  non d ame      -7.430  11.953  68.574  0.00  0.00    -0.049 C 
ATOM     30  H7  non d ame      -7.271  11.031  68.015  0.00  0.00     0.030 H 
ATOM     31  H8  non d ame      -6.506  12.531  68.593  0.00  0.00     0.030 H 
ATOM     32  H9  non d ame      -7.729  11.712  69.594  0.00  0.00     0.030 H 
ENDBRANCH  13  29
ENDBRANCH  10  13
ENDBRANCH   7   9
BRANCH   7  33
ATOM     33  C11 non d ame     -11.158  12.332  63.681  0.00  0.00    -0.033 C 
ATOM     34  H12 non d ame     -10.553  12.397  62.777  0.00  0.00     0.042 H 
BRANCH  33  35
ATOM     35  C12 non d ame     -12.526  11.692  63.284  0.00  0.00    -0.071 C 
ATOM     36  H13 non d ame     -12.469  11.319  62.262  0.00  0.00     0.028 H 
ATOM     37  H14 non d ame     -12.750  10.867  63.960  0.00  0.00     0.028 H 
ATOM     38  H15 non d ame     -13.311  12.444  63.354  0.00  0.00     0.028 H 
ENDBRANCH  33  35
BRANCH  33  39
ATOM     39  C13 non d ame     -11.351  13.779  64.239  0.00  0.00    -0.071 C 
ATOM     40  H16 non d ame     -10.452  14.084  64.774  0.00  0.00     0.028 H 
ATOM     41  H17 non d ame     -11.533  14.466  63.412  0.00  0.00     0.028 H 
ATOM     42  H18 non d ame     -12.202  13.795  64.919  0.00  0.00     0.028 H 
ENDBRANCH  33  39
ENDBRANCH   7  33
ENDBRANCH   4   7
ENDBRANCH   1   3
BRANCH   1  43
ATOM     43  C15 non d ame      -8.415   6.985  64.197  0.00  0.00     0.240 C 
ATOM     44  O5  non d ame      -8.358   6.195  63.310  0.00  0.00    -0.271 OA
ATOM     45  N6  non d ame      -8.936   6.566  65.530  0.00  0.00    -0.355 N 
ATOM     46  H46 non d ame      -8.985   7.226  66.292  0.00  0.00     0.162 HD
BRANCH  45  47
ATOM     47  C20 non d ame      -9.385   5.172  65.736  0.00  0.00     0.013 C 
ATOM     48  H30 non d ame      -9.653   4.758  64.763  0.00  0.00     0.072 H 
BRANCH  47  49
ATOM     49  C21 non d ame     -10.590   5.165  66.649  0.00  0.00    -0.038 C 
ATOM     50  H31 non d ame     -11.455   5.295  65.997  0.00  0.00     0.036 H 
ATOM     51  H32 non d ame     -10.495   4.264  67.255  0.00  0.00     0.036 H 
BRANCH  49  52
ATOM     52  C22 non d ame     -10.603   6.354  67.634  0.00  0.00     0.018 C 
ATOM     53  H33 non d ame      -9.774   6.995  67.333  0.00  0.00     0.048 H 
ATOM     54  H34 non d ame     -11.623   6.739  67.619  0.00  0.00     0.048 H 
BRANCH  52  55
ATOM     55  C23 non d ame     -10.319   5.950  69.107  0.00  0.00     0.259 C 
ATOM     56  O7  non d ame     -10.464   4.826  69.463  0.00  0.00    -0.265 OA
BRANCH  55  57
ATOM     57  O8  non d ame      -9.895   6.943  70.033  0.00  0.00    -0.317 OA
BRANCH  57  58
ATOM     58  C29 non d ame     -10.085   8.285  69.575  0.00  0.00     0.052 C 
ATOM     59  H47 non d ame      -9.152   8.805  69.789  0.00  0.00     0.082 H 
ATOM     60  H48 non d ame     -10.438   8.199  68.548  0.00  0.00     0.082 H 
BRANCH  58  61
ATOM     61  C35 non d ame     -11.212   8.927  70.429  0.00  0.00    -0.034 A 
ATOM     62  C30 non d ame     -11.524  10.273  70.271  0.00  0.00    -0.075 A 
ATOM     63  C31 non d ame     -12.536  10.850  71.037  0.00  0.00    -0.082 A 
ATOM     64  H49 non d ame     -10.977  10.876  69.546  0.00  0.00     0.084 H 
ATOM     65  C32 non d ame     -13.234  10.075  71.967  0.00  0.00    -0.083 A 
ATOM     66  H50 non d ame     -12.780  11.904  70.909  0.00  0.00     0.083 H 
ATOM     67  C33 non d ame     -12.916   8.733  72.124  0.00  0.00    -0.082 A 
ATOM     68  H51 non d ame     -14.027  10.518  72.571  0.00  0.00     0.083 H 
ATOM     69  C34 non d ame     -11.908   8.152  71.358  0.00  0.00    -0.075 A 
ATOM     70  H52 non d ame     -13.461   8.131  72.852  0.00  0.00     0.083 H 
ATOM     71  H53 non d ame     -11.665   7.096  71.486  0.00  0.00     0.084 H 
ENDBRANCH  58  61
ENDBRANCH  57  58
ENDBRANCH  55  57
ENDBRANCH  52  55
ENDBRANCH  49  52
ENDBRANCH  47  49
BRANCH  47  72
ATOM     72  C24 non d ame      -8.261   4.355  66.369  0.00  0.00    -0.039 C 
ATOM     73  H35 non d ame      -8.714   3.851  67.223  0.00  0.00     0.036 H 
ATOM     74  H36 non d ame      -7.833   3.770  65.555  0.00  0.00     0.036 H 
BRANCH  72  75
ATOM     75  C25 non d ame      -7.095   5.294  66.939  0.00  0.00    -0.001 C 
ATOM     76  C26 non d ame      -5.736   5.114  66.030  0.00  0.00    -0.035 C 
ATOM     77  C27 non d ame      -4.692   4.856  66.854  0.00  0.00     0.085 C 
ATOM     78  H38 non d ame      -5.810   4.212  65.423  0.00  0.00     0.036 H 
ATOM     79  H39 non d ame      -5.467   6.063  65.566  0.00  0.00     0.036 H 
ATOM     80  N5  non d ame      -5.269   4.521  68.207  0.00  0.00    -0.049 N 
ATOM     81  H40 non d ame      -4.209   3.969  66.443  0.00  0.00     0.075 H 
ATOM     82  H41 non d ame      -4.140   5.793  66.925  0.00  0.00     0.075 H 
ATOM     83  C28 non d ame      -6.811   4.997  68.163  0.00  0.00     0.193 C 
ATOM     84  H42 non d ame      -5.245   3.515  68.288  0.00  0.00     0.280 HD
ATOM     85  H43 non d ame      -4.776   5.093  68.878  0.00  0.00     0.280 HD
ATOM     86  H44 non d ame      -7.123   5.912  68.666  0.00  0.00     0.129 H 
ATOM     87  H37 non d ame      -7.437   6.313  67.121  0.00  0.00     0.046 H 
BRANCH  83  88
ATOM     88  O6  non d ame      -7.659   3.969  68.678  0.00  0.00    -0.369 OA
ATOM     89  H45 non d ame      -8.482   4.357  68.983  0.00  0.00     0.212 HD
ENDBRANCH  83  88
ENDBRANCH  72  75
ENDBRANCH  47  72
ENDBRANCH  45  47
ENDBRANCH   1  43
BRANCH   1  90
ATOM     90  C16 non d ame      -6.531   8.619  64.515  0.00  0.00    -0.035 C 
ATOM     91  H21 non d ame      -6.529   9.595  65.002  0.00  0.00     0.037 H 
ATOM     92  H22 non d ame      -6.338   7.719  65.100  0.00  0.00     0.037 H 
BRANCH  90  93
ATOM     93  C17 non d ame      -5.428   8.674  63.412  0.00  0.00    -0.059 C 
ATOM     94  H23 non d ame      -4.628   9.319  63.775  0.00  0.00     0.038 H 
BRANCH  93  95
ATOM     95  C18 non d ame      -4.811   7.267  63.124  0.00  0.00    -0.073 C 
ATOM     96  H24 non d ame      -3.724   7.346  63.097  0.00  0.00     0.028 H 
ATOM     97  H25 non d ame      -5.106   6.574  63.912  0.00  0.00     0.028 H 
ATOM     98  H26 non d ame      -5.173   6.901  62.164  0.00  0.00     0.028 H 
ENDBRANCH  93  95
BRANCH  93  99
ATOM     99  C19 non d ame      -5.971   9.303  62.126  0.00  0.00    -0.073 C 
ATOM    100  H27 non d ame      -7.008   8.999  61.983  0.00  0.00     0.028 H 
ATOM    101  H28 non d ame      -5.917  10.389  62.203  0.00  0.00     0.028 H 
ATOM    102  H29 non d ame      -5.374   8.969  61.278  0.00  0.00     0.028 H 
ENDBRANCH  93  99
ENDBRANCH  90  93
ENDBRANCH   1  90
TORSDOF 26
ENDMDL
MODEL 15
REMARK VINA RESULT:      -6.8      3.345     10.422
REMARK  26 active torsions:
REMARK  status: ('A' for Active; 'I' for Inactive)
REMARK    1  A    between atoms: C2_2  and  C3_3 
REMARK    2  A    between atoms: C4_6  and  C5_7 
REMARK       I    between atoms: C5_7  and  N2_9 
REMARK    3  A    between atoms: N2_9  and  C6_10 
REMARK    4  A    between atoms: C6_10  and  C7_11 
REMARK    5  A    between atoms: C6_10  and  C8_13 
REMARK       I    between atoms: C7_11  and  N3_14 
REMARK    6  A    between atoms: N3_14  and  C9_15 
REMARK    7  A    between atoms: C9_15  and  C10_16 
REMARK    8  A    between atoms: C9_15  and  C11_18 
REMARK       I    between atoms: C10_16  and  N4_21 
REMARK    9  A    between atoms: C11_18  and  C12_19 
REMARK   10  A    between atoms: C11_18  and  C13_20 
REMARK   11  A    between atoms: N4_21  and  C14_22 
REMARK   12  A    between atoms: C14_22  and  C15_23 
REMARK   13  A    between atoms: C14_22  and  C16_25 
REMARK       I    between atoms: C15_23  and  N6_40 
REMARK   14  A    between atoms: C16_25  and  C17_26 
REMARK   15  A    between atoms: C17_26  and  C18_27 
REMARK   16  A    between atoms: C17_26  and  C19_28 
REMARK   17  A    between atoms: C20_29  and  C21_30 
REMARK   18  A    between atoms: C20_29  and  C24_33 
REMARK   19  A    between atoms: C20_29  and  N6_40 
REMARK   20  A    between atoms: C21_30  and  C22_31 
REMARK   21  A    between atoms: C22_31  and  C23_32 
REMARK   22  A    between atoms: C23_32  and  O8_43 
REMARK   23  A    between atoms: C24_33  and  C25_34 
REMARK   24  A    between atoms: C28_38  and  O6_39 
REMARK   25  A    between atoms: C29_42  and  O8_43 
REMARK   26  A    between atoms: C29_42  and  C35_49 
ROOT
ATOM      1  C14 non d ame      -8.033   9.617  66.638  0.00  0.00     0.089 C 
ATOM      2  H20 non d ame      -8.244   8.901  65.844  0.00  0.00     0.087 H 
ENDROOT
BRANCH   1   3
ATOM      3  N4  non d ame      -8.718  10.857  66.303  0.00  0.00    -0.346 N 
ATOM      4  C10 non d ame     -10.131  10.829  65.778  0.00  0.00     0.241 C 
ATOM      5  O4  non d ame     -10.696   9.796  65.630  0.00  0.00    -0.271 OA
ATOM      6  H19 non d ame      -8.218  11.725  66.434  0.00  0.00     0.163 HD
BRANCH   4   7
ATOM      7  C9  non d ame     -10.825  12.122  65.441  0.00  0.00     0.092 C 
ATOM      8  H11 non d ame     -11.876  12.048  65.721  0.00  0.00     0.088 H 
BRANCH   7   9
ATOM      9  N3  non d ame     -10.242  13.211  66.231  0.00  0.00    -0.346 N 
ATOM     10  C7  non d ame     -10.884  13.641  67.450  0.00  0.00     0.240 C 
ATOM     11  O3  non d ame     -11.870  13.123  67.808  0.00  0.00    -0.271 OA
ATOM     12  H10 non d ame      -9.392  13.668  65.934  0.00  0.00     0.163 HD
BRANCH  10  13
ATOM     13  C6  non d ame     -10.260  14.802  68.285  0.00  0.00     0.086 C 
ATOM     14  H6  non d ame     -10.596  15.785  67.957  0.00  0.00     0.086 H 
BRANCH  13  15
ATOM     15  N2  non d ame     -10.674  14.661  69.671  0.00  0.00    -0.343 N 
ATOM     16  C5  non d ame     -11.766  15.491  70.184  0.00  0.00     0.273 C 
ATOM     17  O2  non d ame     -12.302  16.271  69.476  0.00  0.00    -0.266 OA
ATOM     18  H5  non d ame     -10.209  13.995  70.270  0.00  0.00     0.163 HD
BRANCH  16  19
ATOM     19  C4  non d ame     -12.216  15.352  71.647  0.00  0.00     0.154 A 
ATOM     20  C1  non d ame     -11.983  16.276  72.715  0.00  0.00    -0.017 A 
ATOM     21  C2  non d ame     -12.595  15.688  73.844  0.00  0.00     0.077 A 
ATOM     22  H1  non d ame     -11.452  17.228  72.676  0.00  0.00     0.091 H 
ATOM     23  O1  non d ame     -13.116  14.560  73.459  0.00  0.00    -0.218 OA
ATOM     24  N1  non d ame     -12.908  14.342  72.181  0.00  0.00    -0.123 NA
BRANCH  21  25
ATOM     25  C3  non d ame     -12.637  16.269  75.252  0.00  0.00    -0.029 C 
ATOM     26  H2  non d ame     -13.398  17.047  75.302  0.00  0.00     0.036 H 
ATOM     27  H3  non d ame     -12.877  15.479  75.963  0.00  0.00     0.036 H 
ATOM     28  H4  non d ame     -11.664  16.696  75.498  0.00  0.00     0.036 H 
ENDBRANCH  21  25
ENDBRANCH  16  19
ENDBRANCH  13  15
BRANCH  13  29
ATOM     29  C8  non d ame      -8.756  14.743  68.187  0.00  0.00    -0.049 C 
ATOM     30  H7  non d ame      -8.360  14.160  69.018  0.00  0.00     0.030 H 
ATOM     31  H8  non d ame      -8.472  14.275  67.245  0.00  0.00     0.030 H 
ATOM     32  H9  non d ame      -8.351  15.754  68.228  0.00  0.00     0.030 H 
ENDBRANCH  13  29
ENDBRANCH  10  13
ENDBRANCH   7   9
BRANCH   7  33
ATOM     33  C11 non d ame     -10.644  12.430  63.926  0.00  0.00    -0.033 C 
ATOM     34  H12 non d ame     -10.149  13.398  63.844  0.00  0.00     0.042 H 
BRANCH  33  35
ATOM     35  C12 non d ame      -9.723  11.374  63.238  0.00  0.00    -0.071 C 
ATOM     36  H13 non d ame      -9.256  10.748  63.999  0.00  0.00     0.028 H 
ATOM     37  H14 non d ame     -10.320  10.751  62.573  0.00  0.00     0.028 H 
ATOM     38  H15 non d ame      -8.951  11.884  62.664  0.00  0.00     0.028 H 
ENDBRANCH  33  35
BRANCH  33  39
ATOM     39  C13 non d ame     -12.027  12.531  63.206  0.00  0.00    -0.071 C 
ATOM     40  H16 non d ame     -11.888  12.400  62.133  0.00  0.00     0.028 H 
ATOM     41  H17 non d ame     -12.691  11.753  63.584  0.00  0.00     0.028 H 
ATOM     42  H18 non d ame     -12.466  13.509  63.399  0.00  0.00     0.028 H 
ENDBRANCH  33  39
ENDBRANCH   7  33
ENDBRANCH   4   7
ENDBRANCH   1   3
BRANCH   1  43
ATOM     43  C15 non d ame      -8.547   9.126  68.022  0.00  0.00     0.240 C 
ATOM     44  O5  non d ame      -8.125   9.619  69.018  0.00  0.00    -0.271 OA
ATOM     45  N6  non d ame      -9.573   8.047  68.106  0.00  0.00    -0.355 N 
ATOM     46  H46 non d ame      -9.942   7.625  67.267  0.00  0.00     0.162 HD
BRANCH  45  47
ATOM     47  C20 non d ame     -10.052   7.593  69.429  0.00  0.00     0.013 C 
ATOM     48  H30 non d ame      -9.319   7.900  70.175  0.00  0.00     0.072 H 
BRANCH  47  49
ATOM     49  C21 non d ame     -10.183   6.087  69.423  0.00  0.00    -0.038 C 
ATOM     50  H31 non d ame     -10.978   5.857  70.132  0.00  0.00     0.036 H 
ATOM     51  H32 non d ame     -10.287   5.805  68.375  0.00  0.00     0.036 H 
BRANCH  49  52
ATOM     52  C22 non d ame      -8.915   5.373  69.942  0.00  0.00     0.018 C 
ATOM     53  H33 non d ame      -8.287   6.157  70.365  0.00  0.00     0.048 H 
ATOM     54  H34 non d ame      -9.273   4.560  70.575  0.00  0.00     0.048 H 
BRANCH  52  55
ATOM     55  C23 non d ame      -8.070   4.704  68.823  0.00  0.00     0.259 C 
ATOM     56  O7  non d ame      -7.809   3.546  68.875  0.00  0.00    -0.265 OA
BRANCH  55  57
ATOM     57  O8  non d ame      -7.600   5.495  67.738  0.00  0.00    -0.317 OA
BRANCH  57  58
ATOM     58  C29 non d ame      -8.202   5.177  66.481  0.00  0.00     0.052 C 
ATOM     59  H47 non d ame      -8.420   4.109  66.520  0.00  0.00     0.082 H 
ATOM     60  H48 non d ame      -9.013   5.893  66.353  0.00  0.00     0.082 H 
BRANCH  58  61
ATOM     61  C35 non d ame      -7.149   5.423  65.369  0.00  0.00    -0.034 A 
ATOM     62  C30 non d ame      -5.816   5.086  65.584  0.00  0.00    -0.075 A 
ATOM     63  C31 non d ame      -4.870   5.308  64.585  0.00  0.00    -0.082 A 
ATOM     64  H49 non d ame      -5.514   4.648  66.535  0.00  0.00     0.084 H 
ATOM     65  C32 non d ame      -5.259   5.872  63.367  0.00  0.00    -0.083 A 
ATOM     66  H50 non d ame      -3.827   5.041  64.756  0.00  0.00     0.083 H 
ATOM     67  C33 non d ame      -6.590   6.209  63.158  0.00  0.00    -0.082 A 
ATOM     68  H51 non d ame      -4.526   6.048  62.580  0.00  0.00     0.083 H 
ATOM     69  C34 non d ame      -7.539   5.988  64.153  0.00  0.00    -0.075 A 
ATOM     70  H52 non d ame      -6.890   6.651  62.207  0.00  0.00     0.083 H 
ATOM     71  H53 non d ame      -8.582   6.255  63.980  0.00  0.00     0.084 H 
ENDBRANCH  58  61
ENDBRANCH  57  58
ENDBRANCH  55  57
ENDBRANCH  52  55
ENDBRANCH  49  52
ENDBRANCH  47  49
BRANCH  47  72
ATOM     72  C24 non d ame     -11.411   8.222  69.730  0.00  0.00    -0.039 C 
ATOM     73  H35 non d ame     -11.819   8.508  68.761  0.00  0.00     0.036 H 
ATOM     74  H36 non d ame     -11.936   7.494  70.349  0.00  0.00     0.036 H 
BRANCH  72  75
ATOM     75  C25 non d ame     -11.265   9.562  70.596  0.00  0.00    -0.001 C 
ATOM     76  C26 non d ame     -12.346   9.548  71.835  0.00  0.00    -0.035 C 
ATOM     77  C27 non d ame     -13.040  10.711  71.822  0.00  0.00     0.085 C 
ATOM     78  H38 non d ame     -13.110   8.792  71.657  0.00  0.00     0.036 H 
ATOM     79  H39 non d ame     -11.820   9.577  72.790  0.00  0.00     0.036 H 
ATOM     80  N5  non d ame     -12.762  11.375  70.495  0.00  0.00    -0.049 N 
ATOM     81  H40 non d ame     -14.092  10.423  71.862  0.00  0.00     0.075 H 
ATOM     82  H41 non d ame     -12.610  11.316  72.619  0.00  0.00     0.075 H 
ATOM     83  C28 non d ame     -11.484  10.610  69.874  0.00  0.00     0.193 C 
ATOM     84  H42 non d ame     -13.564  11.191  69.909  0.00  0.00     0.280 HD
ATOM     85  H43 non d ame     -12.497  12.328  70.702  0.00  0.00     0.280 HD
ATOM     86  H44 non d ame     -10.497  11.074  69.895  0.00  0.00     0.129 H 
ATOM     87  H37 non d ame     -10.227   9.782  70.845  0.00  0.00     0.046 H 
BRANCH  83  88
ATOM     88  O6  non d ame     -11.723  10.282  68.505  0.00  0.00    -0.369 OA
ATOM     89  H45 non d ame     -10.938   9.875  68.131  0.00  0.00     0.212 HD
ENDBRANCH  83  88
ENDBRANCH  72  75
ENDBRANCH  47  72
ENDBRANCH  45  47
ENDBRANCH   1  43
BRANCH   1  90
ATOM     90  C16 non d ame      -6.538   9.880  66.712  0.00  0.00    -0.035 C 
ATOM     91  H21 non d ame      -6.338  10.626  65.943  0.00  0.00     0.037 H 
ATOM     92  H22 non d ame      -6.336  10.108  67.759  0.00  0.00     0.037 H 
BRANCH  90  93
ATOM     93  C17 non d ame      -5.664   8.635  66.356  0.00  0.00    -0.059 C 
ATOM     94  H23 non d ame      -6.324   7.880  65.928  0.00  0.00     0.038 H 
BRANCH  93  95
ATOM     95  C18 non d ame      -4.569   8.968  65.293  0.00  0.00    -0.073 C 
ATOM     96  H24 non d ame      -5.043   9.360  64.394  0.00  0.00     0.028 H 
ATOM     97  H25 non d ame      -3.885   9.714  65.699  0.00  0.00     0.028 H 
ATOM     98  H26 non d ame      -4.015   8.062  65.047  0.00  0.00     0.028 H 
ENDBRANCH  93  95
BRANCH  93  99
ATOM     99  C19 non d ame      -5.037   8.029  67.614  0.00  0.00    -0.073 C 
ATOM    100  H27 non d ame      -4.058   7.615  67.369  0.00  0.00     0.028 H 
ATOM    101  H28 non d ame      -4.923   8.805  68.372  0.00  0.00     0.028 H 
ATOM    102  H29 non d ame      -5.681   7.238  67.997  0.00  0.00     0.028 H 
ENDBRANCH  93  99
ENDBRANCH  90  93
ENDBRANCH   1  90
TORSDOF 26
ENDMDL
MODEL 16
REMARK VINA RESULT:      -6.8      2.388      4.120
REMARK  26 active torsions:
REMARK  status: ('A' for Active; 'I' for Inactive)
REMARK    1  A    between atoms: C2_2  and  C3_3 
REMARK    2  A    between atoms: C4_6  and  C5_7 
REMARK       I    between atoms: C5_7  and  N2_9 
REMARK    3  A    between atoms: N2_9  and  C6_10 
REMARK    4  A    between atoms: C6_10  and  C7_11 
REMARK    5  A    between atoms: C6_10  and  C8_13 
REMARK       I    between atoms: C7_11  and  N3_14 
REMARK    6  A    between atoms: N3_14  and  C9_15 
REMARK    7  A    between atoms: C9_15  and  C10_16 
REMARK    8  A    between atoms: C9_15  and  C11_18 
REMARK       I    between atoms: C10_16  and  N4_21 
REMARK    9  A    between atoms: C11_18  and  C12_19 
REMARK   10  A    between atoms: C11_18  and  C13_20 
REMARK   11  A    between atoms: N4_21  and  C14_22 
REMARK   12  A    between atoms: C14_22  and  C15_23 
REMARK   13  A    between atoms: C14_22  and  C16_25 
REMARK       I    between atoms: C15_23  and  N6_40 
REMARK   14  A    between atoms: C16_25  and  C17_26 
REMARK   15  A    between atoms: C17_26  and  C18_27 
REMARK   16  A    between atoms: C17_26  and  C19_28 
REMARK   17  A    between atoms: C20_29  and  C21_30 
REMARK   18  A    between atoms: C20_29  and  C24_33 
REMARK   19  A    between atoms: C20_29  and  N6_40 
REMARK   20  A    between atoms: C21_30  and  C22_31 
REMARK   21  A    between atoms: C22_31  and  C23_32 
REMARK   22  A    between atoms: C23_32  and  O8_43 
REMARK   23  A    between atoms: C24_33  and  C25_34 
REMARK   24  A    between atoms: C28_38  and  O6_39 
REMARK   25  A    between atoms: C29_42  and  O8_43 
REMARK   26  A    between atoms: C29_42  and  C35_49 
ROOT
ATOM      1  C14 non d ame     -11.907  14.532  70.117  0.00  0.00     0.089 C 
ATOM      2  H20 non d ame     -12.881  14.571  69.630  0.00  0.00     0.087 H 
ENDROOT
BRANCH   1   3
ATOM      3  N4  non d ame     -11.605  13.133  70.382  0.00  0.00    -0.346 N 
ATOM      4  C10 non d ame     -11.699  12.112  69.276  0.00  0.00     0.241 C 
ATOM      5  O4  non d ame     -12.023  12.439  68.182  0.00  0.00    -0.271 OA
ATOM      6  H19 non d ame     -11.333  12.875  71.320  0.00  0.00     0.163 HD
BRANCH   4   7
ATOM      7  C9  non d ame     -11.377  10.669  69.567  0.00  0.00     0.092 C 
ATOM      8  H11 non d ame     -11.862  10.037  68.822  0.00  0.00     0.088 H 
BRANCH   7   9
ATOM      9  N3  non d ame      -9.932  10.456  69.443  0.00  0.00    -0.346 N 
ATOM     10  C7  non d ame      -9.383   9.947  68.210  0.00  0.00     0.240 C 
ATOM     11  O3  non d ame     -10.088   9.704  67.308  0.00  0.00    -0.271 OA
ATOM     12  H10 non d ame      -9.311  10.660  70.212  0.00  0.00     0.163 HD
BRANCH  10  13
ATOM     13  C6  non d ame      -7.844   9.719  68.085  0.00  0.00     0.086 C 
ATOM     14  H6  non d ame      -7.383  10.359  67.332  0.00  0.00     0.086 H 
BRANCH  13  15
ATOM     15  N2  non d ame      -7.214  10.048  69.353  0.00  0.00    -0.343 N 
ATOM     16  C5  non d ame      -6.278  11.172  69.423  0.00  0.00     0.273 C 
ATOM     17  O2  non d ame      -6.037  11.804  68.454  0.00  0.00    -0.266 OA
ATOM     18  H5  non d ame      -7.424   9.501  70.176  0.00  0.00     0.163 HD
BRANCH  16  19
ATOM     19  C4  non d ame      -5.606  11.532  70.758  0.00  0.00     0.154 A 
ATOM     20  C1  non d ame      -5.003  12.780  71.113  0.00  0.00    -0.017 A 
ATOM     21  C2  non d ame      -4.537  12.595  72.434  0.00  0.00     0.077 A 
ATOM     22  H1  non d ame      -4.916  13.681  70.506  0.00  0.00     0.091 H 
ATOM     23  O1  non d ame      -4.844  11.381  72.787  0.00  0.00    -0.218 OA
ATOM     24  N1  non d ame      -5.468  10.741  71.825  0.00  0.00    -0.123 NA
BRANCH  21  25
ATOM     25  C3  non d ame      -3.812  13.628  73.287  0.00  0.00    -0.029 C 
ATOM     26  H2  non d ame      -4.454  14.498  73.430  0.00  0.00     0.036 H 
ATOM     27  H3  non d ame      -3.569  13.192  74.256  0.00  0.00     0.036 H 
ATOM     28  H4  non d ame      -2.893  13.933  72.786  0.00  0.00     0.036 H 
ENDBRANCH  21  25
ENDBRANCH  16  19
ENDBRANCH  13  15
BRANCH  13  29
ATOM     29  C8  non d ame      -7.574   8.279  67.732  0.00  0.00    -0.049 C 
ATOM     30  H7  non d ame      -7.670   8.144  66.654  0.00  0.00     0.030 H 
ATOM     31  H8  non d ame      -6.564   8.012  68.043  0.00  0.00     0.030 H 
ATOM     32  H9  non d ame      -8.293   7.639  68.243  0.00  0.00     0.030 H 
ENDBRANCH  13  29
ENDBRANCH  10  13
ENDBRANCH   7   9
BRANCH   7  33
ATOM     33  C11 non d ame     -11.828  10.319  71.015  0.00  0.00    -0.033 C 
ATOM     34  H12 non d ame     -11.587  11.171  71.650  0.00  0.00     0.042 H 
BRANCH  33  35
ATOM     35  C12 non d ame     -13.371  10.098  71.092  0.00  0.00    -0.071 C 
ATOM     36  H13 non d ame     -13.625   9.144  70.629  0.00  0.00     0.028 H 
ATOM     37  H14 non d ame     -13.685  10.089  72.136  0.00  0.00     0.028 H 
ATOM     38  H15 non d ame     -13.880  10.904  70.566  0.00  0.00     0.028 H 
ENDBRANCH  33  35
BRANCH  33  39
ATOM     39  C13 non d ame     -11.050   9.077  71.558  0.00  0.00    -0.071 C 
ATOM     40  H16 non d ame     -10.630   8.518  70.722  0.00  0.00     0.028 H 
ATOM     41  H17 non d ame     -10.246   9.411  72.214  0.00  0.00     0.028 H 
ATOM     42  H18 non d ame     -11.733   8.437  72.117  0.00  0.00     0.028 H 
ENDBRANCH  33  39
ENDBRANCH   7  33
ENDBRANCH   4   7
ENDBRANCH   1   3
BRANCH   1  43
ATOM     43  C15 non d ame     -10.779  15.122  69.223  0.00  0.00     0.240 C 
ATOM     44  O5  non d ame      -9.748  15.453  69.713  0.00  0.00    -0.271 OA
ATOM     45  N6  non d ame     -10.981  15.266  67.753  0.00  0.00    -0.355 N 
ATOM     46  H46 non d ame     -11.851  14.984  67.324  0.00  0.00     0.162 HD
BRANCH  45  47
ATOM     47  C20 non d ame      -9.899  15.827  66.916  0.00  0.00     0.013 C 
ATOM     48  H30 non d ame      -8.947  15.505  67.338  0.00  0.00     0.072 H 
BRANCH  47  49
ATOM     49  C21 non d ame      -9.987  17.336  66.930  0.00  0.00    -0.038 C 
ATOM     50  H31 non d ame     -10.695  17.598  66.144  0.00  0.00     0.036 H 
ATOM     51  H32 non d ame     -10.195  17.609  67.965  0.00  0.00     0.036 H 
BRANCH  49  52
ATOM     52  C22 non d ame      -8.652  18.018  66.560  0.00  0.00     0.018 C 
ATOM     53  H33 non d ame      -7.994  17.865  67.415  0.00  0.00     0.048 H 
ATOM     54  H34 non d ame      -8.378  17.619  65.583  0.00  0.00     0.048 H 
BRANCH  52  55
ATOM     55  C23 non d ame      -8.765  19.557  66.376  0.00  0.00     0.259 C 
ATOM     56  O7  non d ame      -9.799  20.054  66.066  0.00  0.00    -0.265 OA
BRANCH  55  57
ATOM     57  O8  non d ame      -7.613  20.368  66.570  0.00  0.00    -0.317 OA
BRANCH  57  58
ATOM     58  C29 non d ame      -6.375  19.677  66.379  0.00  0.00     0.052 C 
ATOM     59  H47 non d ame      -5.638  20.223  66.969  0.00  0.00     0.082 H 
ATOM     60  H48 non d ame      -6.584  18.631  66.601  0.00  0.00     0.082 H 
BRANCH  58  61
ATOM     61  C35 non d ame      -5.988  19.793  64.881  0.00  0.00    -0.034 A 
ATOM     62  C30 non d ame      -6.350  20.922  64.153  0.00  0.00    -0.075 A 
ATOM     63  C31 non d ame      -6.003  21.026  62.807  0.00  0.00    -0.082 A 
ATOM     64  H49 non d ame      -6.906  21.725  64.637  0.00  0.00     0.084 H 
ATOM     65  C32 non d ame      -5.292  19.994  62.188  0.00  0.00    -0.083 A 
ATOM     66  H50 non d ame      -6.287  21.913  62.240  0.00  0.00     0.083 H 
ATOM     67  C33 non d ame      -4.936  18.868  62.917  0.00  0.00    -0.082 A 
ATOM     68  H51 non d ame      -5.016  20.068  61.136  0.00  0.00     0.083 H 
ATOM     69  C34 non d ame      -5.279  18.761  64.263  0.00  0.00    -0.075 A 
ATOM     70  H52 non d ame      -4.383  18.064  62.431  0.00  0.00     0.083 H 
ATOM     71  H53 non d ame      -4.994  17.874  64.830  0.00  0.00     0.084 H 
ENDBRANCH  58  61
ENDBRANCH  57  58
ENDBRANCH  55  57
ENDBRANCH  52  55
ENDBRANCH  49  52
ENDBRANCH  47  49
BRANCH  47  72
ATOM     72  C24 non d ame     -10.040  15.322  65.481  0.00  0.00    -0.039 C 
ATOM     73  H35 non d ame     -10.141  16.217  64.867  0.00  0.00     0.036 H 
ATOM     74  H36 non d ame      -9.198  14.647  65.327  0.00  0.00     0.036 H 
BRANCH  72  75
ATOM     75  C25 non d ame     -11.377  14.461  65.285  0.00  0.00    -0.001 C 
ATOM     76  C26 non d ame     -10.999  12.954  64.747  0.00  0.00    -0.035 C 
ATOM     77  C27 non d ame     -11.744  12.683  63.649  0.00  0.00     0.085 C 
ATOM     78  H38 non d ame      -9.976  12.937  64.371  0.00  0.00     0.036 H 
ATOM     79  H39 non d ame     -11.327  12.206  65.469  0.00  0.00     0.036 H 
ATOM     80  N5  non d ame     -12.356  13.987  63.198  0.00  0.00    -0.049 N 
ATOM     81  H40 non d ame     -11.036  12.341  62.893  0.00  0.00     0.075 H 
ATOM     82  H41 non d ame     -12.537  12.019  63.993  0.00  0.00     0.075 H 
ATOM     83  C28 non d ame     -12.168  15.015  64.428  0.00  0.00     0.193 C 
ATOM     84  H42 non d ame     -11.798  14.311  62.420  0.00  0.00     0.280 HD
ATOM     85  H43 non d ame     -13.343  13.812  63.073  0.00  0.00     0.280 HD
ATOM     86  H44 non d ame     -13.011  15.268  65.071  0.00  0.00     0.129 H 
ATOM     87  H37 non d ame     -12.041  14.528  66.147  0.00  0.00     0.046 H 
BRANCH  83  88
ATOM     88  O6  non d ame     -11.660  16.263  63.954  0.00  0.00    -0.369 OA
ATOM     89  H45 non d ame     -10.701  16.239  63.954  0.00  0.00     0.212 HD
ENDBRANCH  83  88
ENDBRANCH  72  75
ENDBRANCH  47  72
ENDBRANCH  45  47
ENDBRANCH   1  43
BRANCH   1  90
ATOM     90  C16 non d ame     -11.960  15.286  71.436  0.00  0.00    -0.035 C 
ATOM     91  H21 non d ame     -11.023  15.050  71.942  0.00  0.00     0.037 H 
ATOM     92  H22 non d ame     -12.189  16.318  71.170  0.00  0.00     0.037 H 
BRANCH  90  93
ATOM     93  C17 non d ame     -13.106  14.810  72.385  0.00  0.00    -0.059 C 
ATOM     94  H23 non d ame     -12.965  13.744  72.564  0.00  0.00     0.038 H 
BRANCH  93  95
ATOM     95  C18 non d ame     -13.065  15.535  73.768  0.00  0.00    -0.073 C 
ATOM     96  H24 non d ame     -14.082  15.689  74.127  0.00  0.00     0.028 H 
ATOM     97  H25 non d ame     -12.516  14.921  74.484  0.00  0.00     0.028 H 
ATOM     98  H26 non d ame     -12.567  16.498  73.659  0.00  0.00     0.028 H 
ENDBRANCH  93  95
BRANCH  93  99
ATOM     99  C19 non d ame     -14.473  14.983  71.719  0.00  0.00    -0.073 C 
ATOM    100  H27 non d ame     -15.235  14.486  72.320  0.00  0.00     0.028 H 
ATOM    101  H28 non d ame     -14.707  16.045  71.641  0.00  0.00     0.028 H 
ATOM    102  H29 non d ame     -14.451  14.542  70.723  0.00  0.00     0.028 H 
ENDBRANCH  93  99
ENDBRANCH  90  93
ENDBRANCH   1  90
TORSDOF 26
ENDMDL
MODEL 17
REMARK VINA RESULT:      -6.8      2.622      5.142
REMARK  26 active torsions:
REMARK  status: ('A' for Active; 'I' for Inactive)
REMARK    1  A    between atoms: C2_2  and  C3_3 
REMARK    2  A    between atoms: C4_6  and  C5_7 
REMARK       I    between atoms: C5_7  and  N2_9 
REMARK    3  A    between atoms: N2_9  and  C6_10 
REMARK    4  A    between atoms: C6_10  and  C7_11 
REMARK    5  A    between atoms: C6_10  and  C8_13 
REMARK       I    between atoms: C7_11  and  N3_14 
REMARK    6  A    between atoms: N3_14  and  C9_15 
REMARK    7  A    between atoms: C9_15  and  C10_16 
REMARK    8  A    between atoms: C9_15  and  C11_18 
REMARK       I    between atoms: C10_16  and  N4_21 
REMARK    9  A    between atoms: C11_18  and  C12_19 
REMARK   10  A    between atoms: C11_18  and  C13_20 
REMARK   11  A    between atoms: N4_21  and  C14_22 
REMARK   12  A    between atoms: C14_22  and  C15_23 
REMARK   13  A    between atoms: C14_22  and  C16_25 
REMARK       I    between atoms: C15_23  and  N6_40 
REMARK   14  A    between atoms: C16_25  and  C17_26 
REMARK   15  A    between atoms: C17_26  and  C18_27 
REMARK   16  A    between atoms: C17_26  and  C19_28 
REMARK   17  A    between atoms: C20_29  and  C21_30 
REMARK   18  A    between atoms: C20_29  and  C24_33 
REMARK   19  A    between atoms: C20_29  and  N6_40 
REMARK   20  A    between atoms: C21_30  and  C22_31 
REMARK   21  A    between atoms: C22_31  and  C23_32 
REMARK   22  A    between atoms: C23_32  and  O8_43 
REMARK   23  A    between atoms: C24_33  and  C25_34 
REMARK   24  A    between atoms: C28_38  and  O6_39 
REMARK   25  A    between atoms: C29_42  and  O8_43 
REMARK   26  A    between atoms: C29_42  and  C35_49 
ROOT
ATOM      1  C14 non d ame     -10.125  10.410  68.630  0.00  0.00     0.089 C 
ATOM      2  H20 non d ame      -9.433  10.489  69.469  0.00  0.00     0.087 H 
ENDROOT
BRANCH   1   3
ATOM      3  N4  non d ame     -10.676   9.063  68.642  0.00  0.00    -0.346 N 
ATOM      4  C10 non d ame     -10.014   7.976  69.451  0.00  0.00     0.241 C 
ATOM      5  O4  non d ame      -9.036   8.208  70.082  0.00  0.00    -0.271 OA
ATOM      6  H19 non d ame     -11.508   8.885  68.097  0.00  0.00     0.163 HD
BRANCH   4   7
ATOM      7  C9  non d ame     -10.602   6.589  69.457  0.00  0.00     0.092 C 
ATOM      8  H11 non d ame     -11.656   6.645  69.184  0.00  0.00     0.088 H 
BRANCH   7   9
ATOM      9  N3  non d ame      -9.934   5.771  68.440  0.00  0.00    -0.346 N 
ATOM     10  C7  non d ame     -10.363   5.838  67.065  0.00  0.00     0.240 C 
ATOM     11  O3  non d ame     -11.245   6.544  66.759  0.00  0.00    -0.271 OA
ATOM     12  H10 non d ame      -9.173   5.155  68.690  0.00  0.00     0.163 HD
BRANCH  10  13
ATOM     13  C6  non d ame      -9.650   4.962  65.988  0.00  0.00     0.086 C 
ATOM     14  H6  non d ame     -10.266   4.795  65.105  0.00  0.00     0.086 H 
BRANCH  13  15
ATOM     15  N2  non d ame      -8.453   5.652  65.537  0.00  0.00    -0.343 N 
ATOM     16  C5  non d ame      -8.087   5.608  64.119  0.00  0.00     0.273 C 
ATOM     17  O2  non d ame      -8.761   5.014  63.351  0.00  0.00    -0.266 OA
ATOM     18  H5  non d ame      -7.882   6.155  66.200  0.00  0.00     0.163 HD
BRANCH  16  19
ATOM     19  C4  non d ame      -6.825   6.334  63.627  0.00  0.00     0.154 A 
ATOM     20  C1  non d ame      -6.592   7.746  63.607  0.00  0.00    -0.017 A 
ATOM     21  C2  non d ame      -5.295   7.892  63.069  0.00  0.00     0.077 A 
ATOM     22  H1  non d ame      -7.262   8.542  63.934  0.00  0.00     0.091 H 
ATOM     23  O1  non d ame      -4.844   6.699  62.814  0.00  0.00    -0.218 OA
ATOM     24  N1  non d ame      -5.719   5.773  63.131  0.00  0.00    -0.123 NA
BRANCH  21  25
ATOM     25  C3  non d ame      -4.560   9.205  62.832  0.00  0.00    -0.029 C 
ATOM     26  H2  non d ame      -3.608   9.006  62.339  0.00  0.00     0.036 H 
ATOM     27  H3  non d ame      -5.168   9.853  62.199  0.00  0.00     0.036 H 
ATOM     28  H4  non d ame      -4.378   9.698  63.787  0.00  0.00     0.036 H 
ENDBRANCH  21  25
ENDBRANCH  16  19
ENDBRANCH  13  15
BRANCH  13  29
ATOM     29  C8  non d ame      -9.283   3.627  66.585  0.00  0.00    -0.049 C 
ATOM     30  H7  non d ame      -8.693   3.783  67.489  0.00  0.00     0.030 H 
ATOM     31  H8  non d ame     -10.191   3.078  66.834  0.00  0.00     0.030 H 
ATOM     32  H9  non d ame      -8.698   3.056  65.865  0.00  0.00     0.030 H 
ENDBRANCH  13  29
ENDBRANCH  10  13
ENDBRANCH   7   9
BRANCH   7  33
ATOM     33  C11 non d ame     -10.394   5.944  70.858  0.00  0.00    -0.033 C 
ATOM     34  H12 non d ame      -9.558   6.456  71.335  0.00  0.00     0.042 H 
BRANCH  33  35
ATOM     35  C12 non d ame     -11.647   6.142  71.767  0.00  0.00    -0.071 C 
ATOM     36  H13 non d ame     -11.934   5.185  72.204  0.00  0.00     0.028 H 
ATOM     37  H14 non d ame     -11.409   6.847  72.563  0.00  0.00     0.028 H 
ATOM     38  H15 non d ame     -12.471   6.531  71.170  0.00  0.00     0.028 H 
ENDBRANCH  33  35
BRANCH  33  39
ATOM     39  C13 non d ame     -10.022   4.431  70.727  0.00  0.00    -0.071 C 
ATOM     40  H16 non d ame     -10.923   3.852  70.528  0.00  0.00     0.028 H 
ATOM     41  H17 non d ame      -9.317   4.300  69.906  0.00  0.00     0.028 H 
ATOM     42  H18 non d ame      -9.567   4.088  71.656  0.00  0.00     0.028 H 
ENDBRANCH  33  39
ENDBRANCH   7  33
ENDBRANCH   4   7
ENDBRANCH   1   3
BRANCH   1  43
ATOM     43  C15 non d ame     -11.297  11.426  68.738  0.00  0.00     0.240 C 
ATOM     44  O5  non d ame     -12.357  11.158  68.271  0.00  0.00    -0.271 OA
ATOM     45  N6  non d ame     -11.101  12.731  69.431  0.00  0.00    -0.355 N 
ATOM     46  H46 non d ame     -10.207  12.968  69.836  0.00  0.00     0.162 HD
BRANCH  45  47
ATOM     47  C20 non d ame     -12.226  13.686  69.527  0.00  0.00     0.013 C 
ATOM     48  H30 non d ame     -13.028  13.326  68.883  0.00  0.00     0.072 H 
BRANCH  47  49
ATOM     49  C21 non d ame     -11.765  15.050  69.064  0.00  0.00    -0.038 C 
ATOM     50  H31 non d ame     -12.367  15.282  68.185  0.00  0.00     0.036 H 
ATOM     51  H32 non d ame     -11.814  15.691  69.944  0.00  0.00     0.036 H 
BRANCH  49  52
ATOM     52  C22 non d ame     -10.293  15.058  68.598  0.00  0.00     0.018 C 
ATOM     53  H33 non d ame      -9.738  15.578  69.380  0.00  0.00     0.048 H 
ATOM     54  H34 non d ame     -10.053  14.022  68.358  0.00  0.00     0.048 H 
BRANCH  52  55
ATOM     55  C23 non d ame     -10.053  15.867  67.293  0.00  0.00     0.259 C 
ATOM     56  O7  non d ame      -9.519  15.361  66.360  0.00  0.00    -0.265 OA
BRANCH  55  57
ATOM     57  O8  non d ame     -10.469  17.226  67.229  0.00  0.00    -0.317 OA
BRANCH  57  58
ATOM     58  C29 non d ame     -10.048  18.016  68.345  0.00  0.00     0.052 C 
ATOM     59  H47 non d ame     -10.869  18.705  68.544  0.00  0.00     0.082 H 
ATOM     60  H48 non d ame      -9.736  17.305  69.109  0.00  0.00     0.082 H 
BRANCH  58  61
ATOM     61  C35 non d ame      -8.809  18.841  67.907  0.00  0.00    -0.034 A 
ATOM     62  C30 non d ame      -8.710  19.310  66.601  0.00  0.00    -0.075 A 
ATOM     63  C31 non d ame      -7.597  20.051  66.207  0.00  0.00    -0.082 A 
ATOM     64  H49 non d ame      -9.505  19.098  65.886  0.00  0.00     0.084 H 
ATOM     65  C32 non d ame      -6.578  20.321  67.125  0.00  0.00    -0.083 A 
ATOM     66  H50 non d ame      -7.524  20.420  65.184  0.00  0.00     0.083 H 
ATOM     67  C33 non d ame      -6.679  19.848  68.426  0.00  0.00    -0.082 A 
ATOM     68  H51 non d ame      -5.705  20.900  66.826  0.00  0.00     0.083 H 
ATOM     69  C34 non d ame      -7.791  19.109  68.825  0.00  0.00    -0.075 A 
ATOM     70  H52 non d ame      -5.882  20.058  69.139  0.00  0.00     0.083 H 
ATOM     71  H53 non d ame      -7.864  18.741  69.849  0.00  0.00     0.084 H 
ENDBRANCH  58  61
ENDBRANCH  57  58
ENDBRANCH  55  57
ENDBRANCH  52  55
ENDBRANCH  49  52
ENDBRANCH  47  49
BRANCH  47  72
ATOM     72  C24 non d ame     -12.707  13.775  70.974  0.00  0.00    -0.039 C 
ATOM     73  H35 non d ame     -13.708  13.343  70.974  0.00  0.00     0.036 H 
ATOM     74  H36 non d ame     -11.917  13.318  71.570  0.00  0.00     0.036 H 
BRANCH  72  75
ATOM     75  C25 non d ame     -12.848  15.295  71.459  0.00  0.00    -0.001 C 
ATOM     76  C26 non d ame     -11.741  15.612  72.634  0.00  0.00    -0.035 C 
ATOM     77  C27 non d ame     -12.377  16.165  73.694  0.00  0.00     0.085 C 
ATOM     78  H38 non d ame     -11.343  14.680  73.034  0.00  0.00     0.036 H 
ATOM     79  H39 non d ame     -11.062  16.399  72.306  0.00  0.00     0.036 H 
ATOM     80  N5  non d ame     -13.857  15.954  73.481  0.00  0.00    -0.049 N 
ATOM     81  H40 non d ame     -12.057  15.586  74.561  0.00  0.00     0.075 H 
ATOM     82  H41 non d ame     -12.159  17.231  73.641  0.00  0.00     0.075 H 
ATOM     83  C28 non d ame     -14.026  15.527  71.934  0.00  0.00     0.193 C 
ATOM     84  H42 non d ame     -14.120  15.171  74.062  0.00  0.00     0.280 HD
ATOM     85  H43 non d ame     -14.296  16.853  73.617  0.00  0.00     0.280 HD
ATOM     86  H44 non d ame     -14.398  16.242  71.200  0.00  0.00     0.129 H 
ATOM     87  H37 non d ame     -12.897  15.993  70.623  0.00  0.00     0.046 H 
BRANCH  83  88
ATOM     88  O6  non d ame     -14.884  14.390  71.827  0.00  0.00    -0.369 OA
ATOM     89  H45 non d ame     -15.448  14.341  72.602  0.00  0.00     0.212 HD
ENDBRANCH  83  88
ENDBRANCH  72  75
ENDBRANCH  47  72
ENDBRANCH  45  47
ENDBRANCH   1  43
BRANCH   1  90
ATOM     90  C16 non d ame      -9.378  10.628  67.324  0.00  0.00    -0.035 C 
ATOM     91  H21 non d ame      -9.302   9.641  66.866  0.00  0.00     0.037 H 
ATOM     92  H22 non d ame      -9.917  11.425  66.812  0.00  0.00     0.037 H 
BRANCH  90  93
ATOM     93  C17 non d ame      -7.914  11.137  67.517  0.00  0.00    -0.059 C 
ATOM     94  H23 non d ame      -7.259  10.488  66.936  0.00  0.00     0.038 H 
BRANCH  93  95
ATOM     95  C18 non d ame      -7.725  12.597  66.992  0.00  0.00    -0.073 C 
ATOM     96  H24 non d ame      -6.754  12.975  67.313  0.00  0.00     0.028 H 
ATOM     97  H25 non d ame      -7.774  12.601  65.903  0.00  0.00     0.028 H 
ATOM     98  H26 non d ame      -8.514  13.233  67.395  0.00  0.00     0.028 H 
ENDBRANCH  93  95
BRANCH  93  99
ATOM     99  C19 non d ame      -7.485  11.025  68.982  0.00  0.00    -0.073 C 
ATOM    100  H27 non d ame      -6.770  11.816  69.213  0.00  0.00     0.028 H 
ATOM    101  H28 non d ame      -8.359  11.125  69.625  0.00  0.00     0.028 H 
ATOM    102  H29 non d ame      -7.019  10.054  69.151  0.00  0.00     0.028 H 
ENDBRANCH  93  99
ENDBRANCH  90  93
ENDBRANCH   1  90
TORSDOF 26
ENDMDL
MODEL 18
REMARK VINA RESULT:      -6.8      2.389      9.948
REMARK  26 active torsions:
REMARK  status: ('A' for Active; 'I' for Inactive)
REMARK    1  A    between atoms: C2_2  and  C3_3 
REMARK    2  A    between atoms: C4_6  and  C5_7 
REMARK       I    between atoms: C5_7  and  N2_9 
REMARK    3  A    between atoms: N2_9  and  C6_10 
REMARK    4  A    between atoms: C6_10  and  C7_11 
REMARK    5  A    between atoms: C6_10  and  C8_13 
REMARK       I    between atoms: C7_11  and  N3_14 
REMARK    6  A    between atoms: N3_14  and  C9_15 
REMARK    7  A    between atoms: C9_15  and  C10_16 
REMARK    8  A    between atoms: C9_15  and  C11_18 
REMARK       I    between atoms: C10_16  and  N4_21 
REMARK    9  A    between atoms: C11_18  and  C12_19 
REMARK   10  A    between atoms: C11_18  and  C13_20 
REMARK   11  A    between atoms: N4_21  and  C14_22 
REMARK   12  A    between atoms: C14_22  and  C15_23 
REMARK   13  A    between atoms: C14_22  and  C16_25 
REMARK       I    between atoms: C15_23  and  N6_40 
REMARK   14  A    between atoms: C16_25  and  C17_26 
REMARK   15  A    between atoms: C17_26  and  C18_27 
REMARK   16  A    between atoms: C17_26  and  C19_28 
REMARK   17  A    between atoms: C20_29  and  C21_30 
REMARK   18  A    between atoms: C20_29  and  C24_33 
REMARK   19  A    between atoms: C20_29  and  N6_40 
REMARK   20  A    between atoms: C21_30  and  C22_31 
REMARK   21  A    between atoms: C22_31  and  C23_32 
REMARK   22  A    between atoms: C23_32  and  O8_43 
REMARK   23  A    between atoms: C24_33  and  C25_34 
REMARK   24  A    between atoms: C28_38  and  O6_39 
REMARK   25  A    between atoms: C29_42  and  O8_43 
REMARK   26  A    between atoms: C29_42  and  C35_49 
ROOT
ATOM      1  C14 non d ame      -9.112  10.230  66.901  0.00  0.00     0.089 C 
ATOM      2  H20 non d ame      -9.803   9.560  66.388  0.00  0.00     0.087 H 
ENDROOT
BRANCH   1   3
ATOM      3  N4  non d ame      -9.767  11.524  67.026  0.00  0.00    -0.346 N 
ATOM      4  C10 non d ame     -11.249  11.604  67.296  0.00  0.00     0.241 C 
ATOM      5  O4  non d ame     -11.894  10.614  67.406  0.00  0.00    -0.271 OA
ATOM      6  H19 non d ame      -9.201  12.354  66.927  0.00  0.00     0.163 HD
BRANCH   4   7
ATOM      7  C9  non d ame     -11.909  12.951  67.429  0.00  0.00     0.092 C 
ATOM      8  H11 non d ame     -12.877  12.830  67.916  0.00  0.00     0.088 H 
BRANCH   7   9
ATOM      9  N3  non d ame     -11.095  13.813  68.291  0.00  0.00    -0.346 N 
ATOM     10  C7  non d ame     -11.702  14.493  69.409  0.00  0.00     0.240 C 
ATOM     11  O3  non d ame     -12.844  14.360  69.627  0.00  0.00    -0.271 OA
ATOM     12  H10 non d ame     -10.109  13.938  68.114  0.00  0.00     0.163 HD
BRANCH  10  13
ATOM     13  C6  non d ame     -10.830  15.411  70.322  0.00  0.00     0.086 C 
ATOM     14  H6  non d ame      -9.890  14.945  70.613  0.00  0.00     0.086 H 
BRANCH  13  15
ATOM     15  N2  non d ame     -10.487  16.617  69.587  0.00  0.00    -0.343 N 
ATOM     16  C5  non d ame      -9.280  16.636  68.756  0.00  0.00     0.273 C 
ATOM     17  O2  non d ame      -8.592  15.678  68.689  0.00  0.00    -0.266 OA
ATOM     18  H5  non d ame     -11.079  17.433  69.652  0.00  0.00     0.163 HD
BRANCH  16  19
ATOM     19  C4  non d ame      -8.906  17.904  67.973  0.00  0.00     0.154 A 
ATOM     20  C1  non d ame      -7.893  18.033  66.970  0.00  0.00    -0.017 A 
ATOM     21  C2  non d ame      -7.951  19.385  66.566  0.00  0.00     0.077 A 
ATOM     22  H1  non d ame      -7.219  17.263  66.593  0.00  0.00     0.091 H 
ATOM     23  O1  non d ame      -8.891  19.957  67.261  0.00  0.00    -0.218 OA
ATOM     24  N1  non d ame      -9.462  19.113  68.088  0.00  0.00    -0.123 NA
BRANCH  21  25
ATOM     25  C3  non d ame      -7.075  20.050  65.512  0.00  0.00    -0.029 C 
ATOM     26  H2  non d ame      -6.427  20.786  65.989  0.00  0.00     0.036 H 
ATOM     27  H3  non d ame      -6.464  19.294  65.019  0.00  0.00     0.036 H 
ATOM     28  H4  non d ame      -7.706  20.546  64.774  0.00  0.00     0.036 H 
ENDBRANCH  21  25
ENDBRANCH  16  19
ENDBRANCH  13  15
BRANCH  13  29
ATOM     29  C8  non d ame     -11.604  15.767  71.566  0.00  0.00    -0.049 C 
ATOM     30  H7  non d ame     -12.558  16.214  71.285  0.00  0.00     0.030 H 
ATOM     31  H8  non d ame     -11.783  14.867  72.153  0.00  0.00     0.030 H 
ATOM     32  H9  non d ame     -11.030  16.480  72.158  0.00  0.00     0.030 H 
ENDBRANCH  13  29
ENDBRANCH  10  13
ENDBRANCH   7   9
BRANCH   7  33
ATOM     33  C11 non d ame     -12.040  13.605  66.022  0.00  0.00    -0.033 C 
ATOM     34  H12 non d ame     -12.888  14.289  66.055  0.00  0.00     0.042 H 
BRANCH  33  35
ATOM     35  C12 non d ame     -10.774  14.446  65.666  0.00  0.00    -0.071 C 
ATOM     36  H13 non d ame     -10.448  14.201  64.655  0.00  0.00     0.028 H 
ATOM     37  H14 non d ame     -11.015  15.507  65.723  0.00  0.00     0.028 H 
ATOM     38  H15 non d ame      -9.975  14.216  66.371  0.00  0.00     0.028 H 
ENDBRANCH  33  35
BRANCH  33  39
ATOM     39  C13 non d ame     -12.329  12.527  64.929  0.00  0.00    -0.071 C 
ATOM     40  H16 non d ame     -13.385  12.557  64.660  0.00  0.00     0.028 H 
ATOM     41  H17 non d ame     -11.723  12.733  64.046  0.00  0.00     0.028 H 
ATOM     42  H18 non d ame     -12.081  11.540  65.318  0.00  0.00     0.028 H 
ENDBRANCH  33  39
ENDBRANCH   7  33
ENDBRANCH   4   7
ENDBRANCH   1   3
BRANCH   1  43
ATOM     43  C15 non d ame      -8.747   9.720  68.325  0.00  0.00     0.240 C 
ATOM     44  O5  non d ame      -7.728  10.061  68.831  0.00  0.00    -0.271 OA
ATOM     45  N6  non d ame      -9.673   8.812  69.060  0.00  0.00    -0.355 N 
ATOM     46  H46 non d ame     -10.544   8.519  68.642  0.00  0.00     0.162 HD
BRANCH  45  47
ATOM     47  C20 non d ame      -9.312   8.337  70.413  0.00  0.00     0.013 C 
ATOM     48  H30 non d ame      -8.261   8.569  70.581  0.00  0.00     0.072 H 
BRANCH  47  49
ATOM     49  C21 non d ame      -9.531   6.843  70.492  0.00  0.00    -0.038 C 
ATOM     50  H31 non d ame      -9.589   6.609  71.556  0.00  0.00     0.036 H 
ATOM     51  H32 non d ame     -10.380   6.634  69.841  0.00  0.00     0.036 H 
BRANCH  49  52
ATOM     52  C22 non d ame      -8.341   6.032  69.932  0.00  0.00     0.018 C 
ATOM     53  H33 non d ame      -7.530   6.749  69.804  0.00  0.00     0.048 H 
ATOM     54  H34 non d ame      -8.218   5.184  70.606  0.00  0.00     0.048 H 
BRANCH  52  55
ATOM     55  C23 non d ame      -8.604   5.427  68.525  0.00  0.00     0.259 C 
ATOM     56  O7  non d ame      -8.800   4.262  68.397  0.00  0.00    -0.265 OA
BRANCH  55  57
ATOM     57  O8  non d ame      -8.595   6.279  67.387  0.00  0.00    -0.317 OA
BRANCH  57  58
ATOM     58  C29 non d ame      -9.089   5.664  66.194  0.00  0.00     0.052 C 
ATOM     59  H47 non d ame      -9.264   4.619  66.452  0.00  0.00     0.082 H 
ATOM     60  H48 non d ame      -9.918   6.288  65.862  0.00  0.00     0.082 H 
BRANCH  58  61
ATOM     61  C35 non d ame      -7.968   5.725  65.123  0.00  0.00    -0.034 A 
ATOM     62  C30 non d ame      -8.295   5.733  63.771  0.00  0.00    -0.075 A 
ATOM     63  C31 non d ame      -7.288   5.787  62.809  0.00  0.00    -0.082 A 
ATOM     64  H49 non d ame      -9.341   5.696  63.466  0.00  0.00     0.084 H 
ATOM     65  C32 non d ame      -5.948   5.832  63.203  0.00  0.00    -0.083 A 
ATOM     66  H50 non d ame      -7.548   5.796  61.750  0.00  0.00     0.083 H 
ATOM     67  C33 non d ame      -5.626   5.820  64.553  0.00  0.00    -0.082 A 
ATOM     68  H51 non d ame      -5.155   5.875  62.457  0.00  0.00     0.083 H 
ATOM     69  C34 non d ame      -6.630   5.768  65.518  0.00  0.00    -0.075 A 
ATOM     70  H52 non d ame      -4.579   5.853  64.858  0.00  0.00     0.083 H 
ATOM     71  H53 non d ame      -6.368   5.760  66.577  0.00  0.00     0.084 H 
ENDBRANCH  58  61
ENDBRANCH  57  58
ENDBRANCH  55  57
ENDBRANCH  52  55
ENDBRANCH  49  52
ENDBRANCH  47  49
BRANCH  47  72
ATOM     72  C24 non d ame     -10.183   9.035  71.455  0.00  0.00    -0.039 C 
ATOM     73  H35 non d ame     -10.249   8.339  72.292  0.00  0.00     0.036 H 
ATOM     74  H36 non d ame      -9.732  10.018  71.598  0.00  0.00     0.036 H 
BRANCH  72  75
ATOM     75  C25 non d ame     -11.674   9.273  70.919  0.00  0.00    -0.001 C 
ATOM     76  C26 non d ame     -11.982  10.885  70.817  0.00  0.00    -0.035 C 
ATOM     77  C27 non d ame     -13.142  11.149  71.465  0.00  0.00     0.085 C 
ATOM     78  H38 non d ame     -11.240  11.444  71.386  0.00  0.00     0.036 H 
ATOM     79  H39 non d ame     -12.199  11.159  69.785  0.00  0.00     0.036 H 
ATOM     80  N5  non d ame     -13.484   9.923  72.276  0.00  0.00    -0.049 N 
ATOM     81  H40 non d ame     -12.917  11.973  72.143  0.00  0.00     0.075 H 
ATOM     82  H41 non d ame     -13.890  11.276  70.682  0.00  0.00     0.075 H 
ATOM     83  C28 non d ame     -12.545   8.738  71.709  0.00  0.00     0.193 C 
ATOM     84  H42 non d ame     -13.209  10.123  73.227  0.00  0.00     0.280 HD
ATOM     85  H43 non d ame     -14.446   9.698  72.065  0.00  0.00     0.280 HD
ATOM     86  H44 non d ame     -12.958   7.969  71.057  0.00  0.00     0.129 H 
ATOM     87  H37 non d ame     -11.898   8.668  70.040  0.00  0.00     0.046 H 
BRANCH  83  88
ATOM     88  O6  non d ame     -11.932   8.034  72.790  0.00  0.00    -0.369 OA
ATOM     89  H45 non d ame     -11.257   8.587  73.190  0.00  0.00     0.212 HD
ENDBRANCH  83  88
ENDBRANCH  72  75
ENDBRANCH  47  72
ENDBRANCH  45  47
ENDBRANCH   1  43
BRANCH   1  90
ATOM     90  C16 non d ame      -7.846  10.393  66.076  0.00  0.00    -0.035 C 
ATOM     91  H21 non d ame      -7.918  11.385  65.629  0.00  0.00     0.037 H 
ATOM     92  H22 non d ame      -7.026  10.161  66.756  0.00  0.00     0.037 H 
BRANCH  90  93
ATOM     93  C17 non d ame      -7.735   9.382  64.891  0.00  0.00    -0.059 C 
ATOM     94  H23 non d ame      -7.688   8.379  65.315  0.00  0.00     0.038 H 
BRANCH  93  95
ATOM     95  C18 non d ame      -8.979   9.441  63.948  0.00  0.00    -0.073 C 
ATOM     96  H24 non d ame      -9.875   9.183  64.512  0.00  0.00     0.028 H 
ATOM     97  H25 non d ame      -9.081  10.449  63.544  0.00  0.00     0.028 H 
ATOM     98  H26 non d ame      -8.848   8.734  63.129  0.00  0.00     0.028 H 
ENDBRANCH  93  95
BRANCH  93  99
ATOM     99  C19 non d ame      -6.442   9.604  64.102  0.00  0.00    -0.073 C 
ATOM    100  H27 non d ame      -6.567  10.455  63.432  0.00  0.00     0.028 H 
ATOM    101  H28 non d ame      -5.624   9.802  64.794  0.00  0.00     0.028 H 
ATOM    102  H29 non d ame      -6.215   8.712  63.518  0.00  0.00     0.028 H 
ENDBRANCH  93  99
ENDBRANCH  90  93
ENDBRANCH   1  90
TORSDOF 26
ENDMDL
MODEL 19
REMARK VINA RESULT:      -6.8      2.859      8.335
REMARK  26 active torsions:
REMARK  status: ('A' for Active; 'I' for Inactive)
REMARK    1  A    between atoms: C2_2  and  C3_3 
REMARK    2  A    between atoms: C4_6  and  C5_7 
REMARK       I    between atoms: C5_7  and  N2_9 
REMARK    3  A    between atoms: N2_9  and  C6_10 
REMARK    4  A    between atoms: C6_10  and  C7_11 
REMARK    5  A    between atoms: C6_10  and  C8_13 
REMARK       I    between atoms: C7_11  and  N3_14 
REMARK    6  A    between atoms: N3_14  and  C9_15 
REMARK    7  A    between atoms: C9_15  and  C10_16 
REMARK    8  A    between atoms: C9_15  and  C11_18 
REMARK       I    between atoms: C10_16  and  N4_21 
REMARK    9  A    between atoms: C11_18  and  C12_19 
REMARK   10  A    between atoms: C11_18  and  C13_20 
REMARK   11  A    between atoms: N4_21  and  C14_22 
REMARK   12  A    between atoms: C14_22  and  C15_23 
REMARK   13  A    between atoms: C14_22  and  C16_25 
REMARK       I    between atoms: C15_23  and  N6_40 
REMARK   14  A    between atoms: C16_25  and  C17_26 
REMARK   15  A    between atoms: C17_26  and  C18_27 
REMARK   16  A    between atoms: C17_26  and  C19_28 
REMARK   17  A    between atoms: C20_29  and  C21_30 
REMARK   18  A    between atoms: C20_29  and  C24_33 
REMARK   19  A    between atoms: C20_29  and  N6_40 
REMARK   20  A    between atoms: C21_30  and  C22_31 
REMARK   21  A    between atoms: C22_31  and  C23_32 
REMARK   22  A    between atoms: C23_32  and  O8_43 
REMARK   23  A    between atoms: C24_33  and  C25_34 
REMARK   24  A    between atoms: C28_38  and  O6_39 
REMARK   25  A    between atoms: C29_42  and  O8_43 
REMARK   26  A    between atoms: C29_42  and  C35_49 
ROOT
ATOM      1  C14 non d ame      -5.464  13.824  68.772  0.00  0.00     0.089 C 
ATOM      2  H20 non d ame      -4.382  13.938  68.702  0.00  0.00     0.087 H 
ENDROOT
BRANCH   1   3
ATOM      3  N4  non d ame      -6.058  15.136  68.558  0.00  0.00    -0.346 N 
ATOM      4  C10 non d ame      -5.294  16.206  67.821  0.00  0.00     0.241 C 
ATOM      5  O4  non d ame      -4.201  15.990  67.411  0.00  0.00    -0.271 OA
ATOM      6  H19 non d ame      -6.987  15.301  68.917  0.00  0.00     0.163 HD
BRANCH   4   7
ATOM      7  C9  non d ame      -5.926  17.556  67.604  0.00  0.00     0.092 C 
ATOM      8  H11 non d ame      -5.804  17.846  66.560  0.00  0.00     0.088 H 
BRANCH   7   9
ATOM      9  N3  non d ame      -7.366  17.470  67.864  0.00  0.00    -0.346 N 
ATOM     10  C7  non d ame      -8.307  17.884  66.853  0.00  0.00     0.240 C 
ATOM     11  O3  non d ame      -7.923  18.291  65.825  0.00  0.00    -0.271 OA
ATOM     12  H10 non d ame      -7.712  17.123  68.747  0.00  0.00     0.163 HD
BRANCH  10  13
ATOM     13  C6  non d ame      -9.838  17.793  67.137  0.00  0.00     0.086 C 
ATOM     14  H6  non d ame     -10.423  18.473  66.518  0.00  0.00     0.086 H 
BRANCH  13  15
ATOM     15  N2  non d ame     -10.296  16.449  66.826  0.00  0.00    -0.343 N 
ATOM     16  C5  non d ame     -10.861  16.168  65.504  0.00  0.00     0.273 C 
ATOM     17  O2  non d ame     -10.946  17.030  64.700  0.00  0.00    -0.266 OA
ATOM     18  H5  non d ame     -10.223  15.719  67.520  0.00  0.00     0.163 HD
BRANCH  16  19
ATOM     19  C4  non d ame     -11.348  14.751  65.161  0.00  0.00     0.154 A 
ATOM     20  C1  non d ame     -10.692  13.790  64.328  0.00  0.00    -0.017 A 
ATOM     21  C2  non d ame     -11.542  12.662  64.336  0.00  0.00     0.077 A 
ATOM     22  H1  non d ame      -9.745  13.895  63.799  0.00  0.00     0.091 H 
ATOM     23  O1  non d ame     -12.563  12.951  65.090  0.00  0.00    -0.218 OA
ATOM     24  N1  non d ame     -12.472  14.165  65.582  0.00  0.00    -0.123 NA
BRANCH  21  25
ATOM     25  C3  non d ame     -11.306  11.349  63.600  0.00  0.00    -0.029 C 
ATOM     26  H2  non d ame     -10.672  11.529  62.732  0.00  0.00     0.036 H 
ATOM     27  H3  non d ame     -10.816  10.641  64.268  0.00  0.00     0.036 H 
ATOM     28  H4  non d ame     -12.262  10.939  63.273  0.00  0.00     0.036 H 
ENDBRANCH  21  25
ENDBRANCH  16  19
ENDBRANCH  13  15
BRANCH  13  29
ATOM     29  C8  non d ame     -10.102  18.105  68.588  0.00  0.00    -0.049 C 
ATOM     30  H7  non d ame      -9.173  18.027  69.152  0.00  0.00     0.030 H 
ATOM     31  H8  non d ame     -10.497  19.118  68.676  0.00  0.00     0.030 H 
ATOM     32  H9  non d ame     -10.828  17.396  68.986  0.00  0.00     0.030 H 
ENDBRANCH  13  29
ENDBRANCH  10  13
ENDBRANCH   7   9
BRANCH   7  33
ATOM     33  C11 non d ame      -5.286  18.590  68.577  0.00  0.00    -0.033 C 
ATOM     34  H12 non d ame      -4.584  18.052  69.213  0.00  0.00     0.042 H 
BRANCH  33  35
ATOM     35  C12 non d ame      -4.479  19.677  67.801  0.00  0.00    -0.071 C 
ATOM     36  H13 non d ame      -4.900  19.799  66.803  0.00  0.00     0.028 H 
ATOM     37  H14 non d ame      -4.536  20.624  68.337  0.00  0.00     0.028 H 
ATOM     38  H15 non d ame      -3.437  19.367  67.720  0.00  0.00     0.028 H 
ENDBRANCH  33  35
BRANCH  33  39
ATOM     39  C13 non d ame      -6.371  19.239  69.495  0.00  0.00    -0.071 C 
ATOM     40  H16 non d ame      -6.832  20.079  68.976  0.00  0.00     0.028 H 
ATOM     41  H17 non d ame      -7.134  18.498  69.736  0.00  0.00     0.028 H 
ATOM     42  H18 non d ame      -5.904  19.591  70.415  0.00  0.00     0.028 H 
ENDBRANCH  33  39
ENDBRANCH   7  33
ENDBRANCH   4   7
ENDBRANCH   1   3
BRANCH   1  43
ATOM     43  C15 non d ame      -6.023  12.847  67.698  0.00  0.00     0.240 C 
ATOM     44  O5  non d ame      -5.373  12.592  66.736  0.00  0.00    -0.271 OA
ATOM     45  N6  non d ame      -7.365  12.222  67.873  0.00  0.00    -0.355 N 
ATOM     46  H46 non d ame      -7.924  12.427  68.689  0.00  0.00     0.162 HD
BRANCH  45  47
ATOM     47  C20 non d ame      -7.881  11.294  66.844  0.00  0.00     0.013 C 
ATOM     48  H30 non d ame      -7.421  11.559  65.892  0.00  0.00     0.072 H 
BRANCH  47  49
ATOM     49  C21 non d ame      -9.383  11.437  66.750  0.00  0.00    -0.038 C 
ATOM     50  H31 non d ame      -9.572  11.957  65.810  0.00  0.00     0.036 H 
ATOM     51  H32 non d ame      -9.785  10.436  66.910  0.00  0.00     0.036 H 
BRANCH  49  52
ATOM     52  C22 non d ame      -9.971  12.327  67.867  0.00  0.00     0.018 C 
ATOM     53  H33 non d ame      -9.343  12.158  68.741  0.00  0.00     0.048 H 
ATOM     54  H34 non d ame     -10.049  13.326  67.437  0.00  0.00     0.048 H 
BRANCH  52  55
ATOM     55  C23 non d ame     -11.412  11.929  68.291  0.00  0.00     0.259 C 
ATOM     56  O7  non d ame     -11.976  11.036  67.747  0.00  0.00    -0.265 OA
BRANCH  55  57
ATOM     57  O8  non d ame     -12.057  12.654  69.331  0.00  0.00    -0.317 OA
BRANCH  57  58
ATOM     58  C29 non d ame     -11.680  14.032  69.401  0.00  0.00     0.052 C 
ATOM     59  H47 non d ame     -10.591  14.042  69.360  0.00  0.00     0.082 H 
ATOM     60  H48 non d ame     -12.258  14.536  68.627  0.00  0.00     0.082 H 
BRANCH  58  61
ATOM     61  C35 non d ame     -12.125  14.581  70.782  0.00  0.00    -0.034 A 
ATOM     62  C30 non d ame     -13.047  13.875  71.548  0.00  0.00    -0.075 A 
ATOM     63  C31 non d ame     -13.448  14.369  72.789  0.00  0.00    -0.082 A 
ATOM     64  H49 non d ame     -13.456  12.936  71.176  0.00  0.00     0.084 H 
ATOM     65  C32 non d ame     -12.924  15.575  73.263  0.00  0.00    -0.083 A 
ATOM     66  H50 non d ame     -14.169  13.812  73.388  0.00  0.00     0.083 H 
ATOM     67  C33 non d ame     -12.006  16.277  72.494  0.00  0.00    -0.082 A 
ATOM     68  H51 non d ame     -13.231  15.967  74.232  0.00  0.00     0.083 H 
ATOM     69  C34 non d ame     -11.602  15.787  71.254  0.00  0.00    -0.075 A 
ATOM     70  H52 non d ame     -11.601  17.219  72.865  0.00  0.00     0.083 H 
ATOM     71  H53 non d ame     -10.880  16.344  70.656  0.00  0.00     0.084 H 
ENDBRANCH  58  61
ENDBRANCH  57  58
ENDBRANCH  55  57
ENDBRANCH  52  55
ENDBRANCH  49  52
ENDBRANCH  47  49
BRANCH  47  72
ATOM     72  C24 non d ame      -7.528   9.856  67.221  0.00  0.00    -0.039 C 
ATOM     73  H35 non d ame      -6.617   9.927  67.815  0.00  0.00     0.036 H 
ATOM     74  H36 non d ame      -8.435   9.441  67.661  0.00  0.00     0.036 H 
BRANCH  72  75
ATOM     75  C25 non d ame      -7.183   8.973  65.930  0.00  0.00    -0.001 C 
ATOM     76  C26 non d ame      -7.167   9.924  64.588  0.00  0.00    -0.035 C 
ATOM     77  C27 non d ame      -7.956   9.359  63.644  0.00  0.00     0.085 C 
ATOM     78  H38 non d ame      -7.659  10.874  64.798  0.00  0.00     0.036 H 
ATOM     79  H39 non d ame      -6.176   9.912  64.133  0.00  0.00     0.036 H 
ATOM     80  N5  non d ame      -8.766   8.286  64.329  0.00  0.00    -0.049 N 
ATOM     81  H40 non d ame      -8.627  10.153  63.312  0.00  0.00     0.075 H 
ATOM     82  H41 non d ame      -7.274   8.891  62.935  0.00  0.00     0.075 H 
ATOM     83  C28 non d ame      -8.055   8.036  65.757  0.00  0.00     0.193 C 
ATOM     84  H42 non d ame      -9.683   8.678  64.491  0.00  0.00     0.280 HD
ATOM     85  H43 non d ame      -8.665   7.450  63.770  0.00  0.00     0.280 HD
ATOM     86  H44 non d ame      -7.434   7.155  65.920  0.00  0.00     0.129 H 
ATOM     87  H37 non d ame      -6.319   8.328  66.090  0.00  0.00     0.046 H 
BRANCH  83  88
ATOM     88  O6  non d ame      -9.033   8.012  66.798  0.00  0.00    -0.369 OA
ATOM     89  H45 non d ame      -8.727   7.448  67.511  0.00  0.00     0.212 HD
ENDBRANCH  83  88
ENDBRANCH  72  75
ENDBRANCH  47  72
ENDBRANCH  45  47
ENDBRANCH   1  43
BRANCH   1  90
ATOM     90  C16 non d ame      -5.841  13.329  70.159  0.00  0.00    -0.035 C 
ATOM     91  H21 non d ame      -6.515  14.085  70.562  0.00  0.00     0.037 H 
ATOM     92  H22 non d ame      -6.193  12.307  70.015  0.00  0.00     0.037 H 
BRANCH  90  93
ATOM     93  C17 non d ame      -4.632  13.244  71.144  0.00  0.00    -0.059 C 
ATOM     94  H23 non d ame      -4.964  13.630  72.108  0.00  0.00     0.038 H 
BRANCH  93  95
ATOM     95  C18 non d ame      -4.149  11.774  71.359  0.00  0.00    -0.073 C 
ATOM     96  H24 non d ame      -3.458  11.739  72.201  0.00  0.00     0.028 H 
ATOM     97  H25 non d ame      -5.008  11.136  71.566  0.00  0.00     0.028 H 
ATOM     98  H26 non d ame      -3.643  11.423  70.459  0.00  0.00     0.028 H 
ENDBRANCH  93  95
BRANCH  93  99
ATOM     99  C19 non d ame      -3.479  14.134  70.672  0.00  0.00    -0.073 C 
ATOM    100  H27 non d ame      -2.564  13.848  71.191  0.00  0.00     0.028 H 
ATOM    101  H28 non d ame      -3.342  14.010  69.597  0.00  0.00     0.028 H 
ATOM    102  H29 non d ame      -3.711  15.176  70.890  0.00  0.00     0.028 H 
ENDBRANCH  93  99
ENDBRANCH  90  93
ENDBRANCH   1  90
TORSDOF 26
ENDMDL
MODEL 20
REMARK VINA RESULT:      -6.8      2.408      4.913
REMARK  26 active torsions:
REMARK  status: ('A' for Active; 'I' for Inactive)
REMARK    1  A    between atoms: C2_2  and  C3_3 
REMARK    2  A    between atoms: C4_6  and  C5_7 
REMARK       I    between atoms: C5_7  and  N2_9 
REMARK    3  A    between atoms: N2_9  and  C6_10 
REMARK    4  A    between atoms: C6_10  and  C7_11 
REMARK    5  A    between atoms: C6_10  and  C8_13 
REMARK       I    between atoms: C7_11  and  N3_14 
REMARK    6  A    between atoms: N3_14  and  C9_15 
REMARK    7  A    between atoms: C9_15  and  C10_16 
REMARK    8  A    between atoms: C9_15  and  C11_18 
REMARK       I    between atoms: C10_16  and  N4_21 
REMARK    9  A    between atoms: C11_18  and  C12_19 
REMARK   10  A    between atoms: C11_18  and  C13_20 
REMARK   11  A    between atoms: N4_21  and  C14_22 
REMARK   12  A    between atoms: C14_22  and  C15_23 
REMARK   13  A    between atoms: C14_22  and  C16_25 
REMARK       I    between atoms: C15_23  and  N6_40 
REMARK   14  A    between atoms: C16_25  and  C17_26 
REMARK   15  A    between atoms: C17_26  and  C18_27 
REMARK   16  A    between atoms: C17_26  and  C19_28 
REMARK   17  A    between atoms: C20_29  and  C21_30 
REMARK   18  A    between atoms: C20_29  and  C24_33 
REMARK   19  A    between atoms: C20_29  and  N6_40 
REMARK   20  A    between atoms: C21_30  and  C22_31 
REMARK   21  A    between atoms: C22_31  and  C23_32 
REMARK   22  A    between atoms: C23_32  and  O8_43 
REMARK   23  A    between atoms: C24_33  and  C25_34 
REMARK   24  A    between atoms: C28_38  and  O6_39 
REMARK   25  A    between atoms: C29_42  and  O8_43 
REMARK   26  A    between atoms: C29_42  and  C35_49 
ROOT
ATOM      1  C14 non d ame     -10.676   9.440  69.265  0.00  0.00     0.089 C 
ATOM      2  H20 non d ame     -11.299   8.601  68.954  0.00  0.00     0.087 H 
ENDROOT
BRANCH   1   3
ATOM      3  N4  non d ame      -9.288   9.054  69.063  0.00  0.00    -0.346 N 
ATOM      4  C10 non d ame      -8.894   7.599  69.065  0.00  0.00     0.241 C 
ATOM      5  O4  non d ame      -9.712   6.756  69.234  0.00  0.00    -0.271 OA
ATOM      6  H19 non d ame      -8.606   9.787  68.924  0.00  0.00     0.163 HD
BRANCH   4   7
ATOM      7  C9  non d ame      -7.453   7.217  68.849  0.00  0.00     0.092 C 
ATOM      8  H11 non d ame      -7.381   6.134  68.744  0.00  0.00     0.088 H 
BRANCH   7   9
ATOM      9  N3  non d ame      -6.973   7.807  67.596  0.00  0.00    -0.346 N 
ATOM     10  C7  non d ame      -6.584   6.953  66.500  0.00  0.00     0.240 C 
ATOM     11  O3  non d ame      -6.650   5.790  66.610  0.00  0.00    -0.271 OA
ATOM     12  H10 non d ame      -6.909   8.809  67.487  0.00  0.00     0.163 HD
BRANCH  10  13
ATOM     13  C6  non d ame      -6.071   7.587  65.170  0.00  0.00     0.086 C 
ATOM     14  H6  non d ame      -6.128   6.900  64.326  0.00  0.00     0.086 H 
BRANCH  13  15
ATOM     15  N2  non d ame      -6.911   8.726  64.836  0.00  0.00    -0.343 N 
ATOM     16  C5  non d ame      -8.033   8.548  63.912  0.00  0.00     0.273 C 
ATOM     17  O2  non d ame      -8.250   7.486  63.441  0.00  0.00    -0.266 OA
ATOM     18  H5  non d ame      -6.716   9.630  65.241  0.00  0.00     0.163 HD
BRANCH  16  19
ATOM     19  C4  non d ame      -8.930   9.742  63.551  0.00  0.00     0.154 A 
ATOM     20  C1  non d ame      -9.968  10.316  64.351  0.00  0.00    -0.017 A 
ATOM     21  C2  non d ame     -10.480  11.379  63.573  0.00  0.00     0.077 A 
ATOM     22  H1  non d ame     -10.300  10.009  65.343  0.00  0.00     0.091 H 
ATOM     23  O1  non d ame      -9.807  11.404  62.460  0.00  0.00    -0.218 OA
ATOM     24  N1  non d ame      -8.897  10.459  62.424  0.00  0.00    -0.123 NA
BRANCH  21  25
ATOM     25  C3  non d ame     -11.611  12.321  63.966  0.00  0.00    -0.029 C 
ATOM     26  H2  non d ame     -12.365  12.333  63.179  0.00  0.00     0.036 H 
ATOM     27  H3  non d ame     -12.062  11.977  64.897  0.00  0.00     0.036 H 
ATOM     28  H4  non d ame     -11.214  13.327  64.105  0.00  0.00     0.036 H 
ENDBRANCH  21  25
ENDBRANCH  16  19
ENDBRANCH  13  15
BRANCH  13  29
ATOM     29  C8  non d ame      -4.641   8.033  65.341  0.00  0.00    -0.049 C 
ATOM     30  H7  non d ame      -4.210   8.256  64.365  0.00  0.00     0.030 H 
ATOM     31  H8  non d ame      -4.611   8.926  65.965  0.00  0.00     0.030 H 
ATOM     32  H9  non d ame      -4.068   7.237  65.817  0.00  0.00     0.030 H 
ENDBRANCH  13  29
ENDBRANCH  10  13
ENDBRANCH   7   9
BRANCH   7  33
ATOM     33  C11 non d ame      -6.593   7.749  70.033  0.00  0.00    -0.033 C 
ATOM     34  H12 non d ame      -6.649   8.837  70.017  0.00  0.00     0.042 H 
BRANCH  33  35
ATOM     35  C12 non d ame      -7.158   7.270  71.406  0.00  0.00    -0.071 C 
ATOM     36  H13 non d ame      -6.579   7.719  72.214  0.00  0.00     0.028 H 
ATOM     37  H14 non d ame      -8.201   7.575  71.496  0.00  0.00     0.028 H 
ATOM     38  H15 non d ame      -7.089   6.185  71.469  0.00  0.00     0.028 H 
ENDBRANCH  33  35
BRANCH  33  39
ATOM     39  C13 non d ame      -5.094   7.340  69.863  0.00  0.00    -0.071 C 
ATOM     40  H16 non d ame      -4.940   6.928  68.866  0.00  0.00     0.028 H 
ATOM     41  H17 non d ame      -4.461   8.217  69.996  0.00  0.00     0.028 H 
ATOM     42  H18 non d ame      -4.837   6.589  70.610  0.00  0.00     0.028 H 
ENDBRANCH  33  39
ENDBRANCH   7  33
ENDBRANCH   4   7
ENDBRANCH   1   3
BRANCH   1  43
ATOM     43  C15 non d ame     -10.960  10.722  68.430  0.00  0.00     0.240 C 
ATOM     44  O5  non d ame     -11.616  10.650  67.441  0.00  0.00    -0.271 OA
ATOM     45  N6  non d ame     -10.422  12.041  68.868  0.00  0.00    -0.355 N 
ATOM     46  H46 non d ame      -9.868  12.115  69.709  0.00  0.00     0.162 HD
BRANCH  45  47
ATOM     47  C20 non d ame     -10.702  13.251  68.065  0.00  0.00     0.013 C 
ATOM     48  H30 non d ame     -10.880  12.936  67.036  0.00  0.00     0.072 H 
BRANCH  47  49
ATOM     49  C21 non d ame      -9.508  14.176  68.122  0.00  0.00    -0.038 C 
ATOM     50  H31 non d ame      -9.797  15.066  67.563  0.00  0.00     0.036 H 
ATOM     51  H32 non d ame      -9.248  14.256  69.178  0.00  0.00     0.036 H 
BRANCH  49  52
ATOM     52  C22 non d ame      -8.266  13.598  67.410  0.00  0.00     0.018 C 
ATOM     53  H33 non d ame      -7.931  12.765  68.029  0.00  0.00     0.048 H 
ATOM     54  H34 non d ame      -8.573  13.421  66.378  0.00  0.00     0.048 H 
BRANCH  52  55
ATOM     55  C23 non d ame      -7.069  14.586  67.337  0.00  0.00     0.259 C 
ATOM     56  O7  non d ame      -6.007  14.280  67.775  0.00  0.00    -0.265 OA
BRANCH  55  57
ATOM     57  O8  non d ame      -7.258  15.868  66.750  0.00  0.00    -0.317 OA
BRANCH  57  58
ATOM     58  C29 non d ame      -7.136  16.954  67.673  0.00  0.00     0.052 C 
ATOM     59  H47 non d ame      -7.127  16.499  68.664  0.00  0.00     0.082 H 
ATOM     60  H48 non d ame      -6.280  17.535  67.333  0.00  0.00     0.082 H 
BRANCH  58  61
ATOM     61  C35 non d ame      -8.408  17.834  67.548  0.00  0.00    -0.034 A 
ATOM     62  C30 non d ame      -9.326  17.591  66.532  0.00  0.00    -0.075 A 
ATOM     63  C31 non d ame     -10.469  18.381  66.418  0.00  0.00    -0.082 A 
ATOM     64  H49 non d ame      -9.151  16.780  65.824  0.00  0.00     0.084 H 
ATOM     65  C32 non d ame     -10.690  19.421  67.326  0.00  0.00    -0.083 A 
ATOM     66  H50 non d ame     -11.188  18.186  65.623  0.00  0.00     0.083 H 
ATOM     67  C33 non d ame      -9.769  19.662  68.336  0.00  0.00    -0.082 A 
ATOM     68  H51 non d ame     -11.581  20.044  67.245  0.00  0.00     0.083 H 
ATOM     69  C34 non d ame      -8.627  18.873  68.454  0.00  0.00    -0.075 A 
ATOM     70  H52 non d ame      -9.944  20.476  69.041  0.00  0.00     0.083 H 
ATOM     71  H53 non d ame      -7.909  19.068  69.251  0.00  0.00     0.084 H 
ENDBRANCH  58  61
ENDBRANCH  57  58
ENDBRANCH  55  57
ENDBRANCH  52  55
ENDBRANCH  49  52
ENDBRANCH  47  49
BRANCH  47  72
ATOM     72  C24 non d ame     -11.930  13.968  68.621  0.00  0.00    -0.039 C 
ATOM     73  H35 non d ame     -11.988  14.910  68.076  0.00  0.00     0.036 H 
ATOM     74  H36 non d ame     -12.744  13.246  68.549  0.00  0.00     0.036 H 
BRANCH  72  75
ATOM     75  C25 non d ame     -11.754  14.329  70.172  0.00  0.00    -0.001 C 
ATOM     76  C26 non d ame     -12.752  13.392  71.082  0.00  0.00    -0.035 C 
ATOM     77  C27 non d ame     -13.467  14.191  71.909  0.00  0.00     0.085 C 
ATOM     78  H38 non d ame     -13.512  12.933  70.451  0.00  0.00     0.036 H 
ATOM     79  H39 non d ame     -12.167  12.776  71.766  0.00  0.00     0.036 H 
ATOM     80  N5  non d ame     -13.287  15.608  71.419  0.00  0.00    -0.049 N 
ATOM     81  H40 non d ame     -14.508  13.897  71.771  0.00  0.00     0.075 H 
ATOM     82  H41 non d ame     -12.998  14.092  72.888  0.00  0.00     0.075 H 
ATOM     83  C28 non d ame     -12.037  15.568  70.398  0.00  0.00     0.193 C 
ATOM     84  H42 non d ame     -14.121  15.838  70.898  0.00  0.00     0.280 HD
ATOM     85  H43 non d ame     -13.027  16.158  72.225  0.00  0.00     0.280 HD
ATOM     86  H44 non d ame     -11.060  15.942  70.704  0.00  0.00     0.129 H 
ATOM     87  H37 non d ame     -10.706  14.372  70.469  0.00  0.00     0.046 H 
BRANCH  83  88
ATOM     88  O6  non d ame     -12.358  16.276  69.199  0.00  0.00    -0.369 OA
ATOM     89  H45 non d ame     -12.842  17.075  69.419  0.00  0.00     0.212 HD
ENDBRANCH  83  88
ENDBRANCH  72  75
ENDBRANCH  47  72
ENDBRANCH  45  47
ENDBRANCH   1  43
BRANCH   1  90
ATOM     90  C16 non d ame     -10.901   9.731  70.740  0.00  0.00    -0.035 C 
ATOM     91  H21 non d ame      -9.972   9.447  71.235  0.00  0.00     0.037 H 
ATOM     92  H22 non d ame     -11.247  10.764  70.781  0.00  0.00     0.037 H 
BRANCH  90  93
ATOM     93  C17 non d ame     -12.028   8.862  71.385  0.00  0.00    -0.059 C 
ATOM     94  H23 non d ame     -12.403   8.184  70.618  0.00  0.00     0.038 H 
BRANCH  93  95
ATOM     95  C18 non d ame     -11.497   7.994  72.570  0.00  0.00    -0.073 C 
ATOM     96  H24 non d ame     -10.708   7.334  72.211  0.00  0.00     0.028 H 
ATOM     97  H25 non d ame     -11.100   8.646  73.349  0.00  0.00     0.028 H 
ATOM     98  H26 non d ame     -12.313   7.397  72.977  0.00  0.00     0.028 H 
ENDBRANCH  93  95
BRANCH  93  99
ATOM     99  C19 non d ame     -13.203   9.736  71.833  0.00  0.00    -0.073 C 
ATOM    100  H27 non d ame     -13.511  10.381  71.010  0.00  0.00     0.028 H 
ATOM    101  H28 non d ame     -14.037   9.098  72.127  0.00  0.00     0.028 H 
ATOM    102  H29 non d ame     -12.897  10.348  72.681  0.00  0.00     0.028 H 
ENDBRANCH  93  99
ENDBRANCH  90  93
ENDBRANCH   1  90
TORSDOF 26
ENDMDL
