MODEL 1
REMARK VINA RESULT:      -6.3      0.000      0.000
REMARK  26 active torsions:
REMARK  status: ('A' for Active; 'I' for Inactive)
REMARK    1  A    between atoms: C2_2  and  C3_3 
REMARK    2  A    between atoms: C4_6  and  C5_7 
REMARK       I    between atoms: C5_7  and  N2_9 
REMARK    3  A    between atoms: N2_9  and  C6_10 
REMARK    4  A    between atoms: C6_10  and  C7_11 
REMARK    5  A    between atoms: C6_10  and  C8_13 
REMARK       I    between atoms: C7_11  and  N3_14 
REMARK    6  A    between atoms: N3_14  and  C9_15 
REMARK    7  A    between atoms: C9_15  and  C10_16 
REMARK    8  A    between atoms: C9_15  and  C11_18 
REMARK       I    between atoms: C10_16  and  N4_21 
REMARK    9  A    between atoms: C11_18  and  C12_19 
REMARK   10  A    between atoms: C11_18  and  C13_20 
REMARK   11  A    between atoms: N4_21  and  C14_22 
REMARK   12  A    between atoms: C14_22  and  C15_23 
REMARK   13  A    between atoms: C14_22  and  C16_25 
REMARK       I    between atoms: C15_23  and  N6_40 
REMARK   14  A    between atoms: C16_25  and  C17_26 
REMARK   15  A    between atoms: C17_26  and  C18_27 
REMARK   16  A    between atoms: C17_26  and  C19_28 
REMARK   17  A    between atoms: C20_29  and  C21_30 
REMARK   18  A    between atoms: C20_29  and  C24_33 
REMARK   19  A    between atoms: C20_29  and  N6_40 
REMARK   20  A    between atoms: C21_30  and  C22_31 
REMARK   21  A    between atoms: C22_31  and  C23_32 
REMARK   22  A    between atoms: C23_32  and  O8_43 
REMARK   23  A    between atoms: C24_33  and  C25_34 
REMARK   24  A    between atoms: C28_38  and  O6_39 
REMARK   25  A    between atoms: C29_42  and  O8_43 
REMARK   26  A    between atoms: C29_42  and  C35_49 
ROOT
ATOM      1  C14 non d ame     -12.009  13.682  69.422  0.00  0.00     0.089 C 
ATOM      2  H20 non d ame     -13.052  13.407  69.262  0.00  0.00     0.087 H 
ENDROOT
BRANCH   1   3
ATOM      3  N4  non d ame     -11.336  12.529  70.001  0.00  0.00    -0.346 N 
ATOM      4  C10 non d ame     -11.390  11.190  69.311  0.00  0.00     0.241 C 
ATOM      5  O4  non d ame     -11.984  11.064  68.291  0.00  0.00    -0.271 OA
ATOM      6  H19 non d ame     -10.838  12.657  70.871  0.00  0.00     0.163 HD
BRANCH   4   7
ATOM      7  C9  non d ame     -10.682  10.008  69.921  0.00  0.00     0.092 C 
ATOM      8  H11 non d ame     -10.368  10.263  70.933  0.00  0.00     0.088 H 
BRANCH   7   9
ATOM      9  N3  non d ame     -11.614   8.882  70.027  0.00  0.00    -0.346 N 
ATOM     10  C7  non d ame     -11.975   8.365  71.325  0.00  0.00     0.240 C 
ATOM     11  O3  non d ame     -11.524   8.843  72.293  0.00  0.00    -0.271 OA
ATOM     12  H10 non d ame     -12.011   8.458  69.201  0.00  0.00     0.163 HD
BRANCH  10  13
ATOM     13  C6  non d ame     -12.965   7.164  71.432  0.00  0.00     0.086 C 
ATOM     14  H6  non d ame     -13.010   6.572  70.517  0.00  0.00     0.086 H 
BRANCH  13  15
ATOM     15  N2  non d ame     -12.510   6.270  72.483  0.00  0.00    -0.343 N 
ATOM     16  C5  non d ame     -11.283   5.494  72.290  0.00  0.00     0.273 C 
ATOM     17  O2  non d ame     -10.672   5.593  71.283  0.00  0.00    -0.266 OA
ATOM     18  H5  non d ame     -13.040   6.189  73.339  0.00  0.00     0.163 HD
BRANCH  16  19
ATOM     19  C4  non d ame     -10.790   4.546  73.394  0.00  0.00     0.154 A 
ATOM     20  C1  non d ame     -10.315   3.206  73.234  0.00  0.00    -0.017 A 
ATOM     21  C2  non d ame      -9.987   2.778  74.540  0.00  0.00     0.077 A 
ATOM     22  H1  non d ame     -10.222   2.631  72.312  0.00  0.00     0.091 H 
ATOM     23  O1  non d ame     -10.246   3.765  75.347  0.00  0.00    -0.218 OA
ATOM     24  N1  non d ame     -10.716   4.808  74.702  0.00  0.00    -0.123 NA
BRANCH  21  25
ATOM     25  C3  non d ame      -9.432   1.415  74.930  0.00  0.00    -0.029 C 
ATOM     26  H2  non d ame      -9.487   1.295  76.013  0.00  0.00     0.036 H 
ATOM     27  H3  non d ame     -10.018   0.633  74.448  0.00  0.00     0.036 H 
ATOM     28  H4  non d ame      -8.392   1.339  74.609  0.00  0.00     0.036 H 
ENDBRANCH  21  25
ENDBRANCH  16  19
ENDBRANCH  13  15
BRANCH  13  29
ATOM     29  C8  non d ame     -14.347   7.675  71.750  0.00  0.00    -0.049 C 
ATOM     30  H7  non d ame     -14.487   7.696  72.831  0.00  0.00     0.030 H 
ATOM     31  H8  non d ame     -14.464   8.682  71.349  0.00  0.00     0.030 H 
ATOM     32  H9  non d ame     -15.090   7.016  71.301  0.00  0.00     0.030 H 
ENDBRANCH  13  29
ENDBRANCH  10  13
ENDBRANCH   7   9
BRANCH   7  33
ATOM     33  C11 non d ame      -9.481   9.601  69.019  0.00  0.00    -0.033 C 
ATOM     34  H12 non d ame      -9.888   9.207  68.088  0.00  0.00     0.042 H 
BRANCH  33  35
ATOM     35  C12 non d ame      -8.596  10.835  68.659  0.00  0.00    -0.071 C 
ATOM     36  H13 non d ame      -8.424  11.432  69.555  0.00  0.00     0.028 H 
ATOM     37  H14 non d ame      -7.640  10.492  68.262  0.00  0.00     0.028 H 
ATOM     38  H15 non d ame      -9.105  11.440  67.910  0.00  0.00     0.028 H 
ENDBRANCH  33  35
BRANCH  33  39
ATOM     39  C13 non d ame      -8.634   8.473  69.692  0.00  0.00    -0.071 C 
ATOM     40  H16 non d ame      -8.830   8.461  70.764  0.00  0.00     0.028 H 
ATOM     41  H17 non d ame      -8.906   7.509  69.262  0.00  0.00     0.028 H 
ATOM     42  H18 non d ame      -7.575   8.662  69.518  0.00  0.00     0.028 H 
ENDBRANCH  33  39
ENDBRANCH   7  33
ENDBRANCH   4   7
ENDBRANCH   1   3
BRANCH   1  43
ATOM     43  C15 non d ame     -11.291  14.061  68.095  0.00  0.00     0.240 C 
ATOM     44  O5  non d ame     -10.132  14.324  68.105  0.00  0.00    -0.271 OA
ATOM     45  N6  non d ame     -12.046  14.086  66.810  0.00  0.00    -0.355 N 
ATOM     46  H46 non d ame     -13.030  13.860  66.789  0.00  0.00     0.162 HD
BRANCH  45  47
ATOM     47  C20 non d ame     -11.349  14.447  65.557  0.00  0.00     0.013 C 
ATOM     48  H30 non d ame     -10.287  14.549  65.781  0.00  0.00     0.072 H 
BRANCH  47  49
ATOM     49  C21 non d ame     -11.896  15.758  65.040  0.00  0.00    -0.038 C 
ATOM     50  H31 non d ame     -12.308  15.537  64.055  0.00  0.00     0.036 H 
ATOM     51  H32 non d ame     -12.544  16.138  65.830  0.00  0.00     0.036 H 
BRANCH  49  52
ATOM     52  C22 non d ame     -10.798  16.822  64.826  0.00  0.00     0.018 C 
ATOM     53  H33 non d ame     -10.082  16.374  64.137  0.00  0.00     0.048 H 
ATOM     54  H34 non d ame     -11.323  17.736  64.547  0.00  0.00     0.048 H 
BRANCH  52  55
ATOM     55  C23 non d ame      -9.997  17.164  66.113  0.00  0.00     0.259 C 
ATOM     56  O7  non d ame     -10.564  17.464  67.114  0.00  0.00    -0.265 OA
BRANCH  55  57
ATOM     57  O8  non d ame      -8.576  17.128  66.080  0.00  0.00    -0.317 OA
BRANCH  57  58
ATOM     58  C29 non d ame      -7.961  17.203  67.369  0.00  0.00     0.052 C 
ATOM     59  H47 non d ame      -8.782  17.240  68.085  0.00  0.00     0.082 H 
ATOM     60  H48 non d ame      -7.245  16.382  67.403  0.00  0.00     0.082 H 
BRANCH  58  61
ATOM     61  C35 non d ame      -7.179  18.541  67.449  0.00  0.00    -0.034 A 
ATOM     62  C30 non d ame      -6.029  18.630  68.228  0.00  0.00    -0.075 A 
ATOM     63  C31 non d ame      -5.327  19.832  68.301  0.00  0.00    -0.082 A 
ATOM     64  H49 non d ame      -5.679  17.759  68.781  0.00  0.00     0.084 H 
ATOM     65  C32 non d ame      -5.779  20.949  67.592  0.00  0.00    -0.083 A 
ATOM     66  H50 non d ame      -4.425  19.898  68.910  0.00  0.00     0.083 H 
ATOM     67  C33 non d ame      -6.928  20.856  66.819  0.00  0.00    -0.082 A 
ATOM     68  H51 non d ame      -5.235  21.892  67.643  0.00  0.00     0.083 H 
ATOM     69  C34 non d ame      -7.632  19.656  66.742  0.00  0.00    -0.075 A 
ATOM     70  H52 non d ame      -7.280  21.729  66.269  0.00  0.00     0.083 H 
ATOM     71  H53 non d ame      -8.534  19.590  66.132  0.00  0.00     0.084 H 
ENDBRANCH  58  61
ENDBRANCH  57  58
ENDBRANCH  55  57
ENDBRANCH  52  55
ENDBRANCH  49  52
ENDBRANCH  47  49
BRANCH  47  72
ATOM     72  C24 non d ame     -11.568  13.355  64.512  0.00  0.00    -0.039 C 
ATOM     73  H35 non d ame     -12.644  13.335  64.334  0.00  0.00     0.036 H 
ATOM     74  H36 non d ame     -10.886  13.593  63.696  0.00  0.00     0.036 H 
BRANCH  72  75
ATOM     75  C25 non d ame     -11.154  11.911  65.068  0.00  0.00    -0.001 C 
ATOM     76  C26 non d ame      -9.572  11.915  65.515  0.00  0.00    -0.035 C 
ATOM     77  C27 non d ame      -8.948  10.867  64.927  0.00  0.00     0.085 C 
ATOM     78  H38 non d ame      -9.066  12.783  65.092  0.00  0.00     0.036 H 
ATOM     79  H39 non d ame      -9.484  11.699  66.580  0.00  0.00     0.036 H 
ATOM     80  N5  non d ame      -9.880  10.340  63.862  0.00  0.00    -0.049 N 
ATOM     81  H40 non d ame      -8.062  11.286  64.448  0.00  0.00     0.075 H 
ATOM     82  H41 non d ame      -8.841  10.115  65.708  0.00  0.00     0.075 H 
ATOM     83  C28 non d ame     -11.322  10.998  64.169  0.00  0.00     0.193 C 
ATOM     84  H42 non d ame      -9.543  10.701  62.982  0.00  0.00     0.280 HD
ATOM     85  H43 non d ame      -9.945   9.342  64.007  0.00  0.00     0.280 HD
ATOM     86  H44 non d ame     -12.113  10.408  64.632  0.00  0.00     0.129 H 
ATOM     87  H37 non d ame     -11.873  11.525  65.791  0.00  0.00     0.046 H 
BRANCH  83  88
ATOM     88  O6  non d ame     -11.890  11.523  62.968  0.00  0.00    -0.369 OA
ATOM     89  H45 non d ame     -12.734  11.936  63.167  0.00  0.00     0.212 HD
ENDBRANCH  83  88
ENDBRANCH  72  75
ENDBRANCH  47  72
ENDBRANCH  45  47
ENDBRANCH   1  43
BRANCH   1  90
ATOM     90  C16 non d ame     -11.927  14.846  70.397  0.00  0.00    -0.035 C 
ATOM     91  H21 non d ame     -11.124  14.588  71.088  0.00  0.00     0.037 H 
ATOM     92  H22 non d ame     -11.846  15.738  69.776  0.00  0.00     0.037 H 
BRANCH  90  93
ATOM     93  C17 non d ame     -13.213  15.028  71.265  0.00  0.00    -0.059 C 
ATOM     94  H23 non d ame     -13.896  15.674  70.713  0.00  0.00     0.038 H 
BRANCH  93  95
ATOM     95  C18 non d ame     -13.946  13.672  71.525  0.00  0.00    -0.073 C 
ATOM     96  H24 non d ame     -14.139  13.563  72.592  0.00  0.00     0.028 H 
ATOM     97  H25 non d ame     -14.890  13.660  70.981  0.00  0.00     0.028 H 
ATOM     98  H26 non d ame     -13.318  12.849  71.182  0.00  0.00     0.028 H 
ENDBRANCH  93  95
BRANCH  93  99
ATOM     99  C19 non d ame     -12.887  15.732  72.584  0.00  0.00    -0.073 C 
ATOM    100  H27 non d ame     -12.618  14.990  73.336  0.00  0.00     0.028 H 
ATOM    101  H28 non d ame     -12.052  16.417  72.434  0.00  0.00     0.028 H 
ATOM    102  H29 non d ame     -13.759  16.292  72.922  0.00  0.00     0.028 H 
ENDBRANCH  93  99
ENDBRANCH  90  93
ENDBRANCH   1  90
TORSDOF 26
ENDMDL
