MODEL 1
REMARK VINA RESULT:      -6.9      0.000      0.000
REMARK  26 active torsions:
REMARK  status: ('A' for Active; 'I' for Inactive)
REMARK    1  A    between atoms: C2_2  and  C3_3 
REMARK    2  A    between atoms: C4_6  and  C5_7 
REMARK       I    between atoms: C5_7  and  N2_9 
REMARK    3  A    between atoms: N2_9  and  C6_10 
REMARK    4  A    between atoms: C6_10  and  C7_11 
REMARK    5  A    between atoms: C6_10  and  C8_13 
REMARK       I    between atoms: C7_11  and  N3_14 
REMARK    6  A    between atoms: N3_14  and  C9_15 
REMARK    7  A    between atoms: C9_15  and  C10_16 
REMARK    8  A    between atoms: C9_15  and  C11_18 
REMARK       I    between atoms: C10_16  and  N4_21 
REMARK    9  A    between atoms: C11_18  and  C12_19 
REMARK   10  A    between atoms: C11_18  and  C13_20 
REMARK   11  A    between atoms: N4_21  and  C14_22 
REMARK   12  A    between atoms: C14_22  and  C15_23 
REMARK   13  A    between atoms: C14_22  and  C16_25 
REMARK       I    between atoms: C15_23  and  N6_40 
REMARK   14  A    between atoms: C16_25  and  C17_26 
REMARK   15  A    between atoms: C17_26  and  C18_27 
REMARK   16  A    between atoms: C17_26  and  C19_28 
REMARK   17  A    between atoms: C20_29  and  C21_30 
REMARK   18  A    between atoms: C20_29  and  C24_33 
REMARK   19  A    between atoms: C20_29  and  N6_40 
REMARK   20  A    between atoms: C21_30  and  C22_31 
REMARK   21  A    between atoms: C22_31  and  C23_32 
REMARK   22  A    between atoms: C23_32  and  O8_43 
REMARK   23  A    between atoms: C24_33  and  C25_34 
REMARK   24  A    between atoms: C28_38  and  O6_39 
REMARK   25  A    between atoms: C29_42  and  O8_43 
REMARK   26  A    between atoms: C29_42  and  C35_49 
ROOT
ATOM      1  C14 non d ame     -12.121  14.512  70.427  0.00  0.00     0.089 C 
ATOM      2  H20 non d ame     -13.210  14.530  70.475  0.00  0.00     0.087 H 
ENDROOT
BRANCH   1   3
ATOM      3  N4  non d ame     -11.718  13.149  70.113  0.00  0.00    -0.346 N 
ATOM      4  C10 non d ame     -12.380  11.982  70.801  0.00  0.00     0.241 C 
ATOM      5  O4  non d ame     -13.234  12.164  71.605  0.00  0.00    -0.271 OA
ATOM      6  H19 non d ame     -10.988  13.016  69.427  0.00  0.00     0.163 HD
BRANCH   4   7
ATOM      7  C9  non d ame     -11.955  10.578  70.460  0.00  0.00     0.092 C 
ATOM      8  H11 non d ame     -12.499  10.243  69.576  0.00  0.00     0.088 H 
BRANCH   7   9
ATOM      9  N3  non d ame     -10.529  10.568  70.119  0.00  0.00    -0.346 N 
ATOM     10  C7  non d ame     -10.104  10.159  68.804  0.00  0.00     0.240 C 
ATOM     11  O3  non d ame     -10.897   9.832  68.006  0.00  0.00    -0.271 OA
ATOM     12  H10 non d ame      -9.834  10.845  70.798  0.00  0.00     0.163 HD
BRANCH  10  13
ATOM     13  C6  non d ame      -8.585  10.147  68.449  0.00  0.00     0.086 C 
ATOM     14  H6  non d ame      -8.402  10.152  67.375  0.00  0.00     0.086 H 
BRANCH  13  15
ATOM     15  N2  non d ame      -7.968  11.351  68.981  0.00  0.00    -0.343 N 
ATOM     16  C5  non d ame      -7.343  12.306  68.064  0.00  0.00     0.273 C 
ATOM     17  O2  non d ame      -7.340  12.096  66.901  0.00  0.00    -0.266 OA
ATOM     18  H5  non d ame      -7.973  11.522  69.976  0.00  0.00     0.163 HD
BRANCH  16  19
ATOM     19  C4  non d ame      -6.689  13.584  68.612  0.00  0.00     0.154 A 
ATOM     20  C1  non d ame      -5.606  14.318  68.032  0.00  0.00    -0.017 A 
ATOM     21  C2  non d ame      -5.384  15.399  68.915  0.00  0.00     0.077 A 
ATOM     22  H1  non d ame      -5.063  14.101  67.111  0.00  0.00     0.091 H 
ATOM     23  O1  non d ame      -6.246  15.290  69.884  0.00  0.00    -0.218 OA
ATOM     24  N1  non d ame      -7.017  14.238  69.730  0.00  0.00    -0.123 NA
BRANCH  21  25
ATOM     25  C3  non d ame      -4.334  16.489  68.759  0.00  0.00    -0.029 C 
ATOM     26  H2  non d ame      -4.810  17.408  68.413  0.00  0.00     0.036 H 
ATOM     27  H3  non d ame      -3.852  16.670  69.720  0.00  0.00     0.036 H 
ATOM     28  H4  non d ame      -3.585  16.173  68.032  0.00  0.00     0.036 H 
ENDBRANCH  21  25
ENDBRANCH  16  19
ENDBRANCH  13  15
BRANCH  13  29
ATOM     29  C8  non d ame      -7.935   8.926  69.049  0.00  0.00    -0.049 C 
ATOM     30  H7  non d ame      -8.316   8.769  70.058  0.00  0.00     0.030 H 
ATOM     31  H8  non d ame      -8.165   8.054  68.434  0.00  0.00     0.030 H 
ATOM     32  H9  non d ame      -6.856   9.070  69.087  0.00  0.00     0.030 H 
ENDBRANCH  13  29
ENDBRANCH  10  13
ENDBRANCH   7   9
BRANCH   7  33
ATOM     33  C11 non d ame     -12.200   9.649  71.685  0.00  0.00    -0.033 C 
ATOM     34  H12 non d ame     -12.324  10.287  72.561  0.00  0.00     0.042 H 
BRANCH  33  35
ATOM     35  C12 non d ame     -13.513   8.822  71.518  0.00  0.00    -0.071 C 
ATOM     36  H13 non d ame     -13.982   9.074  70.566  0.00  0.00     0.028 H 
ATOM     37  H14 non d ame     -13.278   7.759  71.536  0.00  0.00     0.028 H 
ATOM     38  H15 non d ame     -14.196   9.057  72.334  0.00  0.00     0.028 H 
ENDBRANCH  33  35
BRANCH  33  39
ATOM     39  C13 non d ame     -10.972   8.717  71.934  0.00  0.00    -0.071 C 
ATOM     40  H16 non d ame     -10.119   9.079  71.361  0.00  0.00     0.028 H 
ATOM     41  H17 non d ame     -10.724   8.718  72.996  0.00  0.00     0.028 H 
ATOM     42  H18 non d ame     -11.217   7.703  71.619  0.00  0.00     0.028 H 
ENDBRANCH  33  39
ENDBRANCH   7  33
ENDBRANCH   4   7
ENDBRANCH   1   3
BRANCH   1  43
ATOM     43  C15 non d ame     -11.566  15.459  69.325  0.00  0.00     0.240 C 
ATOM     44  O5  non d ame     -12.269  16.294  68.853  0.00  0.00    -0.271 OA
ATOM     45  N6  non d ame     -10.155  15.331  68.862  0.00  0.00    -0.355 N 
ATOM     46  H46 non d ame      -9.546  14.629  69.258  0.00  0.00     0.162 HD
BRANCH  45  47
ATOM     47  C20 non d ame      -9.642  16.240  67.814  0.00  0.00     0.013 C 
ATOM     48  H30 non d ame     -10.489  16.788  67.402  0.00  0.00     0.072 H 
BRANCH  47  49
ATOM     49  C21 non d ame      -8.976  15.426  66.728  0.00  0.00    -0.038 C 
ATOM     50  H31 non d ame      -8.272  16.102  66.242  0.00  0.00     0.036 H 
ATOM     51  H32 non d ame      -8.614  14.522  67.219  0.00  0.00     0.036 H 
BRANCH  49  52
ATOM     52  C22 non d ame      -9.964  14.963  65.635  0.00  0.00     0.018 C 
ATOM     53  H33 non d ame     -10.868  15.554  65.784  0.00  0.00     0.048 H 
ATOM     54  H34 non d ame      -9.416  15.031  64.695  0.00  0.00     0.048 H 
BRANCH  52  55
ATOM     55  C23 non d ame     -10.398  13.477  65.774  0.00  0.00     0.259 C 
ATOM     56  O7  non d ame     -10.614  13.010  66.844  0.00  0.00    -0.265 OA
BRANCH  55  57
ATOM     57  O8  non d ame     -10.521  12.675  64.606  0.00  0.00    -0.317 OA
BRANCH  57  58
ATOM     58  C29 non d ame     -10.497  11.268  64.859  0.00  0.00     0.052 C 
ATOM     59  H47 non d ame     -10.114  11.157  65.873  0.00  0.00     0.082 H 
ATOM     60  H48 non d ame     -11.495  10.906  64.612  0.00  0.00     0.082 H 
BRANCH  58  61
ATOM     61  C35 non d ame      -9.483  10.622  63.877  0.00  0.00    -0.034 A 
ATOM     62  C30 non d ame      -9.121  11.289  62.712  0.00  0.00    -0.075 A 
ATOM     63  C31 non d ame      -8.210  10.709  61.830  0.00  0.00    -0.082 A 
ATOM     64  H49 non d ame      -9.549  12.266  62.490  0.00  0.00     0.084 H 
ATOM     65  C32 non d ame      -7.664   9.455  62.116  0.00  0.00    -0.083 A 
ATOM     66  H50 non d ame      -7.927  11.235  60.919  0.00  0.00     0.083 H 
ATOM     67  C33 non d ame      -8.031   8.791  63.279  0.00  0.00    -0.082 A 
ATOM     68  H51 non d ame      -6.951   8.995  61.432  0.00  0.00     0.083 H 
ATOM     69  C34 non d ame      -8.939   9.369  64.164  0.00  0.00    -0.075 A 
ATOM     70  H52 non d ame      -7.604   7.812  63.498  0.00  0.00     0.083 H 
ATOM     71  H53 non d ame      -9.221   8.841  65.076  0.00  0.00     0.084 H 
ENDBRANCH  58  61
ENDBRANCH  57  58
ENDBRANCH  55  57
ENDBRANCH  52  55
ENDBRANCH  49  52
ENDBRANCH  47  49
BRANCH  47  72
ATOM     72  C24 non d ame      -8.628  17.207  68.421  0.00  0.00    -0.039 C 
ATOM     73  H35 non d ame      -8.486  16.873  69.449  0.00  0.00     0.036 H 
ATOM     74  H36 non d ame      -7.784  17.216  67.730  0.00  0.00     0.036 H 
BRANCH  72  75
ATOM     75  C25 non d ame      -9.200  18.702  68.485  0.00  0.00    -0.001 C 
ATOM     76  C26 non d ame     -10.435  18.877  67.414  0.00  0.00    -0.035 C 
ATOM     77  C27 non d ame     -10.197  19.967  66.647  0.00  0.00     0.085 C 
ATOM     78  H38 non d ame     -10.426  18.055  66.698  0.00  0.00     0.036 H 
ATOM     79  H39 non d ame     -11.355  19.132  67.941  0.00  0.00     0.036 H 
ATOM     80  N5  non d ame      -8.758  20.363  66.877  0.00  0.00    -0.049 N 
ATOM     81  H40 non d ame     -10.312  19.630  65.616  0.00  0.00     0.075 H 
ATOM     82  H41 non d ame     -10.846  20.748  67.042  0.00  0.00     0.075 H 
ATOM     83  C28 non d ame      -8.284  19.566  68.198  0.00  0.00     0.193 C 
ATOM     84  H42 non d ame      -8.235  20.014  66.086  0.00  0.00     0.280 HD
ATOM     85  H43 non d ame      -8.762  21.352  67.082  0.00  0.00     0.280 HD
ATOM     86  H44 non d ame      -8.192  20.084  69.154  0.00  0.00     0.129 H 
ATOM     87  H37 non d ame      -9.381  19.031  69.509  0.00  0.00     0.046 H 
BRANCH  83  88
ATOM     88  O6  non d ame      -7.014  18.951  67.973  0.00  0.00    -0.369 OA
ATOM     89  H45 non d ame      -7.050  18.430  67.168  0.00  0.00     0.212 HD
ENDBRANCH  83  88
ENDBRANCH  72  75
ENDBRANCH  47  72
ENDBRANCH  45  47
ENDBRANCH   1  43
BRANCH   1  90
ATOM     90  C16 non d ame     -11.540  14.903  71.777  0.00  0.00    -0.035 C 
ATOM     91  H21 non d ame     -11.344  13.962  72.291  0.00  0.00     0.037 H 
ATOM     92  H22 non d ame     -10.718  15.581  71.551  0.00  0.00     0.037 H 
BRANCH  90  93
ATOM     93  C17 non d ame     -12.534  15.699  72.680  0.00  0.00    -0.059 C 
ATOM     94  H23 non d ame     -12.295  16.758  72.582  0.00  0.00     0.038 H 
BRANCH  93  95
ATOM     95  C18 non d ame     -14.019  15.503  72.238  0.00  0.00    -0.073 C 
ATOM     96  H24 non d ame     -14.583  15.046  73.052  0.00  0.00     0.028 H 
ATOM     97  H25 non d ame     -14.456  16.472  71.994  0.00  0.00     0.028 H 
ATOM     98  H26 non d ame     -14.056  14.857  71.362  0.00  0.00     0.028 H 
ENDBRANCH  93  95
BRANCH  93  99
ATOM     99  C19 non d ame     -12.351  15.327  74.154  0.00  0.00    -0.073 C 
ATOM    100  H27 non d ame     -13.247  15.600  74.711  0.00  0.00     0.028 H 
ATOM    101  H28 non d ame     -12.182  14.254  74.240  0.00  0.00     0.028 H 
ATOM    102  H29 non d ame     -11.494  15.864  74.560  0.00  0.00     0.028 H 
ENDBRANCH  93  99
ENDBRANCH  90  93
ENDBRANCH   1  90
TORSDOF 26
ENDMDL
MODEL 2
REMARK VINA RESULT:      -6.6      2.898      9.209
REMARK  26 active torsions:
REMARK  status: ('A' for Active; 'I' for Inactive)
REMARK    1  A    between atoms: C2_2  and  C3_3 
REMARK    2  A    between atoms: C4_6  and  C5_7 
REMARK       I    between atoms: C5_7  and  N2_9 
REMARK    3  A    between atoms: N2_9  and  C6_10 
REMARK    4  A    between atoms: C6_10  and  C7_11 
REMARK    5  A    between atoms: C6_10  and  C8_13 
REMARK       I    between atoms: C7_11  and  N3_14 
REMARK    6  A    between atoms: N3_14  and  C9_15 
REMARK    7  A    between atoms: C9_15  and  C10_16 
REMARK    8  A    between atoms: C9_15  and  C11_18 
REMARK       I    between atoms: C10_16  and  N4_21 
REMARK    9  A    between atoms: C11_18  and  C12_19 
REMARK   10  A    between atoms: C11_18  and  C13_20 
REMARK   11  A    between atoms: N4_21  and  C14_22 
REMARK   12  A    between atoms: C14_22  and  C15_23 
REMARK   13  A    between atoms: C14_22  and  C16_25 
REMARK       I    between atoms: C15_23  and  N6_40 
REMARK   14  A    between atoms: C16_25  and  C17_26 
REMARK   15  A    between atoms: C17_26  and  C18_27 
REMARK   16  A    between atoms: C17_26  and  C19_28 
REMARK   17  A    between atoms: C20_29  and  C21_30 
REMARK   18  A    between atoms: C20_29  and  C24_33 
REMARK   19  A    between atoms: C20_29  and  N6_40 
REMARK   20  A    between atoms: C21_30  and  C22_31 
REMARK   21  A    between atoms: C22_31  and  C23_32 
REMARK   22  A    between atoms: C23_32  and  O8_43 
REMARK   23  A    between atoms: C24_33  and  C25_34 
REMARK   24  A    between atoms: C28_38  and  O6_39 
REMARK   25  A    between atoms: C29_42  and  O8_43 
REMARK   26  A    between atoms: C29_42  and  C35_49 
ROOT
ATOM      1  C14 non d ame      -9.232   7.069  66.719  0.00  0.00     0.089 C 
ATOM      2  H20 non d ame      -9.669   6.831  65.749  0.00  0.00     0.087 H 
ENDROOT
BRANCH   1   3
ATOM      3  N4  non d ame      -8.795   8.456  66.674  0.00  0.00    -0.346 N 
ATOM      4  C10 non d ame      -8.633   9.162  65.352  0.00  0.00     0.241 C 
ATOM      5  O4  non d ame      -8.859   8.591  64.335  0.00  0.00    -0.271 OA
ATOM      6  H19 non d ame      -8.605   8.923  67.551  0.00  0.00     0.163 HD
BRANCH   4   7
ATOM      7  C9  non d ame      -8.185  10.599  65.324  0.00  0.00     0.092 C 
ATOM      8  H11 non d ame      -7.739  10.818  64.354  0.00  0.00     0.088 H 
BRANCH   7   9
ATOM      9  N3  non d ame      -9.350  11.478  65.472  0.00  0.00    -0.346 N 
ATOM     10  C7  non d ame     -10.053  11.947  64.304  0.00  0.00     0.240 C 
ATOM     11  O3  non d ame      -9.694  11.629  63.236  0.00  0.00    -0.271 OA
ATOM     12  H10 non d ame      -9.670  11.762  66.387  0.00  0.00     0.163 HD
BRANCH  10  13
ATOM     13  C6  non d ame     -11.289  12.884  64.468  0.00  0.00     0.086 C 
ATOM     14  H6  non d ame     -11.916  12.611  65.317  0.00  0.00     0.086 H 
BRANCH  13  15
ATOM     15  N2  non d ame     -10.823  14.239  64.715  0.00  0.00    -0.343 N 
ATOM     16  C5  non d ame     -11.208  14.919  65.954  0.00  0.00     0.273 C 
ATOM     17  O2  non d ame     -11.894  14.368  66.744  0.00  0.00    -0.266 OA
ATOM     18  H5  non d ame     -10.240  14.703  64.034  0.00  0.00     0.163 HD
BRANCH  16  19
ATOM     19  C4  non d ame     -10.722  16.350  66.230  0.00  0.00     0.154 A 
ATOM     20  C1  non d ame     -10.535  16.969  67.506  0.00  0.00    -0.017 A 
ATOM     21  C2  non d ame     -10.081  18.275  67.215  0.00  0.00     0.077 A 
ATOM     22  H1  non d ame     -10.705  16.538  68.494  0.00  0.00     0.091 H 
ATOM     23  O1  non d ame     -10.015  18.382  65.920  0.00  0.00    -0.218 OA
ATOM     24  N1  non d ame     -10.385  17.272  65.323  0.00  0.00    -0.123 NA
BRANCH  21  25
ATOM     25  C3  non d ame      -9.730  19.354  68.229  0.00  0.00    -0.029 C 
ATOM     26  H2  non d ame     -10.434  19.315  69.062  0.00  0.00     0.036 H 
ATOM     27  H3  non d ame      -8.719  19.189  68.601  0.00  0.00     0.036 H 
ATOM     28  H4  non d ame      -9.785  20.334  67.753  0.00  0.00     0.036 H 
ENDBRANCH  21  25
ENDBRANCH  16  19
ENDBRANCH  13  15
BRANCH  13  29
ATOM     29  C8  non d ame     -12.123  12.846  63.213  0.00  0.00    -0.049 C 
ATOM     30  H7  non d ame     -12.652  13.793  63.099  0.00  0.00     0.030 H 
ATOM     31  H8  non d ame     -11.474  12.686  62.351  0.00  0.00     0.030 H 
ATOM     32  H9  non d ame     -12.845  12.034  63.281  0.00  0.00     0.030 H 
ENDBRANCH  13  29
ENDBRANCH  10  13
ENDBRANCH   7   9
BRANCH   7  33
ATOM     33  C11 non d ame      -7.192  10.856  66.496  0.00  0.00    -0.033 C 
ATOM     34  H12 non d ame      -7.271  10.014  67.183  0.00  0.00     0.042 H 
BRANCH  33  35
ATOM     35  C12 non d ame      -5.718  10.911  65.989  0.00  0.00    -0.071 C 
ATOM     36  H13 non d ame      -5.271   9.919  66.063  0.00  0.00     0.028 H 
ATOM     37  H14 non d ame      -5.702  11.240  64.950  0.00  0.00     0.028 H 
ATOM     38  H15 non d ame      -5.150  11.613  66.600  0.00  0.00     0.028 H 
ENDBRANCH  33  35
BRANCH  33  39
ATOM     39  C13 non d ame      -7.572  12.155  67.276  0.00  0.00    -0.071 C 
ATOM     40  H16 non d ame      -6.672  12.734  67.478  0.00  0.00     0.028 H 
ATOM     41  H17 non d ame      -8.261  12.751  66.676  0.00  0.00     0.028 H 
ATOM     42  H18 non d ame      -8.050  11.886  68.217  0.00  0.00     0.028 H 
ENDBRANCH  33  39
ENDBRANCH   7  33
ENDBRANCH   4   7
ENDBRANCH   1   3
BRANCH   1  43
ATOM     43  C15 non d ame     -10.256   6.909  67.879  0.00  0.00     0.240 C 
ATOM     44  O5  non d ame     -11.197   6.195  67.744  0.00  0.00    -0.271 OA
ATOM     45  N6  non d ame     -10.059   7.640  69.164  0.00  0.00    -0.355 N 
ATOM     46  H46 non d ame      -9.262   8.246  69.292  0.00  0.00     0.162 HD
BRANCH  45  47
ATOM     47  C20 non d ame     -11.041   7.476  70.258  0.00  0.00     0.013 C 
ATOM     48  H30 non d ame     -11.883   6.903  69.869  0.00  0.00     0.072 H 
BRANCH  47  49
ATOM     49  C21 non d ame     -11.511   8.838  70.715  0.00  0.00    -0.038 C 
ATOM     50  H31 non d ame     -12.510   8.962  70.295  0.00  0.00     0.036 H 
ATOM     51  H32 non d ame     -11.369   8.850  71.797  0.00  0.00     0.036 H 
BRANCH  49  52
ATOM     52  C22 non d ame     -10.653   9.990  70.150  0.00  0.00     0.018 C 
ATOM     53  H33 non d ame     -10.610  10.742  70.939  0.00  0.00     0.048 H 
ATOM     54  H34 non d ame      -9.735   9.525  69.789  0.00  0.00     0.048 H 
BRANCH  52  55
ATOM     55  C23 non d ame     -11.288  10.698  68.921  0.00  0.00     0.259 C 
ATOM     56  O7  non d ame     -11.080  10.298  67.822  0.00  0.00    -0.265 OA
BRANCH  55  57
ATOM     57  O8  non d ame     -12.110  11.841  69.122  0.00  0.00    -0.317 OA
BRANCH  57  58
ATOM     58  C29 non d ame     -11.384  13.036  69.424  0.00  0.00     0.052 C 
ATOM     59  H47 non d ame     -10.407  12.708  69.775  0.00  0.00     0.082 H 
ATOM     60  H48 non d ame     -11.462  13.661  68.534  0.00  0.00     0.082 H 
BRANCH  58  61
ATOM     61  C35 non d ame     -12.110  13.755  70.592  0.00  0.00    -0.034 A 
ATOM     62  C30 non d ame     -12.979  13.045  71.414  0.00  0.00    -0.075 A 
ATOM     63  C31 non d ame     -13.631  13.690  72.464  0.00  0.00    -0.082 A 
ATOM     64  H49 non d ame     -13.149  11.984  71.236  0.00  0.00     0.084 H 
ATOM     65  C32 non d ame     -13.413  15.052  72.689  0.00  0.00    -0.083 A 
ATOM     66  H50 non d ame     -14.310  13.130  73.107  0.00  0.00     0.083 H 
ATOM     67  C33 non d ame     -12.548  15.758  71.864  0.00  0.00    -0.082 A 
ATOM     68  H51 non d ame     -13.919  15.564  73.507  0.00  0.00     0.083 H 
ATOM     69  C34 non d ame     -11.892  15.116  70.815  0.00  0.00    -0.075 A 
ATOM     70  H52 non d ame     -12.381  16.821  72.041  0.00  0.00     0.083 H 
ATOM     71  H53 non d ame     -11.212  15.677  70.172  0.00  0.00     0.084 H 
ENDBRANCH  58  61
ENDBRANCH  57  58
ENDBRANCH  55  57
ENDBRANCH  52  55
ENDBRANCH  49  52
ENDBRANCH  47  49
BRANCH  47  72
ATOM     72  C24 non d ame     -10.392   6.741  71.428  0.00  0.00    -0.039 C 
ATOM     73  H35 non d ame     -11.076   5.930  71.677  0.00  0.00     0.036 H 
ATOM     74  H36 non d ame      -9.376   6.516  71.102  0.00  0.00     0.036 H 
BRANCH  72  75
ATOM     75  C25 non d ame     -10.275   7.676  72.724  0.00  0.00    -0.001 C 
ATOM     76  C26 non d ame      -8.719   8.168  72.923  0.00  0.00    -0.035 C 
ATOM     77  C27 non d ame      -8.336   7.902  74.194  0.00  0.00     0.085 C 
ATOM     78  H38 non d ame      -8.052   7.549  72.322  0.00  0.00     0.036 H 
ATOM     79  H39 non d ame      -8.659   9.254  72.859  0.00  0.00     0.036 H 
ATOM     80  N5  non d ame      -9.375   6.981  74.785  0.00  0.00    -0.049 N 
ATOM     81  H40 non d ame      -7.391   7.364  74.109  0.00  0.00     0.075 H 
ATOM     82  H41 non d ame      -8.373   8.859  74.715  0.00  0.00     0.075 H 
ATOM     83  C28 non d ame     -10.645   7.046  73.789  0.00  0.00     0.193 C 
ATOM     84  H42 non d ame      -8.986   6.050  74.749  0.00  0.00     0.280 HD
ATOM     85  H43 non d ame      -9.643   7.382  75.672  0.00  0.00     0.280 HD
ATOM     86  H44 non d ame     -11.533   7.618  74.060  0.00  0.00     0.129 H 
ATOM     87  H37 non d ame     -11.046   8.447  72.747  0.00  0.00     0.046 H 
BRANCH  83  88
ATOM     88  O6  non d ame     -11.112   5.728  73.501  0.00  0.00    -0.369 OA
ATOM     89  H45 non d ame     -11.770   5.472  74.151  0.00  0.00     0.212 HD
ENDBRANCH  83  88
ENDBRANCH  72  75
ENDBRANCH  47  72
ENDBRANCH  45  47
ENDBRANCH   1  43
BRANCH   1  90
ATOM     90  C16 non d ame      -8.027   6.176  66.974  0.00  0.00    -0.035 C 
ATOM     91  H21 non d ame      -7.162   6.766  66.670  0.00  0.00     0.037 H 
ATOM     92  H22 non d ame      -8.126   5.847  68.007  0.00  0.00     0.037 H 
BRANCH  90  93
ATOM     93  C17 non d ame      -8.009   4.884  66.097  0.00  0.00    -0.059 C 
ATOM     94  H23 non d ame      -6.983   4.518  66.070  0.00  0.00     0.038 H 
BRANCH  93  95
ATOM     95  C18 non d ame      -8.903   3.752  66.695  0.00  0.00    -0.073 C 
ATOM     96  H24 non d ame      -8.983   2.935  65.977  0.00  0.00     0.028 H 
ATOM     97  H25 non d ame      -8.454   3.382  67.616  0.00  0.00     0.028 H 
ATOM     98  H26 non d ame      -9.896   4.148  66.909  0.00  0.00     0.028 H 
ENDBRANCH  93  95
BRANCH  93  99
ATOM     99  C19 non d ame      -8.417   5.197  64.655  0.00  0.00    -0.073 C 
ATOM    100  H27 non d ame      -7.880   6.080  64.309  0.00  0.00     0.028 H 
ATOM    101  H28 non d ame      -8.172   4.349  64.016  0.00  0.00     0.028 H 
ATOM    102  H29 non d ame      -9.489   5.385  64.614  0.00  0.00     0.028 H 
ENDBRANCH  93  99
ENDBRANCH  90  93
ENDBRANCH   1  90
TORSDOF 26
ENDMDL
MODEL 3
REMARK VINA RESULT:      -6.6      2.006      5.676
REMARK  26 active torsions:
REMARK  status: ('A' for Active; 'I' for Inactive)
REMARK    1  A    between atoms: C2_2  and  C3_3 
REMARK    2  A    between atoms: C4_6  and  C5_7 
REMARK       I    between atoms: C5_7  and  N2_9 
REMARK    3  A    between atoms: N2_9  and  C6_10 
REMARK    4  A    between atoms: C6_10  and  C7_11 
REMARK    5  A    between atoms: C6_10  and  C8_13 
REMARK       I    between atoms: C7_11  and  N3_14 
REMARK    6  A    between atoms: N3_14  and  C9_15 
REMARK    7  A    between atoms: C9_15  and  C10_16 
REMARK    8  A    between atoms: C9_15  and  C11_18 
REMARK       I    between atoms: C10_16  and  N4_21 
REMARK    9  A    between atoms: C11_18  and  C12_19 
REMARK   10  A    between atoms: C11_18  and  C13_20 
REMARK   11  A    between atoms: N4_21  and  C14_22 
REMARK   12  A    between atoms: C14_22  and  C15_23 
REMARK   13  A    between atoms: C14_22  and  C16_25 
REMARK       I    between atoms: C15_23  and  N6_40 
REMARK   14  A    between atoms: C16_25  and  C17_26 
REMARK   15  A    between atoms: C17_26  and  C18_27 
REMARK   16  A    between atoms: C17_26  and  C19_28 
REMARK   17  A    between atoms: C20_29  and  C21_30 
REMARK   18  A    between atoms: C20_29  and  C24_33 
REMARK   19  A    between atoms: C20_29  and  N6_40 
REMARK   20  A    between atoms: C21_30  and  C22_31 
REMARK   21  A    between atoms: C22_31  and  C23_32 
REMARK   22  A    between atoms: C23_32  and  O8_43 
REMARK   23  A    between atoms: C24_33  and  C25_34 
REMARK   24  A    between atoms: C28_38  and  O6_39 
REMARK   25  A    between atoms: C29_42  and  O8_43 
REMARK   26  A    between atoms: C29_42  and  C35_49 
ROOT
ATOM      1  C14 non d ame     -12.153  13.613  69.619  0.00  0.00     0.089 C 
ATOM      2  H20 non d ame     -13.103  13.373  69.142  0.00  0.00     0.087 H 
ENDROOT
BRANCH   1   3
ATOM      3  N4  non d ame     -11.660  12.399  70.253  0.00  0.00    -0.346 N 
ATOM      4  C10 non d ame     -11.717  11.081  69.521  0.00  0.00     0.241 C 
ATOM      5  O4  non d ame     -12.166  11.023  68.424  0.00  0.00    -0.271 OA
ATOM      6  H19 non d ame     -11.285  12.470  71.188  0.00  0.00     0.163 HD
BRANCH   4   7
ATOM      7  C9  non d ame     -11.198   9.836  70.190  0.00  0.00     0.092 C 
ATOM      8  H11 non d ame     -11.315   8.990  69.513  0.00  0.00     0.088 H 
BRANCH   7   9
ATOM      9  N3  non d ame      -9.763   9.983  70.452  0.00  0.00    -0.346 N 
ATOM     10  C7  non d ame      -8.802   9.585  69.454  0.00  0.00     0.240 C 
ATOM     11  O3  non d ame      -9.166   9.142  68.433  0.00  0.00    -0.271 OA
ATOM     12  H10 non d ame      -9.434  10.362  71.329  0.00  0.00     0.163 HD
BRANCH  10  13
ATOM     13  C6  non d ame      -7.277   9.742  69.741  0.00  0.00     0.086 C 
ATOM     14  H6  non d ame      -6.654   9.393  68.917  0.00  0.00     0.086 H 
BRANCH  13  15
ATOM     15  N2  non d ame      -6.974  11.152  69.923  0.00  0.00    -0.343 N 
ATOM     16  C5  non d ame      -6.560  11.954  68.770  0.00  0.00     0.273 C 
ATOM     17  O2  non d ame      -6.471  11.456  67.702  0.00  0.00    -0.266 OA
ATOM     18  H5  non d ame      -7.050  11.569  70.839  0.00  0.00     0.163 HD
BRANCH  16  19
ATOM     19  C4  non d ame      -6.239  13.447  68.946  0.00  0.00     0.154 A 
ATOM     20  C1  non d ame      -5.458  14.046  69.985  0.00  0.00    -0.017 A 
ATOM     21  C2  non d ame      -5.466  15.429  69.695  0.00  0.00     0.077 A 
ATOM     22  H1  non d ame      -4.962  13.553  70.822  0.00  0.00     0.091 H 
ATOM     23  O1  non d ame      -6.170  15.594  68.613  0.00  0.00    -0.218 OA
ATOM     24  N1  non d ame      -6.632  14.451  68.158  0.00  0.00    -0.123 NA
BRANCH  21  25
ATOM     25  C3  non d ame      -4.776  16.522  70.499  0.00  0.00    -0.029 C 
ATOM     26  H2  non d ame      -4.989  17.494  70.050  0.00  0.00     0.036 H 
ATOM     27  H3  non d ame      -5.146  16.508  71.524  0.00  0.00     0.036 H 
ATOM     28  H4  non d ame      -3.700  16.351  70.499  0.00  0.00     0.036 H 
ENDBRANCH  21  25
ENDBRANCH  16  19
ENDBRANCH  13  15
BRANCH  13  29
ATOM     29  C8  non d ame      -6.915   8.972  70.985  0.00  0.00    -0.049 C 
ATOM     30  H7  non d ame      -7.822   8.721  71.535  0.00  0.00     0.030 H 
ATOM     31  H8  non d ame      -6.394   8.055  70.707  0.00  0.00     0.030 H 
ATOM     32  H9  non d ame      -6.267   9.581  71.614  0.00  0.00     0.030 H 
ENDBRANCH  13  29
ENDBRANCH  10  13
ENDBRANCH   7   9
BRANCH   7  33
ATOM     33  C11 non d ame     -11.949   9.617  71.535  0.00  0.00    -0.033 C 
ATOM     34  H12 non d ame     -11.784  10.501  72.152  0.00  0.00     0.042 H 
BRANCH  33  35
ATOM     35  C12 non d ame     -13.488   9.483  71.312  0.00  0.00    -0.071 C 
ATOM     36  H13 non d ame     -14.016   9.837  72.197  0.00  0.00     0.028 H 
ATOM     37  H14 non d ame     -13.784  10.080  70.450  0.00  0.00     0.028 H 
ATOM     38  H15 non d ame     -13.738   8.437  71.132  0.00  0.00     0.028 H 
ENDBRANCH  33  35
BRANCH  33  39
ATOM     39  C13 non d ame     -11.378   8.380  72.300  0.00  0.00    -0.071 C 
ATOM     40  H16 non d ame     -12.128   8.004  72.995  0.00  0.00     0.028 H 
ATOM     41  H17 non d ame     -11.119   7.598  71.586  0.00  0.00     0.028 H 
ATOM     42  H18 non d ame     -10.487   8.677  72.853  0.00  0.00     0.028 H 
ENDBRANCH  33  39
ENDBRANCH   7  33
ENDBRANCH   4   7
ENDBRANCH   1   3
BRANCH   1  43
ATOM     43  C15 non d ame     -11.089  14.105  68.596  0.00  0.00     0.240 C 
ATOM     44  O5  non d ame      -9.962  14.258  68.943  0.00  0.00    -0.271 OA
ATOM     45  N6  non d ame     -11.472  14.376  67.182  0.00  0.00    -0.355 N 
ATOM     46  H46 non d ame     -12.425  14.245  66.874  0.00  0.00     0.162 HD
BRANCH  45  47
ATOM     47  C20 non d ame     -10.448  14.841  66.221  0.00  0.00     0.013 C 
ATOM     48  H30 non d ame      -9.477  14.493  66.572  0.00  0.00     0.072 H 
BRANCH  47  49
ATOM     49  C21 non d ame     -10.466  16.352  66.165  0.00  0.00    -0.038 C 
ATOM     50  H31 non d ame     -10.334  16.610  65.114  0.00  0.00     0.036 H 
ATOM     51  H32 non d ame     -11.371  16.656  66.692  0.00  0.00     0.036 H 
BRANCH  49  52
ATOM     52  C22 non d ame      -9.284  16.994  66.923  0.00  0.00     0.018 C 
ATOM     53  H33 non d ame      -8.739  16.166  67.378  0.00  0.00     0.048 H 
ATOM     54  H34 non d ame      -8.786  17.642  66.201  0.00  0.00     0.048 H 
BRANCH  52  55
ATOM     55  C23 non d ame      -9.720  17.914  68.097  0.00  0.00     0.259 C 
ATOM     56  O7  non d ame     -10.597  17.585  68.827  0.00  0.00    -0.265 OA
BRANCH  55  57
ATOM     57  O8  non d ame      -9.067  19.164  68.283  0.00  0.00    -0.317 OA
BRANCH  57  58
ATOM     58  C29 non d ame      -9.037  19.986  67.113  0.00  0.00     0.052 C 
ATOM     59  H47 non d ame      -9.456  19.377  66.313  0.00  0.00     0.082 H 
ATOM     60  H48 non d ame      -9.521  20.921  67.397  0.00  0.00     0.082 H 
BRANCH  58  61
ATOM     61  C35 non d ame      -7.552  20.286  66.776  0.00  0.00    -0.034 A 
ATOM     62  C30 non d ame      -6.728  20.877  67.728  0.00  0.00    -0.075 A 
ATOM     63  C31 non d ame      -5.394  21.147  67.426  0.00  0.00    -0.082 A 
ATOM     64  H49 non d ame      -7.126  21.129  68.710  0.00  0.00     0.084 H 
ATOM     65  C32 non d ame      -4.885  20.825  66.164  0.00  0.00    -0.083 A 
ATOM     66  H50 non d ame      -4.750  21.609  68.174  0.00  0.00     0.083 H 
ATOM     67  C33 non d ame      -5.712  20.238  65.216  0.00  0.00    -0.082 A 
ATOM     68  H51 non d ame      -3.844  21.032  65.920  0.00  0.00     0.083 H 
ATOM     69  C34 non d ame      -7.046  19.965  65.515  0.00  0.00    -0.075 A 
ATOM     70  H52 non d ame      -5.313  19.990  64.232  0.00  0.00     0.083 H 
ATOM     71  H53 non d ame      -7.689  19.502  64.765  0.00  0.00     0.084 H 
ENDBRANCH  58  61
ENDBRANCH  57  58
ENDBRANCH  55  57
ENDBRANCH  52  55
ENDBRANCH  49  52
ENDBRANCH  47  49
BRANCH  47  72
ATOM     72  C24 non d ame     -10.746  14.276  64.835  0.00  0.00    -0.039 C 
ATOM     73  H35 non d ame     -11.504  14.933  64.409  0.00  0.00     0.036 H 
ATOM     74  H36 non d ame      -9.776  14.176  64.347  0.00  0.00     0.036 H 
BRANCH  72  75
ATOM     75  C25 non d ame     -11.386  12.809  64.918  0.00  0.00    -0.001 C 
ATOM     76  C26 non d ame     -10.193  11.682  65.025  0.00  0.00    -0.035 C 
ATOM     77  C27 non d ame     -10.402  10.735  64.080  0.00  0.00     0.085 C 
ATOM     78  H38 non d ame      -9.238  12.121  64.737  0.00  0.00     0.036 H 
ATOM     79  H39 non d ame     -10.280  11.132  65.962  0.00  0.00     0.036 H 
ATOM     80  N5  non d ame     -11.439  11.280  63.129  0.00  0.00    -0.049 N 
ATOM     81  H40 non d ame      -9.453  10.634  63.552  0.00  0.00     0.075 H 
ATOM     82  H41 non d ame     -10.823   9.881  64.612  0.00  0.00     0.075 H 
ATOM     83  C28 non d ame     -12.101  12.551  63.874  0.00  0.00     0.193 C 
ATOM     84  H42 non d ame     -10.937  11.610  62.316  0.00  0.00     0.280 HD
ATOM     85  H43 non d ame     -12.143  10.564  63.030  0.00  0.00     0.280 HD
ATOM     86  H44 non d ame     -13.091  12.475  64.325  0.00  0.00     0.129 H 
ATOM     87  H37 non d ame     -12.190  12.751  65.652  0.00  0.00     0.046 H 
BRANCH  83  88
ATOM     88  O6  non d ame     -12.172  13.663  62.981  0.00  0.00    -0.369 OA
ATOM     89  H45 non d ame     -13.090  13.847  62.771  0.00  0.00     0.212 HD
ENDBRANCH  83  88
ENDBRANCH  72  75
ENDBRANCH  47  72
ENDBRANCH  45  47
ENDBRANCH   1  43
BRANCH   1  90
ATOM     90  C16 non d ame     -12.368  14.677  70.684  0.00  0.00    -0.035 C 
ATOM     91  H21 non d ame     -11.399  14.800  71.169  0.00  0.00     0.037 H 
ATOM     92  H22 non d ame     -12.827  15.517  70.164  0.00  0.00     0.037 H 
BRANCH  90  93
ATOM     93  C17 non d ame     -13.369  14.250  71.804  0.00  0.00    -0.059 C 
ATOM     94  H23 non d ame     -13.469  13.165  71.761  0.00  0.00     0.038 H 
BRANCH  93  95
ATOM     95  C18 non d ame     -12.855  14.625  73.230  0.00  0.00    -0.073 C 
ATOM     96  H24 non d ame     -11.768  14.702  73.216  0.00  0.00     0.028 H 
ATOM     97  H25 non d ame     -13.282  15.582  73.530  0.00  0.00     0.028 H 
ATOM     98  H26 non d ame     -13.157  13.855  73.940  0.00  0.00     0.028 H 
ENDBRANCH  93  95
BRANCH  93  99
ATOM     99  C19 non d ame     -14.758  14.844  71.550  0.00  0.00    -0.073 C 
ATOM    100  H27 non d ame     -15.484  14.359  72.203  0.00  0.00     0.028 H 
ATOM    101  H28 non d ame     -14.738  15.914  71.759  0.00  0.00     0.028 H 
ATOM    102  H29 non d ame     -15.038  14.681  70.510  0.00  0.00     0.028 H 
ENDBRANCH  93  99
ENDBRANCH  90  93
ENDBRANCH   1  90
TORSDOF 26
ENDMDL
MODEL 4
REMARK VINA RESULT:      -6.5      2.513      7.834
REMARK  26 active torsions:
REMARK  status: ('A' for Active; 'I' for Inactive)
REMARK    1  A    between atoms: C2_2  and  C3_3 
REMARK    2  A    between atoms: C4_6  and  C5_7 
REMARK       I    between atoms: C5_7  and  N2_9 
REMARK    3  A    between atoms: N2_9  and  C6_10 
REMARK    4  A    between atoms: C6_10  and  C7_11 
REMARK    5  A    between atoms: C6_10  and  C8_13 
REMARK       I    between atoms: C7_11  and  N3_14 
REMARK    6  A    between atoms: N3_14  and  C9_15 
REMARK    7  A    between atoms: C9_15  and  C10_16 
REMARK    8  A    between atoms: C9_15  and  C11_18 
REMARK       I    between atoms: C10_16  and  N4_21 
REMARK    9  A    between atoms: C11_18  and  C12_19 
REMARK   10  A    between atoms: C11_18  and  C13_20 
REMARK   11  A    between atoms: N4_21  and  C14_22 
REMARK   12  A    between atoms: C14_22  and  C15_23 
REMARK   13  A    between atoms: C14_22  and  C16_25 
REMARK       I    between atoms: C15_23  and  N6_40 
REMARK   14  A    between atoms: C16_25  and  C17_26 
REMARK   15  A    between atoms: C17_26  and  C18_27 
REMARK   16  A    between atoms: C17_26  and  C19_28 
REMARK   17  A    between atoms: C20_29  and  C21_30 
REMARK   18  A    between atoms: C20_29  and  C24_33 
REMARK   19  A    between atoms: C20_29  and  N6_40 
REMARK   20  A    between atoms: C21_30  and  C22_31 
REMARK   21  A    between atoms: C22_31  and  C23_32 
REMARK   22  A    between atoms: C23_32  and  O8_43 
REMARK   23  A    between atoms: C24_33  and  C25_34 
REMARK   24  A    between atoms: C28_38  and  O6_39 
REMARK   25  A    between atoms: C29_42  and  O8_43 
REMARK   26  A    between atoms: C29_42  and  C35_49 
ROOT
ATOM      1  C14 non d ame      -9.803  11.779  65.639  0.00  0.00     0.089 C 
ATOM      2  H20 non d ame      -9.666  12.244  64.663  0.00  0.00     0.087 H 
ENDROOT
BRANCH   1   3
ATOM      3  N4  non d ame      -9.084  10.515  65.629  0.00  0.00    -0.346 N 
ATOM      4  C10 non d ame      -9.036   9.676  64.376  0.00  0.00     0.241 C 
ATOM      5  O4  non d ame      -9.587  10.040  63.389  0.00  0.00    -0.271 OA
ATOM      6  H19 non d ame      -8.624  10.222  66.480  0.00  0.00     0.163 HD
BRANCH   4   7
ATOM      7  C9  non d ame      -8.283   8.372  64.381  0.00  0.00     0.092 C 
ATOM      8  H11 non d ame      -7.358   8.494  64.945  0.00  0.00     0.088 H 
BRANCH   7   9
ATOM      9  N3  non d ame      -9.077   7.351  65.070  0.00  0.00    -0.346 N 
ATOM     10  C7  non d ame      -8.807   7.037  66.451  0.00  0.00     0.240 C 
ATOM     11  O3  non d ame      -7.952   7.595  67.023  0.00  0.00    -0.271 OA
ATOM     12  H10 non d ame      -9.816   6.859  64.588  0.00  0.00     0.163 HD
BRANCH  10  13
ATOM     13  C6  non d ame      -9.654   5.946  67.177  0.00  0.00     0.086 C 
ATOM     14  H6  non d ame      -9.054   5.310  67.827  0.00  0.00     0.086 H 
BRANCH  13  15
ATOM     15  N2  non d ame     -10.636   6.600  68.025  0.00  0.00    -0.343 N 
ATOM     16  C5  non d ame     -10.366   6.749  69.457  0.00  0.00     0.273 C 
ATOM     17  O2  non d ame      -9.358   6.338  69.916  0.00  0.00    -0.266 OA
ATOM     18  H5  non d ame     -11.496   6.947  67.626  0.00  0.00     0.163 HD
BRANCH  16  19
ATOM     19  C4  non d ame     -11.394   7.441  70.367  0.00  0.00     0.154 A 
ATOM     20  C1  non d ame     -11.561   8.848  70.569  0.00  0.00    -0.017 A 
ATOM     21  C2  non d ame     -12.629   8.959  71.488  0.00  0.00     0.077 A 
ATOM     22  H1  non d ame     -10.994   9.663  70.119  0.00  0.00     0.091 H 
ATOM     23  O1  non d ame     -13.023   7.752  71.772  0.00  0.00    -0.218 OA
ATOM     24  N1  non d ame     -12.317   6.849  71.130  0.00  0.00    -0.123 NA
BRANCH  21  25
ATOM     25  C3  non d ame     -13.211  10.252  72.040  0.00  0.00    -0.029 C 
ATOM     26  H2  non d ame     -13.892  10.024  72.861  0.00  0.00     0.036 H 
ATOM     27  H3  non d ame     -12.404  10.888  72.404  0.00  0.00     0.036 H 
ATOM     28  H4  non d ame     -13.756  10.773  71.252  0.00  0.00     0.036 H 
ENDBRANCH  21  25
ENDBRANCH  16  19
ENDBRANCH  13  15
BRANCH  13  29
ATOM     29  C8  non d ame     -10.349   5.082  66.156  0.00  0.00    -0.049 C 
ATOM     30  H7  non d ame     -10.169   5.482  65.157  0.00  0.00     0.030 H 
ATOM     31  H8  non d ame      -9.959   4.065  66.215  0.00  0.00     0.030 H 
ATOM     32  H9  non d ame     -11.419   5.073  66.355  0.00  0.00     0.030 H 
ENDBRANCH  13  29
ENDBRANCH  10  13
ENDBRANCH   7   9
BRANCH   7  33
ATOM     33  C11 non d ame      -8.019   7.920  62.915  0.00  0.00    -0.033 C 
ATOM     34  H12 non d ame      -8.836   8.301  62.301  0.00  0.00     0.042 H 
BRANCH  33  35
ATOM     35  C12 non d ame      -6.693   8.529  62.361  0.00  0.00    -0.071 C 
ATOM     36  H13 non d ame      -6.439   8.048  61.417  0.00  0.00     0.028 H 
ATOM     37  H14 non d ame      -6.825   9.599  62.199  0.00  0.00     0.028 H 
ATOM     38  H15 non d ame      -5.892   8.367  63.081  0.00  0.00     0.028 H 
ENDBRANCH  33  35
BRANCH  33  39
ATOM     39  C13 non d ame      -8.016   6.362  62.803  0.00  0.00    -0.071 C 
ATOM     40  H16 non d ame      -6.989   6.000  62.788  0.00  0.00     0.028 H 
ATOM     41  H17 non d ame      -8.541   5.934  63.658  0.00  0.00     0.028 H 
ATOM     42  H18 non d ame      -8.519   6.064  61.882  0.00  0.00     0.028 H 
ENDBRANCH  33  39
ENDBRANCH   7  33
ENDBRANCH   4   7
ENDBRANCH   1   3
BRANCH   1  43
ATOM     43  C15 non d ame      -9.242  12.659  66.793  0.00  0.00     0.240 C 
ATOM     44  O5  non d ame      -9.321  12.280  67.918  0.00  0.00    -0.271 OA
ATOM     45  N6  non d ame      -8.596  13.969  66.497  0.00  0.00    -0.355 N 
ATOM     46  H46 non d ame      -8.519  14.299  65.545  0.00  0.00     0.162 HD
BRANCH  45  47
ATOM     47  C20 non d ame      -8.066  14.792  67.605  0.00  0.00     0.013 C 
ATOM     48  H30 non d ame      -8.472  14.401  68.537  0.00  0.00     0.072 H 
BRANCH  47  49
ATOM     49  C21 non d ame      -8.501  16.228  67.414  0.00  0.00    -0.038 C 
ATOM     50  H31 non d ame      -7.581  16.804  67.309  0.00  0.00     0.036 H 
ATOM     51  H32 non d ame      -9.229  16.209  66.602  0.00  0.00     0.036 H 
BRANCH  49  52
ATOM     52  C22 non d ame      -9.237  16.799  68.645  0.00  0.00     0.018 C 
ATOM     53  H33 non d ame      -9.320  15.972  69.351  0.00  0.00     0.048 H 
ATOM     54  H34 non d ame      -8.690  17.701  68.924  0.00  0.00     0.048 H 
BRANCH  52  55
ATOM     55  C23 non d ame     -10.693  17.255  68.348  0.00  0.00     0.259 C 
ATOM     56  O7  non d ame     -10.902  18.301  67.825  0.00  0.00    -0.265 OA
BRANCH  55  57
ATOM     57  O8  non d ame     -11.777  16.413  68.721  0.00  0.00    -0.317 OA
BRANCH  57  58
ATOM     58  C29 non d ame     -11.376  15.168  69.299  0.00  0.00     0.052 C 
ATOM     59  H47 non d ame     -11.837  14.395  68.685  0.00  0.00     0.082 H 
ATOM     60  H48 non d ame     -10.291  15.219  69.387  0.00  0.00     0.082 H 
BRANCH  58  61
ATOM     61  C35 non d ame     -11.980  15.086  70.726  0.00  0.00    -0.034 A 
ATOM     62  C30 non d ame     -12.736  13.980  71.100  0.00  0.00    -0.075 A 
ATOM     63  C31 non d ame     -13.279  13.906  72.382  0.00  0.00    -0.082 A 
ATOM     64  H49 non d ame     -12.903  13.172  70.390  0.00  0.00     0.084 H 
ATOM     65  C32 non d ame     -13.065  14.946  73.291  0.00  0.00    -0.083 A 
ATOM     66  H50 non d ame     -13.869  13.038  72.673  0.00  0.00     0.083 H 
ATOM     67  C33 non d ame     -12.312  16.050  72.913  0.00  0.00    -0.082 A 
ATOM     68  H51 non d ame     -13.486  14.897  74.296  0.00  0.00     0.083 H 
ATOM     69  C34 non d ame     -11.766  16.126  71.633  0.00  0.00    -0.075 A 
ATOM     70  H52 non d ame     -12.149  16.860  73.623  0.00  0.00     0.083 H 
ATOM     71  H53 non d ame     -11.175  16.996  71.343  0.00  0.00     0.084 H 
ENDBRANCH  58  61
ENDBRANCH  57  58
ENDBRANCH  55  57
ENDBRANCH  52  55
ENDBRANCH  49  52
ENDBRANCH  47  49
BRANCH  47  72
ATOM     72  C24 non d ame      -6.541  14.720  67.618  0.00  0.00    -0.039 C 
ATOM     73  H35 non d ame      -6.260  14.334  66.638  0.00  0.00     0.036 H 
ATOM     74  H36 non d ame      -6.205  15.709  67.931  0.00  0.00     0.036 H 
BRANCH  72  75
ATOM     75  C25 non d ame      -6.007  13.674  68.708  0.00  0.00    -0.001 C 
ATOM     76  C26 non d ame      -4.779  14.343  69.573  0.00  0.00    -0.035 C 
ATOM     77  C27 non d ame      -3.726  13.492  69.566  0.00  0.00     0.085 C 
ATOM     78  H38 non d ame      -4.398  15.225  69.059  0.00  0.00     0.036 H 
ATOM     79  H39 non d ame      -5.053  14.402  70.627  0.00  0.00     0.036 H 
ATOM     80  N5  non d ame      -4.004  12.453  68.507  0.00  0.00    -0.049 N 
ATOM     81  H40 non d ame      -2.868  14.092  69.260  0.00  0.00     0.075 H 
ATOM     82  H41 non d ame      -3.733  13.012  70.544  0.00  0.00     0.075 H 
ATOM     83  C28 non d ame      -5.571  12.595  68.146  0.00  0.00     0.193 C 
ATOM     84  H42 non d ame      -3.463  12.719  67.697  0.00  0.00     0.280 HD
ATOM     85  H43 non d ame      -3.854  11.554  68.941  0.00  0.00     0.280 HD
ATOM     86  H44 non d ame      -6.294  11.870  68.522  0.00  0.00     0.129 H 
ATOM     87  H37 non d ame      -6.819  13.215  69.272  0.00  0.00     0.046 H 
BRANCH  83  88
ATOM     88  O6  non d ame      -5.751  12.614  66.730  0.00  0.00    -0.369 OA
ATOM     89  H45 non d ame      -6.640  12.911  66.524  0.00  0.00     0.212 HD
ENDBRANCH  83  88
ENDBRANCH  72  75
ENDBRANCH  47  72
ENDBRANCH  45  47
ENDBRANCH   1  43
BRANCH   1  90
ATOM     90  C16 non d ame     -11.281  11.509  65.876  0.00  0.00    -0.035 C 
ATOM     91  H21 non d ame     -11.463  10.517  65.461  0.00  0.00     0.037 H 
ATOM     92  H22 non d ame     -11.441  11.691  66.938  0.00  0.00     0.037 H 
BRANCH  90  93
ATOM     93  C17 non d ame     -12.228  12.487  65.112  0.00  0.00    -0.059 C 
ATOM     94  H23 non d ame     -13.207  12.013  65.042  0.00  0.00     0.038 H 
BRANCH  93  95
ATOM     95  C18 non d ame     -12.407  13.844  65.864  0.00  0.00    -0.073 C 
ATOM     96  H24 non d ame     -13.421  13.907  66.262  0.00  0.00     0.028 H 
ATOM     97  H25 non d ame     -11.692  13.901  66.685  0.00  0.00     0.028 H 
ATOM     98  H26 non d ame     -12.235  14.669  65.174  0.00  0.00     0.028 H 
ENDBRANCH  93  95
BRANCH  93  99
ATOM     99  C19 non d ame     -11.733  12.719  63.681  0.00  0.00    -0.073 C 
ATOM    100  H27 non d ame     -12.198  13.618  63.278  0.00  0.00     0.028 H 
ATOM    101  H28 non d ame     -10.650  12.840  63.686  0.00  0.00     0.028 H 
ATOM    102  H29 non d ame     -12.001  11.863  63.062  0.00  0.00     0.028 H 
ENDBRANCH  93  99
ENDBRANCH  90  93
ENDBRANCH   1  90
TORSDOF 26
ENDMDL
MODEL 5
REMARK VINA RESULT:      -6.4      3.184      7.396
REMARK  26 active torsions:
REMARK  status: ('A' for Active; 'I' for Inactive)
REMARK    1  A    between atoms: C2_2  and  C3_3 
REMARK    2  A    between atoms: C4_6  and  C5_7 
REMARK       I    between atoms: C5_7  and  N2_9 
REMARK    3  A    between atoms: N2_9  and  C6_10 
REMARK    4  A    between atoms: C6_10  and  C7_11 
REMARK    5  A    between atoms: C6_10  and  C8_13 
REMARK       I    between atoms: C7_11  and  N3_14 
REMARK    6  A    between atoms: N3_14  and  C9_15 
REMARK    7  A    between atoms: C9_15  and  C10_16 
REMARK    8  A    between atoms: C9_15  and  C11_18 
REMARK       I    between atoms: C10_16  and  N4_21 
REMARK    9  A    between atoms: C11_18  and  C12_19 
REMARK   10  A    between atoms: C11_18  and  C13_20 
REMARK   11  A    between atoms: N4_21  and  C14_22 
REMARK   12  A    between atoms: C14_22  and  C15_23 
REMARK   13  A    between atoms: C14_22  and  C16_25 
REMARK       I    between atoms: C15_23  and  N6_40 
REMARK   14  A    between atoms: C16_25  and  C17_26 
REMARK   15  A    between atoms: C17_26  and  C18_27 
REMARK   16  A    between atoms: C17_26  and  C19_28 
REMARK   17  A    between atoms: C20_29  and  C21_30 
REMARK   18  A    between atoms: C20_29  and  C24_33 
REMARK   19  A    between atoms: C20_29  and  N6_40 
REMARK   20  A    between atoms: C21_30  and  C22_31 
REMARK   21  A    between atoms: C22_31  and  C23_32 
REMARK   22  A    between atoms: C23_32  and  O8_43 
REMARK   23  A    between atoms: C24_33  and  C25_34 
REMARK   24  A    between atoms: C28_38  and  O6_39 
REMARK   25  A    between atoms: C29_42  and  O8_43 
REMARK   26  A    between atoms: C29_42  and  C35_49 
ROOT
ATOM      1  C14 non d ame     -11.118   9.070  69.592  0.00  0.00     0.089 C 
ATOM      2  H20 non d ame     -12.042   8.535  69.377  0.00  0.00     0.087 H 
ENDROOT
BRANCH   1   3
ATOM      3  N4  non d ame     -10.093   8.079  69.880  0.00  0.00    -0.346 N 
ATOM      4  C10 non d ame     -10.434   6.610  69.885  0.00  0.00     0.241 C 
ATOM      5  O4  non d ame     -11.542   6.250  69.657  0.00  0.00    -0.271 OA
ATOM      6  H19 non d ame      -9.156   8.406  70.074  0.00  0.00     0.163 HD
BRANCH   4   7
ATOM      7  C9  non d ame      -9.359   5.597  70.180  0.00  0.00     0.092 C 
ATOM      8  H11 non d ame      -9.823   4.633  70.389  0.00  0.00     0.088 H 
BRANCH   7   9
ATOM      9  N3  non d ame      -8.515   5.421  68.994  0.00  0.00    -0.346 N 
ATOM     10  C7  non d ame      -8.730   4.300  68.114  0.00  0.00     0.240 C 
ATOM     11  O3  non d ame      -9.579   3.527  68.345  0.00  0.00    -0.271 OA
ATOM     12  H10 non d ame      -7.778   6.078  68.783  0.00  0.00     0.163 HD
BRANCH  10  13
ATOM     13  C6  non d ame      -7.826   4.117  66.856  0.00  0.00     0.086 C 
ATOM     14  H6  non d ame      -8.276   3.471  66.103  0.00  0.00     0.086 H 
BRANCH  13  15
ATOM     15  N2  non d ame      -7.626   5.412  66.228  0.00  0.00    -0.343 N 
ATOM     16  C5  non d ame      -8.252   5.690  64.933  0.00  0.00     0.273 C 
ATOM     17  O2  non d ame      -8.912   4.864  64.405  0.00  0.00    -0.266 OA
ATOM     18  H5  non d ame      -7.059   6.112  66.685  0.00  0.00     0.163 HD
BRANCH  16  19
ATOM     19  C4  non d ame      -8.051   7.055  64.258  0.00  0.00     0.154 A 
ATOM     20  C1  non d ame      -7.903   7.314  62.858  0.00  0.00    -0.017 A 
ATOM     21  C2  non d ame      -7.749   8.715  62.761  0.00  0.00     0.077 A 
ATOM     22  H1  non d ame      -7.906   6.596  62.037  0.00  0.00     0.091 H 
ATOM     23  O1  non d ame      -7.805   9.195  63.969  0.00  0.00    -0.218 OA
ATOM     24  N1  non d ame      -7.981   8.246  64.860  0.00  0.00    -0.123 NA
BRANCH  21  25
ATOM     25  C3  non d ame      -7.555   9.514  61.480  0.00  0.00    -0.029 C 
ATOM     26  H2  non d ame      -6.743   9.077  60.897  0.00  0.00     0.036 H 
ATOM     27  H3  non d ame      -8.475   9.492  60.895  0.00  0.00     0.036 H 
ATOM     28  H4  non d ame      -7.308  10.547  61.728  0.00  0.00     0.036 H 
ENDBRANCH  21  25
ENDBRANCH  16  19
ENDBRANCH  13  15
BRANCH  13  29
ATOM     29  C8  non d ame      -6.498   3.534  67.268  0.00  0.00    -0.049 C 
ATOM     30  H7  non d ame      -6.308   2.624  66.699  0.00  0.00     0.030 H 
ATOM     31  H8  non d ame      -5.707   4.258  67.071  0.00  0.00     0.030 H 
ATOM     32  H9  non d ame      -6.519   3.298  68.332  0.00  0.00     0.030 H 
ENDBRANCH  13  29
ENDBRANCH  10  13
ENDBRANCH   7   9
BRANCH   7  33
ATOM     33  C11 non d ame      -8.486   6.097  71.367  0.00  0.00    -0.033 C 
ATOM     34  H12 non d ame      -8.232   7.139  71.172  0.00  0.00     0.042 H 
BRANCH  33  35
ATOM     35  C12 non d ame      -9.275   6.050  72.713  0.00  0.00    -0.071 C 
ATOM     36  H13 non d ame      -9.804   5.100  72.790  0.00  0.00     0.028 H 
ATOM     37  H14 non d ame      -8.579   6.146  73.546  0.00  0.00     0.028 H 
ATOM     38  H15 non d ame      -9.991   6.870  72.742  0.00  0.00     0.028 H 
ENDBRANCH  33  35
BRANCH  33  39
ATOM     39  C13 non d ame      -7.154   5.284  71.462  0.00  0.00    -0.071 C 
ATOM     40  H16 non d ame      -6.591   5.612  72.335  0.00  0.00     0.028 H 
ATOM     41  H17 non d ame      -7.382   4.222  71.553  0.00  0.00     0.028 H 
ATOM     42  H18 non d ame      -6.562   5.453  70.563  0.00  0.00     0.028 H 
ENDBRANCH  33  39
ENDBRANCH   7  33
ENDBRANCH   4   7
ENDBRANCH   1   3
BRANCH   1  43
ATOM     43  C15 non d ame     -10.646   9.936  68.389  0.00  0.00     0.240 C 
ATOM     44  O5  non d ame     -10.398   9.416  67.348  0.00  0.00    -0.271 OA
ATOM     45  N6  non d ame     -10.511  11.413  68.529  0.00  0.00    -0.355 N 
ATOM     46  H46 non d ame     -10.722  11.867  69.407  0.00  0.00     0.162 HD
BRANCH  45  47
ATOM     47  C20 non d ame     -10.062  12.222  67.375  0.00  0.00     0.013 C 
ATOM     48  H30 non d ame      -9.546  11.558  66.682  0.00  0.00     0.072 H 
BRANCH  47  49
ATOM     49  C21 non d ame      -9.119  13.301  67.857  0.00  0.00    -0.038 C 
ATOM     50  H31 non d ame      -9.336  13.430  68.917  0.00  0.00     0.036 H 
ATOM     51  H32 non d ame      -8.125  12.986  67.537  0.00  0.00     0.036 H 
BRANCH  49  52
ATOM     52  C22 non d ame      -9.380  14.667  67.187  0.00  0.00     0.018 C 
ATOM     53  H33 non d ame      -8.461  14.916  66.654  0.00  0.00     0.048 H 
ATOM     54  H34 non d ame     -10.315  14.554  66.638  0.00  0.00     0.048 H 
BRANCH  52  55
ATOM     55  C23 non d ame      -9.613  15.825  68.198  0.00  0.00     0.259 C 
ATOM     56  O7  non d ame      -9.197  16.914  67.972  0.00  0.00    -0.265 OA
BRANCH  55  57
ATOM     57  O8  non d ame     -10.318  15.565  69.405  0.00  0.00    -0.317 OA
BRANCH  57  58
ATOM     58  C29 non d ame     -11.739  15.507  69.250  0.00  0.00     0.052 C 
ATOM     59  H47 non d ame     -12.012  16.403  68.694  0.00  0.00     0.082 H 
ATOM     60  H48 non d ame     -11.951  14.522  68.834  0.00  0.00     0.082 H 
BRANCH  58  61
ATOM     61  C35 non d ame     -12.379  15.592  70.662  0.00  0.00    -0.034 A 
ATOM     62  C30 non d ame     -13.676  15.134  70.867  0.00  0.00    -0.075 A 
ATOM     63  C31 non d ame     -14.250  15.209  72.135  0.00  0.00    -0.082 A 
ATOM     64  H49 non d ame     -14.242  14.715  70.036  0.00  0.00     0.084 H 
ATOM     65  C32 non d ame     -13.523  15.748  73.199  0.00  0.00    -0.083 A 
ATOM     66  H50 non d ame     -15.266  14.848  72.293  0.00  0.00     0.083 H 
ATOM     67  C33 non d ame     -12.230  16.207  72.989  0.00  0.00    -0.082 A 
ATOM     68  H51 non d ame     -13.965  15.811  74.194  0.00  0.00     0.083 H 
ATOM     69  C34 non d ame     -11.651  16.131  71.724  0.00  0.00    -0.075 A 
ATOM     70  H52 non d ame     -11.666  16.630  73.822  0.00  0.00     0.083 H 
ATOM     71  H53 non d ame     -10.634  16.493  71.567  0.00  0.00     0.084 H 
ENDBRANCH  58  61
ENDBRANCH  57  58
ENDBRANCH  55  57
ENDBRANCH  52  55
ENDBRANCH  49  52
ENDBRANCH  47  49
BRANCH  47  72
ATOM     72  C24 non d ame     -11.269  12.865  66.696  0.00  0.00    -0.039 C 
ATOM     73  H35 non d ame     -12.079  12.802  67.422  0.00  0.00     0.036 H 
ATOM     74  H36 non d ame     -10.922  13.839  66.349  0.00  0.00     0.036 H 
BRANCH  72  75
ATOM     75  C25 non d ame     -11.730  12.040  65.402  0.00  0.00    -0.001 C 
ATOM     76  C26 non d ame     -10.414  11.425  64.631  0.00  0.00    -0.035 C 
ATOM     77  C27 non d ame     -10.477  11.763  63.321  0.00  0.00     0.085 C 
ATOM     78  H38 non d ame      -9.510  11.924  64.979  0.00  0.00     0.036 H 
ATOM     79  H39 non d ame     -10.464  10.336  64.616  0.00  0.00     0.036 H 
ATOM     80  N5  non d ame     -11.542  12.825  63.190  0.00  0.00    -0.049 N 
ATOM     81  H40 non d ame      -9.507  12.202  63.086  0.00  0.00     0.075 H 
ATOM     82  H41 non d ame     -10.809  10.863  62.804  0.00  0.00     0.075 H 
ATOM     83  C28 non d ame     -12.375  12.792  64.573  0.00  0.00     0.193 C 
ATOM     84  H42 non d ame     -11.058  13.710  63.128  0.00  0.00     0.280 HD
ATOM     85  H43 non d ame     -12.151  12.530  62.441  0.00  0.00     0.280 HD
ATOM     86  H44 non d ame     -13.362  12.331  64.614  0.00  0.00     0.129 H 
ATOM     87  H37 non d ame     -12.544  11.349  65.621  0.00  0.00     0.046 H 
BRANCH  83  88
ATOM     88  O6  non d ame     -12.551  14.118  65.074  0.00  0.00    -0.369 OA
ATOM     89  H45 non d ame     -11.693  14.528  65.204  0.00  0.00     0.212 HD
ENDBRANCH  83  88
ENDBRANCH  72  75
ENDBRANCH  47  72
ENDBRANCH  45  47
ENDBRANCH   1  43
BRANCH   1  90
ATOM     90  C16 non d ame     -11.309   9.956  70.814  0.00  0.00    -0.035 C 
ATOM     91  H21 non d ame     -10.865   9.404  71.643  0.00  0.00     0.037 H 
ATOM     92  H22 non d ame     -10.908  10.928  70.531  0.00  0.00     0.037 H 
BRANCH  90  93
ATOM     93  C17 non d ame     -12.807  10.188  71.191  0.00  0.00    -0.059 C 
ATOM     94  H23 non d ame     -13.395  10.094  70.279  0.00  0.00     0.038 H 
BRANCH  93  95
ATOM     95  C18 non d ame     -13.331   9.125  72.208  0.00  0.00    -0.073 C 
ATOM     96  H24 non d ame     -12.548   8.898  72.932  0.00  0.00     0.028 H 
ATOM     97  H25 non d ame     -14.203   9.519  72.729  0.00  0.00     0.028 H 
ATOM     98  H26 non d ame     -13.607   8.216  71.674  0.00  0.00     0.028 H 
ENDBRANCH  93  95
BRANCH  93  99
ATOM     99  C19 non d ame     -13.022  11.606  71.726  0.00  0.00    -0.073 C 
ATOM    100  H27 non d ame     -13.595  12.184  71.001  0.00  0.00     0.028 H 
ATOM    101  H28 non d ame     -13.568  11.560  72.668  0.00  0.00     0.028 H 
ATOM    102  H29 non d ame     -12.056  12.084  71.888  0.00  0.00     0.028 H 
ENDBRANCH  93  99
ENDBRANCH  90  93
ENDBRANCH   1  90
TORSDOF 26
ENDMDL
MODEL 6
REMARK VINA RESULT:      -6.4      2.976      8.320
REMARK  26 active torsions:
REMARK  status: ('A' for Active; 'I' for Inactive)
REMARK    1  A    between atoms: C2_2  and  C3_3 
REMARK    2  A    between atoms: C4_6  and  C5_7 
REMARK       I    between atoms: C5_7  and  N2_9 
REMARK    3  A    between atoms: N2_9  and  C6_10 
REMARK    4  A    between atoms: C6_10  and  C7_11 
REMARK    5  A    between atoms: C6_10  and  C8_13 
REMARK       I    between atoms: C7_11  and  N3_14 
REMARK    6  A    between atoms: N3_14  and  C9_15 
REMARK    7  A    between atoms: C9_15  and  C10_16 
REMARK    8  A    between atoms: C9_15  and  C11_18 
REMARK       I    between atoms: C10_16  and  N4_21 
REMARK    9  A    between atoms: C11_18  and  C12_19 
REMARK   10  A    between atoms: C11_18  and  C13_20 
REMARK   11  A    between atoms: N4_21  and  C14_22 
REMARK   12  A    between atoms: C14_22  and  C15_23 
REMARK   13  A    between atoms: C14_22  and  C16_25 
REMARK       I    between atoms: C15_23  and  N6_40 
REMARK   14  A    between atoms: C16_25  and  C17_26 
REMARK   15  A    between atoms: C17_26  and  C18_27 
REMARK   16  A    between atoms: C17_26  and  C19_28 
REMARK   17  A    between atoms: C20_29  and  C21_30 
REMARK   18  A    between atoms: C20_29  and  C24_33 
REMARK   19  A    between atoms: C20_29  and  N6_40 
REMARK   20  A    between atoms: C21_30  and  C22_31 
REMARK   21  A    between atoms: C22_31  and  C23_32 
REMARK   22  A    between atoms: C23_32  and  O8_43 
REMARK   23  A    between atoms: C24_33  and  C25_34 
REMARK   24  A    between atoms: C28_38  and  O6_39 
REMARK   25  A    between atoms: C29_42  and  O8_43 
REMARK   26  A    between atoms: C29_42  and  C35_49 
ROOT
ATOM      1  C14 non d ame      -7.571   9.776  66.398  0.00  0.00     0.089 C 
ATOM      2  H20 non d ame      -7.742   8.897  65.777  0.00  0.00     0.087 H 
ENDROOT
BRANCH   1   3
ATOM      3  N4  non d ame      -8.596  10.754  66.066  0.00  0.00    -0.346 N 
ATOM      4  C10 non d ame      -9.973  10.302  65.649  0.00  0.00     0.241 C 
ATOM      5  O4  non d ame     -10.231   9.145  65.586  0.00  0.00    -0.271 OA
ATOM      6  H19 non d ame      -8.355  11.734  66.124  0.00  0.00     0.163 HD
BRANCH   4   7
ATOM      7  C9  non d ame     -11.024  11.328  65.315  0.00  0.00     0.092 C 
ATOM      8  H11 non d ame     -11.981  11.008  65.727  0.00  0.00     0.088 H 
BRANCH   7   9
ATOM      9  N3  non d ame     -10.683  12.603  65.953  0.00  0.00    -0.346 N 
ATOM     10  C7  non d ame     -11.244  12.940  67.237  0.00  0.00     0.240 C 
ATOM     11  O3  non d ame     -11.974  12.197  67.772  0.00  0.00    -0.271 OA
ATOM     12  H10 non d ame     -10.057  13.255  65.503  0.00  0.00     0.163 HD
BRANCH  10  13
ATOM     13  C6  non d ame     -10.880  14.301  67.909  0.00  0.00     0.086 C 
ATOM     14  H6  non d ame     -11.451  15.137  67.506  0.00  0.00     0.086 H 
BRANCH  13  15
ATOM     15  N2  non d ame     -11.196  14.226  69.326  0.00  0.00    -0.343 N 
ATOM     16  C5  non d ame     -12.092  15.222  69.918  0.00  0.00     0.273 C 
ATOM     17  O2  non d ame     -12.550  16.081  69.247  0.00  0.00    -0.266 OA
ATOM     18  H5  non d ame     -10.799  13.491  69.892  0.00  0.00     0.163 HD
BRANCH  16  19
ATOM     19  C4  non d ame     -12.436  15.155  71.414  0.00  0.00     0.154 A 
ATOM     20  C1  non d ame     -11.995  16.045  72.444  0.00  0.00    -0.017 A 
ATOM     21  C2  non d ame     -12.586  15.552  73.629  0.00  0.00     0.077 A 
ATOM     22  H1  non d ame     -11.346  16.915  72.347  0.00  0.00     0.091 H 
ATOM     23  O1  non d ame     -13.285  14.502  73.306  0.00  0.00    -0.218 OA
ATOM     24  N1  non d ame     -13.212  14.250  72.019  0.00  0.00    -0.123 NA
BRANCH  21  25
ATOM     25  C3  non d ame     -12.436  16.142  75.024  0.00  0.00    -0.029 C 
ATOM     26  H2  non d ame     -13.046  17.042  75.107  0.00  0.00     0.036 H 
ATOM     27  H3  non d ame     -12.763  15.412  75.764  0.00  0.00     0.036 H 
ATOM     28  H4  non d ame     -11.390  16.395  75.202  0.00  0.00     0.036 H 
ENDBRANCH  21  25
ENDBRANCH  16  19
ENDBRANCH  13  15
BRANCH  13  29
ATOM     29  C8  non d ame      -9.411  14.579  67.722  0.00  0.00    -0.049 C 
ATOM     30  H7  non d ame      -8.995  13.875  67.001  0.00  0.00     0.030 H 
ATOM     31  H8  non d ame      -9.278  15.598  67.354  0.00  0.00     0.030 H 
ATOM     32  H9  non d ame      -8.896  14.468  68.676  0.00  0.00     0.030 H 
ENDBRANCH  13  29
ENDBRANCH  10  13
ENDBRANCH   7   9
BRANCH   7  33
ATOM     33  C11 non d ame     -11.087  11.523  63.772  0.00  0.00    -0.033 C 
ATOM     34  H12 non d ame     -11.586  10.650  63.351  0.00  0.00     0.042 H 
BRANCH  33  35
ATOM     35  C12 non d ame     -11.935  12.776  63.391  0.00  0.00    -0.071 C 
ATOM     36  H13 non d ame     -11.515  13.659  63.874  0.00  0.00     0.028 H 
ATOM     37  H14 non d ame     -11.918  12.912  62.310  0.00  0.00     0.028 H 
ATOM     38  H15 non d ame     -12.962  12.633  63.723  0.00  0.00     0.028 H 
ENDBRANCH  33  35
BRANCH  33  39
ATOM     39  C13 non d ame      -9.652  11.602  63.159  0.00  0.00    -0.071 C 
ATOM     40  H16 non d ame      -8.936  11.853  63.942  0.00  0.00     0.028 H 
ATOM     41  H17 non d ame      -9.389  10.638  62.722  0.00  0.00     0.028 H 
ATOM     42  H18 non d ame      -9.630  12.370  62.387  0.00  0.00     0.028 H 
ENDBRANCH  33  39
ENDBRANCH   7  33
ENDBRANCH   4   7
ENDBRANCH   1   3
BRANCH   1  43
ATOM     43  C15 non d ame      -7.668   9.452  67.916  0.00  0.00     0.240 C 
ATOM     44  O5  non d ame      -6.910   9.961  68.679  0.00  0.00    -0.271 OA
ATOM     45  N6  non d ame      -8.710   8.515  68.422  0.00  0.00    -0.355 N 
ATOM     46  H46 non d ame      -9.362   8.080  67.784  0.00  0.00     0.162 HD
BRANCH  45  47
ATOM     47  C20 non d ame      -8.790   8.219  69.868  0.00  0.00     0.013 C 
ATOM     48  H30 non d ame      -8.444   9.099  70.410  0.00  0.00     0.072 H 
BRANCH  47  49
ATOM     49  C21 non d ame      -7.905   7.035  70.186  0.00  0.00    -0.038 C 
ATOM     50  H31 non d ame      -6.988   7.192  69.617  0.00  0.00     0.036 H 
ATOM     51  H32 non d ame      -7.869   6.979  71.275  0.00  0.00     0.036 H 
BRANCH  49  52
ATOM     52  C22 non d ame      -8.497   5.695  69.700  0.00  0.00     0.018 C 
ATOM     53  H33 non d ame      -8.215   4.957  70.452  0.00  0.00     0.048 H 
ATOM     54  H34 non d ame      -9.551   5.893  69.499  0.00  0.00     0.048 H 
BRANCH  52  55
ATOM     55  C23 non d ame      -7.892   5.193  68.360  0.00  0.00     0.259 C 
ATOM     56  O7  non d ame      -6.741   4.907  68.288  0.00  0.00    -0.265 OA
BRANCH  55  57
ATOM     57  O8  non d ame      -8.726   5.090  67.213  0.00  0.00    -0.317 OA
BRANCH  57  58
ATOM     58  C29 non d ame      -8.160   5.656  66.027  0.00  0.00     0.052 C 
ATOM     59  H47 non d ame      -8.415   6.715  66.054  0.00  0.00     0.082 H 
ATOM     60  H48 non d ame      -7.114   5.348  66.024  0.00  0.00     0.082 H 
BRANCH  58  61
ATOM     61  C35 non d ame      -8.865   5.011  64.805  0.00  0.00    -0.034 A 
ATOM     62  C30 non d ame      -9.965   4.180  64.993  0.00  0.00    -0.075 A 
ATOM     63  C31 non d ame     -10.598   3.600  63.895  0.00  0.00    -0.082 A 
ATOM     64  H49 non d ame     -10.330   3.984  66.001  0.00  0.00     0.084 H 
ATOM     65  C32 non d ame     -10.126   3.852  62.604  0.00  0.00    -0.083 A 
ATOM     66  H50 non d ame     -11.461   2.952  64.046  0.00  0.00     0.083 H 
ATOM     67  C33 non d ame      -9.026   4.679  62.420  0.00  0.00    -0.082 A 
ATOM     68  H51 non d ame     -10.616   3.403  61.740  0.00  0.00     0.083 H 
ATOM     69  C34 non d ame      -8.392   5.262  63.516  0.00  0.00    -0.075 A 
ATOM     70  H52 non d ame      -8.659   4.871  61.412  0.00  0.00     0.083 H 
ATOM     71  H53 non d ame      -7.528   5.912  63.363  0.00  0.00     0.084 H 
ENDBRANCH  58  61
ENDBRANCH  57  58
ENDBRANCH  55  57
ENDBRANCH  52  55
ENDBRANCH  49  52
ENDBRANCH  47  49
BRANCH  47  72
ATOM     72  C24 non d ame     -10.233   7.894  70.250  0.00  0.00    -0.039 C 
ATOM     73  H35 non d ame     -10.771   7.812  69.306  0.00  0.00     0.036 H 
ATOM     74  H36 non d ame     -10.170   7.034  70.917  0.00  0.00     0.036 H 
BRANCH  72  75
ATOM     75  C25 non d ame     -10.910   9.086  71.078  0.00  0.00    -0.001 C 
ATOM     76  C26 non d ame     -11.941   8.474  72.203  0.00  0.00    -0.035 C 
ATOM     77  C27 non d ame     -13.140   9.090  72.078  0.00  0.00     0.085 C 
ATOM     78  H38 non d ame     -12.166   7.432  71.974  0.00  0.00     0.036 H 
ATOM     79  H39 non d ame     -11.612   8.754  73.204  0.00  0.00     0.036 H 
ATOM     80  N5  non d ame     -13.120   9.833  70.764  0.00  0.00    -0.049 N 
ATOM     81  H40 non d ame     -13.877   8.288  72.022  0.00  0.00     0.075 H 
ATOM     82  H41 non d ame     -13.181   9.813  72.893  0.00  0.00     0.075 H 
ATOM     83  C28 non d ame     -11.574   9.876  70.301  0.00  0.00     0.193 C 
ATOM     84  H42 non d ame     -13.636   9.265  70.107  0.00  0.00     0.280 HD
ATOM     85  H43 non d ame     -13.423  10.775  70.962  0.00  0.00     0.280 HD
ATOM     86  H44 non d ame     -10.991  10.792  70.404  0.00  0.00     0.129 H 
ATOM     87  H37 non d ame     -10.178   9.817  71.422  0.00  0.00     0.046 H 
BRANCH  83  88
ATOM     88  O6  non d ame     -11.460   9.503  68.927  0.00  0.00    -0.369 OA
ATOM     89  H45 non d ame     -10.701   8.928  68.814  0.00  0.00     0.212 HD
ENDBRANCH  83  88
ENDBRANCH  72  75
ENDBRANCH  47  72
ENDBRANCH  45  47
ENDBRANCH   1  43
BRANCH   1  90
ATOM     90  C16 non d ame      -6.203  10.366  66.087  0.00  0.00    -0.035 C 
ATOM     91  H21 non d ame      -6.399  11.379  65.736  0.00  0.00     0.037 H 
ATOM     92  H22 non d ame      -5.610  10.207  66.987  0.00  0.00     0.037 H 
BRANCH  90  93
ATOM     93  C17 non d ame      -5.454   9.634  64.929  0.00  0.00    -0.059 C 
ATOM     94  H23 non d ame      -4.595   9.122  65.362  0.00  0.00     0.038 H 
BRANCH  93  95
ATOM     95  C18 non d ame      -6.349   8.561  64.233  0.00  0.00    -0.073 C 
ATOM     96  H24 non d ame      -6.448   7.692  64.885  0.00  0.00     0.028 H 
ATOM     97  H25 non d ame      -7.335   8.981  64.037  0.00  0.00     0.028 H 
ATOM     98  H26 non d ame      -5.890   8.259  63.292  0.00  0.00     0.028 H 
ENDBRANCH  93  95
BRANCH  93  99
ATOM     99  C19 non d ame      -4.914  10.639  63.908  0.00  0.00    -0.073 C 
ATOM    100  H27 non d ame      -5.568  10.658  63.036  0.00  0.00     0.028 H 
ATOM    101  H28 non d ame      -4.879  11.631  64.358  0.00  0.00     0.028 H 
ATOM    102  H29 non d ame      -3.911  10.343  63.602  0.00  0.00     0.028 H 
ENDBRANCH  93  99
ENDBRANCH  90  93
ENDBRANCH   1  90
TORSDOF 26
ENDMDL
MODEL 7
REMARK VINA RESULT:      -6.3      2.721      7.880
REMARK  26 active torsions:
REMARK  status: ('A' for Active; 'I' for Inactive)
REMARK    1  A    between atoms: C2_2  and  C3_3 
REMARK    2  A    between atoms: C4_6  and  C5_7 
REMARK       I    between atoms: C5_7  and  N2_9 
REMARK    3  A    between atoms: N2_9  and  C6_10 
REMARK    4  A    between atoms: C6_10  and  C7_11 
REMARK    5  A    between atoms: C6_10  and  C8_13 
REMARK       I    between atoms: C7_11  and  N3_14 
REMARK    6  A    between atoms: N3_14  and  C9_15 
REMARK    7  A    between atoms: C9_15  and  C10_16 
REMARK    8  A    between atoms: C9_15  and  C11_18 
REMARK       I    between atoms: C10_16  and  N4_21 
REMARK    9  A    between atoms: C11_18  and  C12_19 
REMARK   10  A    between atoms: C11_18  and  C13_20 
REMARK   11  A    between atoms: N4_21  and  C14_22 
REMARK   12  A    between atoms: C14_22  and  C15_23 
REMARK   13  A    between atoms: C14_22  and  C16_25 
REMARK       I    between atoms: C15_23  and  N6_40 
REMARK   14  A    between atoms: C16_25  and  C17_26 
REMARK   15  A    between atoms: C17_26  and  C18_27 
REMARK   16  A    between atoms: C17_26  and  C19_28 
REMARK   17  A    between atoms: C20_29  and  C21_30 
REMARK   18  A    between atoms: C20_29  and  C24_33 
REMARK   19  A    between atoms: C20_29  and  N6_40 
REMARK   20  A    between atoms: C21_30  and  C22_31 
REMARK   21  A    between atoms: C22_31  and  C23_32 
REMARK   22  A    between atoms: C23_32  and  O8_43 
REMARK   23  A    between atoms: C24_33  and  C25_34 
REMARK   24  A    between atoms: C28_38  and  O6_39 
REMARK   25  A    between atoms: C29_42  and  O8_43 
REMARK   26  A    between atoms: C29_42  and  C35_49 
ROOT
ATOM      1  C14 non d ame     -10.162   9.327  66.939  0.00  0.00     0.089 C 
ATOM      2  H20 non d ame     -11.183   8.947  66.990  0.00  0.00     0.087 H 
ENDROOT
BRANCH   1   3
ATOM      3  N4  non d ame     -10.236  10.734  66.572  0.00  0.00    -0.346 N 
ATOM      4  C10 non d ame     -11.343  11.605  67.111  0.00  0.00     0.241 C 
ATOM      5  O4  non d ame     -12.165  11.150  67.836  0.00  0.00    -0.271 OA
ATOM      6  H19 non d ame      -9.528  11.101  65.951  0.00  0.00     0.163 HD
BRANCH   4   7
ATOM      7  C9  non d ame     -11.401  13.059  66.725  0.00  0.00     0.092 C 
ATOM      8  H11 non d ame     -12.437  13.397  66.754  0.00  0.00     0.088 H 
BRANCH   7   9
ATOM      9  N3  non d ame     -10.659  13.855  67.708  0.00  0.00    -0.346 N 
ATOM     10  C7  non d ame     -11.347  14.433  68.836  0.00  0.00     0.240 C 
ATOM     11  O3  non d ame     -12.499  14.269  68.968  0.00  0.00    -0.271 OA
ATOM     12  H10 non d ame      -9.666  14.007  67.606  0.00  0.00     0.163 HD
BRANCH  10  13
ATOM     13  C6  non d ame     -10.552  15.282  69.876  0.00  0.00     0.086 C 
ATOM     14  H6  non d ame      -9.607  14.821  70.164  0.00  0.00     0.086 H 
BRANCH  13  15
ATOM     15  N2  non d ame     -10.224  16.567  69.282  0.00  0.00    -0.343 N 
ATOM     16  C5  non d ame      -8.934  16.742  68.609  0.00  0.00     0.273 C 
ATOM     17  O2  non d ame      -8.168  15.843  68.553  0.00  0.00    -0.266 OA
ATOM     18  H5  non d ame     -10.883  17.330  69.336  0.00  0.00     0.163 HD
BRANCH  16  19
ATOM     19  C4  non d ame      -8.574  18.094  67.975  0.00  0.00     0.154 A 
ATOM     20  C1  non d ame      -7.347  18.817  68.118  0.00  0.00    -0.017 A 
ATOM     21  C2  non d ame      -7.521  19.986  67.344  0.00  0.00     0.077 A 
ATOM     22  H1  non d ame      -6.466  18.537  68.696  0.00  0.00     0.091 H 
ATOM     23  O1  non d ame      -8.711  19.930  66.820  0.00  0.00    -0.218 OA
ATOM     24  N1  non d ame      -9.345  18.836  67.174  0.00  0.00    -0.123 NA
BRANCH  21  25
ATOM     25  C3  non d ame      -6.503  21.102  67.156  0.00  0.00    -0.029 C 
ATOM     26  H2  non d ame      -6.545  21.782  68.008  0.00  0.00     0.036 H 
ATOM     27  H3  non d ame      -5.504  20.674  67.083  0.00  0.00     0.036 H 
ATOM     28  H4  non d ame      -6.730  21.652  66.242  0.00  0.00     0.036 H 
ENDBRANCH  21  25
ENDBRANCH  16  19
ENDBRANCH  13  15
BRANCH  13  29
ATOM     29  C8  non d ame     -11.392  15.484  71.111  0.00  0.00    -0.049 C 
ATOM     30  H7  non d ame     -11.226  16.488  71.504  0.00  0.00     0.030 H 
ATOM     31  H8  non d ame     -12.446  15.363  70.857  0.00  0.00     0.030 H 
ATOM     32  H9  non d ame     -11.113  14.749  71.865  0.00  0.00     0.030 H 
ENDBRANCH  13  29
ENDBRANCH  10  13
ENDBRANCH   7   9
BRANCH   7  33
ATOM     33  C11 non d ame     -10.762  13.249  65.318  0.00  0.00    -0.033 C 
ATOM     34  H12 non d ame      -9.961  12.517  65.220  0.00  0.00     0.042 H 
BRANCH  33  35
ATOM     35  C12 non d ame     -11.795  12.970  64.183  0.00  0.00    -0.071 C 
ATOM     36  H13 non d ame     -11.363  13.250  63.222  0.00  0.00     0.028 H 
ATOM     37  H14 non d ame     -12.047  11.910  64.173  0.00  0.00     0.028 H 
ATOM     38  H15 non d ame     -12.697  13.556  64.361  0.00  0.00     0.028 H 
ENDBRANCH  33  35
BRANCH  33  39
ATOM     39  C13 non d ame     -10.135  14.673  65.177  0.00  0.00    -0.071 C 
ATOM     40  H16 non d ame     -10.593  15.189  64.333  0.00  0.00     0.028 H 
ATOM     41  H17 non d ame     -10.313  15.241  66.091  0.00  0.00     0.028 H 
ATOM     42  H18 non d ame      -9.063  14.582  65.009  0.00  0.00     0.028 H 
ENDBRANCH  33  39
ENDBRANCH   7  33
ENDBRANCH   4   7
ENDBRANCH   1   3
BRANCH   1  43
ATOM     43  C15 non d ame      -9.423   9.209  68.302  0.00  0.00     0.240 C 
ATOM     44  O5  non d ame      -8.474   9.892  68.521  0.00  0.00    -0.271 OA
ATOM     45  N6  non d ame      -9.901   8.251  69.338  0.00  0.00    -0.355 N 
ATOM     46  H46 non d ame     -10.707   7.668  69.166  0.00  0.00     0.162 HD
BRANCH  45  47
ATOM     47  C20 non d ame      -9.187   8.151  70.630  0.00  0.00     0.013 C 
ATOM     48  H30 non d ame      -8.296   8.776  70.569  0.00  0.00     0.072 H 
BRANCH  47  49
ATOM     49  C21 non d ame      -8.793   6.712  70.874  0.00  0.00    -0.038 C 
ATOM     50  H31 non d ame      -7.738   6.738  71.149  0.00  0.00     0.036 H 
ATOM     51  H32 non d ame      -9.531   6.321  71.576  0.00  0.00     0.036 H 
BRANCH  49  52
ATOM     52  C22 non d ame      -8.892   5.839  69.605  0.00  0.00     0.018 C 
ATOM     53  H33 non d ame      -9.247   4.865  69.942  0.00  0.00     0.048 H 
ATOM     54  H34 non d ame      -9.483   6.418  68.894  0.00  0.00     0.048 H 
BRANCH  52  55
ATOM     55  C23 non d ame      -7.524   5.580  68.915  0.00  0.00     0.259 C 
ATOM     56  O7  non d ame      -6.544   6.132  69.295  0.00  0.00    -0.265 OA
BRANCH  55  57
ATOM     57  O8  non d ame      -7.458   4.685  67.812  0.00  0.00    -0.317 OA
BRANCH  57  58
ATOM     58  C29 non d ame      -8.393   4.973  66.769  0.00  0.00     0.052 C 
ATOM     59  H47 non d ame      -8.941   4.047  66.599  0.00  0.00     0.082 H 
ATOM     60  H48 non d ame      -8.925   5.869  67.089  0.00  0.00     0.082 H 
BRANCH  58  61
ATOM     61  C35 non d ame      -7.590   5.312  65.485  0.00  0.00    -0.034 A 
ATOM     62  C30 non d ame      -6.204   5.419  65.539  0.00  0.00    -0.075 A 
ATOM     63  C31 non d ame      -5.482   5.723  64.386  0.00  0.00    -0.082 A 
ATOM     64  H49 non d ame      -5.684   5.264  66.483  0.00  0.00     0.084 H 
ATOM     65  C32 non d ame      -6.152   5.923  63.176  0.00  0.00    -0.083 A 
ATOM     66  H50 non d ame      -4.396   5.804  64.431  0.00  0.00     0.083 H 
ATOM     67  C33 non d ame      -7.536   5.819  63.127  0.00  0.00    -0.082 A 
ATOM     68  H51 non d ame      -5.595   6.161  62.269  0.00  0.00     0.083 H 
ATOM     69  C34 non d ame      -8.261   5.512  64.277  0.00  0.00    -0.075 A 
ATOM     70  H52 non d ame      -8.055   5.977  62.182  0.00  0.00     0.083 H 
ATOM     71  H53 non d ame      -9.348   5.431  64.231  0.00  0.00     0.084 H 
ENDBRANCH  58  61
ENDBRANCH  57  58
ENDBRANCH  55  57
ENDBRANCH  52  55
ENDBRANCH  49  52
ENDBRANCH  47  49
BRANCH  47  72
ATOM     72  C24 non d ame     -10.095   8.630  71.760  0.00  0.00    -0.039 C 
ATOM     73  H35 non d ame      -9.972   7.901  72.561  0.00  0.00     0.036 H 
ATOM     74  H36 non d ame      -9.826   9.674  71.927  0.00  0.00     0.036 H 
BRANCH  72  75
ATOM     75  C25 non d ame     -11.639   8.605  71.331  0.00  0.00    -0.001 C 
ATOM     76  C26 non d ame     -12.205  10.141  71.182  0.00  0.00    -0.035 C 
ATOM     77  C27 non d ame     -13.344  10.259  71.905  0.00  0.00     0.085 C 
ATOM     78  H38 non d ame     -11.523  10.839  71.667  0.00  0.00     0.036 H 
ATOM     79  H39 non d ame     -12.533  10.322  70.158  0.00  0.00     0.036 H 
ATOM     80  N5  non d ame     -13.431   9.041  72.794  0.00  0.00    -0.049 N 
ATOM     81  H40 non d ame     -13.205  11.144  72.527  0.00  0.00     0.075 H 
ATOM     82  H41 non d ame     -14.155  10.225  71.178  0.00  0.00     0.075 H 
ATOM     83  C28 non d ame     -12.357   7.986  72.208  0.00  0.00     0.193 C 
ATOM     84  H42 non d ame     -13.125   9.334  73.711  0.00  0.00     0.280 HD
ATOM     85  H43 non d ame     -14.357   8.660  72.668  0.00  0.00     0.280 HD
ATOM     86  H44 non d ame     -12.688   7.127  71.625  0.00  0.00     0.129 H 
ATOM     87  H37 non d ame     -11.825   7.925  70.499  0.00  0.00     0.046 H 
BRANCH  83  88
ATOM     88  O6  non d ame     -11.568   7.447  73.269  0.00  0.00    -0.369 OA
ATOM     89  H45 non d ame     -11.814   6.532  73.418  0.00  0.00     0.212 HD
ENDBRANCH  83  88
ENDBRANCH  72  75
ENDBRANCH  47  72
ENDBRANCH  45  47
ENDBRANCH   1  43
BRANCH   1  90
ATOM     90  C16 non d ame      -9.386   8.575  65.869  0.00  0.00    -0.035 C 
ATOM     91  H21 non d ame      -8.720   7.906  66.414  0.00  0.00     0.037 H 
ATOM     92  H22 non d ame     -10.141   8.165  65.199  0.00  0.00     0.037 H 
BRANCH  90  93
ATOM     93  C17 non d ame      -8.472   9.492  64.996  0.00  0.00    -0.059 C 
ATOM     94  H23 non d ame      -8.676  10.525  65.278  0.00  0.00     0.038 H 
BRANCH  93  95
ATOM     95  C18 non d ame      -6.954   9.221  65.244  0.00  0.00    -0.073 C 
ATOM     96  H24 non d ame      -6.661   8.304  64.733  0.00  0.00     0.028 H 
ATOM     97  H25 non d ame      -6.368  10.055  64.857  0.00  0.00     0.028 H 
ATOM     98  H26 non d ame      -6.773   9.116  66.313  0.00  0.00     0.028 H 
ENDBRANCH  93  95
BRANCH  93  99
ATOM     99  C19 non d ame      -8.816   9.351  63.511  0.00  0.00    -0.073 C 
ATOM    100  H27 non d ame      -9.173  10.308  63.129  0.00  0.00     0.028 H 
ATOM    101  H28 non d ame      -7.926   9.048  62.959  0.00  0.00     0.028 H 
ATOM    102  H29 non d ame      -9.594   8.599  63.388  0.00  0.00     0.028 H 
ENDBRANCH  93  99
ENDBRANCH  90  93
ENDBRANCH   1  90
TORSDOF 26
ENDMDL
MODEL 8
REMARK VINA RESULT:      -6.3      2.705      6.526
REMARK  26 active torsions:
REMARK  status: ('A' for Active; 'I' for Inactive)
REMARK    1  A    between atoms: C2_2  and  C3_3 
REMARK    2  A    between atoms: C4_6  and  C5_7 
REMARK       I    between atoms: C5_7  and  N2_9 
REMARK    3  A    between atoms: N2_9  and  C6_10 
REMARK    4  A    between atoms: C6_10  and  C7_11 
REMARK    5  A    between atoms: C6_10  and  C8_13 
REMARK       I    between atoms: C7_11  and  N3_14 
REMARK    6  A    between atoms: N3_14  and  C9_15 
REMARK    7  A    between atoms: C9_15  and  C10_16 
REMARK    8  A    between atoms: C9_15  and  C11_18 
REMARK       I    between atoms: C10_16  and  N4_21 
REMARK    9  A    between atoms: C11_18  and  C12_19 
REMARK   10  A    between atoms: C11_18  and  C13_20 
REMARK   11  A    between atoms: N4_21  and  C14_22 
REMARK   12  A    between atoms: C14_22  and  C15_23 
REMARK   13  A    between atoms: C14_22  and  C16_25 
REMARK       I    between atoms: C15_23  and  N6_40 
REMARK   14  A    between atoms: C16_25  and  C17_26 
REMARK   15  A    between atoms: C17_26  and  C18_27 
REMARK   16  A    between atoms: C17_26  and  C19_28 
REMARK   17  A    between atoms: C20_29  and  C21_30 
REMARK   18  A    between atoms: C20_29  and  C24_33 
REMARK   19  A    between atoms: C20_29  and  N6_40 
REMARK   20  A    between atoms: C21_30  and  C22_31 
REMARK   21  A    between atoms: C22_31  and  C23_32 
REMARK   22  A    between atoms: C23_32  and  O8_43 
REMARK   23  A    between atoms: C24_33  and  C25_34 
REMARK   24  A    between atoms: C28_38  and  O6_39 
REMARK   25  A    between atoms: C29_42  and  O8_43 
REMARK   26  A    between atoms: C29_42  and  C35_49 
ROOT
ATOM      1  C14 non d ame     -11.052   9.321  69.643  0.00  0.00     0.089 C 
ATOM      2  H20 non d ame     -11.702   8.533  69.265  0.00  0.00     0.087 H 
ENDROOT
BRANCH   1   3
ATOM      3  N4  non d ame      -9.757   9.172  68.996  0.00  0.00    -0.346 N 
ATOM      4  C10 non d ame      -9.267   7.807  68.580  0.00  0.00     0.241 C 
ATOM      5  O4  non d ame      -9.931   6.844  68.781  0.00  0.00    -0.271 OA
ATOM      6  H19 non d ame      -9.206  10.004  68.837  0.00  0.00     0.163 HD
BRANCH   4   7
ATOM      7  C9  non d ame      -7.927   7.671  67.906  0.00  0.00     0.092 C 
ATOM      8  H11 non d ame      -7.926   6.774  67.288  0.00  0.00     0.088 H 
BRANCH   7   9
ATOM      9  N3  non d ame      -7.711   8.813  67.012  0.00  0.00    -0.346 N 
ATOM     10  C7  non d ame      -7.259   8.595  65.660  0.00  0.00     0.240 C 
ATOM     11  O3  non d ame      -7.062   7.507  65.276  0.00  0.00    -0.271 OA
ATOM     12  H10 non d ame      -7.875   9.757  67.330  0.00  0.00     0.163 HD
BRANCH  10  13
ATOM     13  C6  non d ame      -7.028   9.814  64.715  0.00  0.00     0.086 C 
ATOM     14  H6  non d ame      -6.960   9.528  63.665  0.00  0.00     0.086 H 
BRANCH  13  15
ATOM     15  N2  non d ame      -8.161  10.718  64.827  0.00  0.00    -0.343 N 
ATOM     16  C5  non d ame      -9.328  10.520  63.964  0.00  0.00     0.273 C 
ATOM     17  O2  non d ame      -9.345   9.633  63.183  0.00  0.00    -0.266 OA
ATOM     18  H5  non d ame      -8.138  11.474  65.495  0.00  0.00     0.163 HD
BRANCH  16  19
ATOM     19  C4  non d ame     -10.535  11.466  64.073  0.00  0.00     0.154 A 
ATOM     20  C1  non d ame     -10.816  12.390  65.129  0.00  0.00    -0.017 A 
ATOM     21  C2  non d ame     -12.029  13.012  64.755  0.00  0.00     0.077 A 
ATOM     22  H1  non d ame     -10.231  12.580  66.029  0.00  0.00     0.091 H 
ATOM     23  O1  non d ame     -12.391  12.499  63.615  0.00  0.00    -0.218 OA
ATOM     24  N1  non d ame     -11.535  11.594  63.197  0.00  0.00    -0.123 NA
BRANCH  21  25
ATOM     25  C3  non d ame     -12.771  14.084  65.539  0.00  0.00    -0.029 C 
ATOM     26  H2  non d ame     -12.057  14.675  66.114  0.00  0.00     0.036 H 
ATOM     27  H3  non d ame     -13.307  14.734  64.848  0.00  0.00     0.036 H 
ATOM     28  H4  non d ame     -13.482  13.613  66.218  0.00  0.00     0.036 H 
ENDBRANCH  21  25
ENDBRANCH  16  19
ENDBRANCH  13  15
BRANCH  13  29
ATOM     29  C8  non d ame      -5.759  10.527  65.109  0.00  0.00    -0.049 C 
ATOM     30  H7  non d ame      -5.842  10.873  66.139  0.00  0.00     0.030 H 
ATOM     31  H8  non d ame      -4.916   9.840  65.023  0.00  0.00     0.030 H 
ATOM     32  H9  non d ame      -5.602  11.380  64.451  0.00  0.00     0.030 H 
ENDBRANCH  13  29
ENDBRANCH  10  13
ENDBRANCH   7   9
BRANCH   7  33
ATOM     33  C11 non d ame      -6.804   7.640  68.984  0.00  0.00    -0.033 C 
ATOM     34  H12 non d ame      -7.255   7.304  69.918  0.00  0.00     0.042 H 
BRANCH  33  35
ATOM     35  C12 non d ame      -5.685   6.619  68.610  0.00  0.00    -0.071 C 
ATOM     36  H13 non d ame      -5.151   6.319  69.511  0.00  0.00     0.028 H 
ATOM     37  H14 non d ame      -6.134   5.741  68.145  0.00  0.00     0.028 H 
ATOM     38  H15 non d ame      -4.989   7.083  67.911  0.00  0.00     0.028 H 
ENDBRANCH  33  35
BRANCH  33  39
ATOM     39  C13 non d ame      -6.214   9.067  69.218  0.00  0.00    -0.071 C 
ATOM     40  H16 non d ame      -6.895   9.813  68.810  0.00  0.00     0.028 H 
ATOM     41  H17 non d ame      -6.085   9.237  70.287  0.00  0.00     0.028 H 
ATOM     42  H18 non d ame      -5.248   9.146  68.718  0.00  0.00     0.028 H 
ENDBRANCH  33  39
ENDBRANCH   7  33
ENDBRANCH   4   7
ENDBRANCH   1   3
BRANCH   1  43
ATOM     43  C15 non d ame     -11.603  10.741  69.325  0.00  0.00     0.240 C 
ATOM     44  O5  non d ame     -12.056  10.972  68.250  0.00  0.00    -0.271 OA
ATOM     45  N6  non d ame     -11.576  11.810  70.363  0.00  0.00    -0.355 N 
ATOM     46  H46 non d ame     -11.198  11.625  71.281  0.00  0.00     0.162 HD
BRANCH  45  47
ATOM     47  C20 non d ame     -12.106  13.154  70.045  0.00  0.00     0.013 C 
ATOM     48  H30 non d ame     -12.653  13.085  69.105  0.00  0.00     0.072 H 
BRANCH  47  49
ATOM     49  C21 non d ame     -10.955  14.124  69.903  0.00  0.00    -0.038 C 
ATOM     50  H31 non d ame     -11.271  15.033  70.415  0.00  0.00     0.036 H 
ATOM     51  H32 non d ame     -10.071  13.584  70.245  0.00  0.00     0.036 H 
BRANCH  49  52
ATOM     52  C22 non d ame     -10.683  14.520  68.436  0.00  0.00     0.018 C 
ATOM     53  H33 non d ame      -9.612  14.382  68.285  0.00  0.00     0.048 H 
ATOM     54  H34 non d ame     -11.395  13.950  67.839  0.00  0.00     0.048 H 
BRANCH  52  55
ATOM     55  C23 non d ame     -10.967  16.017  68.129  0.00  0.00     0.259 C 
ATOM     56  O7  non d ame     -11.753  16.626  68.779  0.00  0.00    -0.265 OA
BRANCH  55  57
ATOM     57  O8  non d ame     -10.288  16.649  67.051  0.00  0.00    -0.317 OA
BRANCH  57  58
ATOM     58  C29 non d ame      -9.450  15.771  66.295  0.00  0.00     0.052 C 
ATOM     59  H47 non d ame      -9.640  14.772  66.685  0.00  0.00     0.082 H 
ATOM     60  H48 non d ame      -9.656  15.995  65.248  0.00  0.00     0.082 H 
BRANCH  58  61
ATOM     61  C35 non d ame      -7.973  16.143  66.594  0.00  0.00    -0.034 A 
ATOM     62  C30 non d ame      -7.177  15.284  67.344  0.00  0.00    -0.075 A 
ATOM     63  C31 non d ame      -5.850  15.617  67.613  0.00  0.00    -0.082 A 
ATOM     64  H49 non d ame      -7.591  14.350  67.720  0.00  0.00     0.084 H 
ATOM     65  C32 non d ame      -5.321  16.818  67.130  0.00  0.00    -0.083 A 
ATOM     66  H50 non d ame      -5.229  14.941  68.199  0.00  0.00     0.083 H 
ATOM     67  C33 non d ame      -6.121  17.674  66.385  0.00  0.00    -0.082 A 
ATOM     68  H51 non d ame      -4.285  17.087  67.336  0.00  0.00     0.083 H 
ATOM     69  C34 non d ame      -7.446  17.343  66.112  0.00  0.00    -0.075 A 
ATOM     70  H52 non d ame      -5.706  18.611  66.012  0.00  0.00     0.083 H 
ATOM     71  H53 non d ame      -8.068  18.020  65.524  0.00  0.00     0.084 H 
ENDBRANCH  58  61
ENDBRANCH  57  58
ENDBRANCH  55  57
ENDBRANCH  52  55
ENDBRANCH  49  52
ENDBRANCH  47  49
BRANCH  47  72
ATOM     72  C24 non d ame     -13.032  13.622  71.165  0.00  0.00    -0.039 C 
ATOM     73  H35 non d ame     -13.989  13.824  70.685  0.00  0.00     0.036 H 
ATOM     74  H36 non d ame     -12.962  12.857  71.939  0.00  0.00     0.036 H 
BRANCH  72  75
ATOM     75  C25 non d ame     -12.528  14.997  71.815  0.00  0.00    -0.001 C 
ATOM     76  C26 non d ame     -11.978  14.729  73.341  0.00  0.00    -0.035 C 
ATOM     77  C27 non d ame     -12.581  15.602  74.182  0.00  0.00     0.085 C 
ATOM     78  H38 non d ame     -12.321  13.757  73.695  0.00  0.00     0.036 H 
ATOM     79  H39 non d ame     -10.923  14.994  73.411  0.00  0.00     0.036 H 
ATOM     80  N5  non d ame     -13.731  16.223  73.426  0.00  0.00    -0.049 N 
ATOM     81  H40 non d ame     -12.978  14.996  74.997  0.00  0.00     0.075 H 
ATOM     82  H41 non d ame     -11.836  16.371  74.387  0.00  0.00     0.075 H 
ATOM     83  C28 non d ame     -13.484  15.865  71.871  0.00  0.00     0.193 C 
ATOM     84  H42 non d ame     -14.567  15.748  73.736  0.00  0.00     0.280 HD
ATOM     85  H43 non d ame     -13.645  17.222  73.543  0.00  0.00     0.280 HD
ATOM     86  H44 non d ame     -13.107  16.621  71.182  0.00  0.00     0.129 H 
ATOM     87  H37 non d ame     -11.876  15.556  71.144  0.00  0.00     0.046 H 
BRANCH  83  88
ATOM     88  O6  non d ame     -14.690  15.378  71.280  0.00  0.00    -0.369 OA
ATOM     89  H45 non d ame     -14.621  15.427  70.325  0.00  0.00     0.212 HD
ENDBRANCH  83  88
ENDBRANCH  72  75
ENDBRANCH  47  72
ENDBRANCH  45  47
ENDBRANCH   1  43
BRANCH   1  90
ATOM     90  C16 non d ame     -10.876   9.166  71.146  0.00  0.00    -0.035 C 
ATOM     91  H21 non d ame      -9.973   8.569  71.271  0.00  0.00     0.037 H 
ATOM     92  H22 non d ame     -10.919  10.178  71.547  0.00  0.00     0.037 H 
BRANCH  90  93
ATOM     93  C17 non d ame     -12.030   8.369  71.833  0.00  0.00    -0.059 C 
ATOM     94  H23 non d ame     -11.708   8.128  72.846  0.00  0.00     0.038 H 
BRANCH  93  95
ATOM     95  C18 non d ame     -13.345   9.204  71.935  0.00  0.00    -0.073 C 
ATOM     96  H24 non d ame     -13.461   9.576  72.954  0.00  0.00     0.028 H 
ATOM     97  H25 non d ame     -13.296  10.046  71.245  0.00  0.00     0.028 H 
ATOM     98  H26 non d ame     -14.197   8.574  71.679  0.00  0.00     0.028 H 
ENDBRANCH  93  95
BRANCH  93  99
ATOM     99  C19 non d ame     -12.281   7.042  71.110  0.00  0.00    -0.073 C 
ATOM    100  H27 non d ame     -13.264   6.660  71.386  0.00  0.00     0.028 H 
ATOM    101  H28 non d ame     -12.242   7.202  70.033  0.00  0.00     0.028 H 
ATOM    102  H29 non d ame     -11.517   6.321  71.399  0.00  0.00     0.028 H 
ENDBRANCH  93  99
ENDBRANCH  90  93
ENDBRANCH   1  90
TORSDOF 26
ENDMDL
MODEL 9
REMARK VINA RESULT:      -6.2      3.599      8.666
REMARK  26 active torsions:
REMARK  status: ('A' for Active; 'I' for Inactive)
REMARK    1  A    between atoms: C2_2  and  C3_3 
REMARK    2  A    between atoms: C4_6  and  C5_7 
REMARK       I    between atoms: C5_7  and  N2_9 
REMARK    3  A    between atoms: N2_9  and  C6_10 
REMARK    4  A    between atoms: C6_10  and  C7_11 
REMARK    5  A    between atoms: C6_10  and  C8_13 
REMARK       I    between atoms: C7_11  and  N3_14 
REMARK    6  A    between atoms: N3_14  and  C9_15 
REMARK    7  A    between atoms: C9_15  and  C10_16 
REMARK    8  A    between atoms: C9_15  and  C11_18 
REMARK       I    between atoms: C10_16  and  N4_21 
REMARK    9  A    between atoms: C11_18  and  C12_19 
REMARK   10  A    between atoms: C11_18  and  C13_20 
REMARK   11  A    between atoms: N4_21  and  C14_22 
REMARK   12  A    between atoms: C14_22  and  C15_23 
REMARK   13  A    between atoms: C14_22  and  C16_25 
REMARK       I    between atoms: C15_23  and  N6_40 
REMARK   14  A    between atoms: C16_25  and  C17_26 
REMARK   15  A    between atoms: C17_26  and  C18_27 
REMARK   16  A    between atoms: C17_26  and  C19_28 
REMARK   17  A    between atoms: C20_29  and  C21_30 
REMARK   18  A    between atoms: C20_29  and  C24_33 
REMARK   19  A    between atoms: C20_29  and  N6_40 
REMARK   20  A    between atoms: C21_30  and  C22_31 
REMARK   21  A    between atoms: C22_31  and  C23_32 
REMARK   22  A    between atoms: C23_32  and  O8_43 
REMARK   23  A    between atoms: C24_33  and  C25_34 
REMARK   24  A    between atoms: C28_38  and  O6_39 
REMARK   25  A    between atoms: C29_42  and  O8_43 
REMARK   26  A    between atoms: C29_42  and  C35_49 
ROOT
ATOM      1  C14 non d ame      -8.465   9.337  64.772  0.00  0.00     0.089 C 
ATOM      2  H20 non d ame      -7.536   9.416  65.336  0.00  0.00     0.087 H 
ENDROOT
BRANCH   1   3
ATOM      3  N4  non d ame      -8.674   7.930  64.466  0.00  0.00    -0.346 N 
ATOM      4  C10 non d ame      -7.725   6.886  64.997  0.00  0.00     0.241 C 
ATOM      5  O4  non d ame      -6.797   7.203  65.667  0.00  0.00    -0.271 OA
ATOM      6  H19 non d ame      -9.468   7.682  63.892  0.00  0.00     0.163 HD
BRANCH   4   7
ATOM      7  C9  non d ame      -7.959   5.434  64.675  0.00  0.00     0.092 C 
ATOM      8  H11 non d ame      -6.999   4.935  64.547  0.00  0.00     0.088 H 
BRANCH   7   9
ATOM      9  N3  non d ame      -8.635   4.785  65.803  0.00  0.00    -0.346 N 
ATOM     10  C7  non d ame      -7.860   4.162  66.847  0.00  0.00     0.240 C 
ATOM     11  O3  non d ame      -6.691   4.170  66.794  0.00  0.00    -0.271 OA
ATOM     12  H10 non d ame      -9.643   4.769  65.861  0.00  0.00     0.163 HD
BRANCH  10  13
ATOM     13  C6  non d ame      -8.586   3.471  68.043  0.00  0.00     0.086 C 
ATOM     14  H6  non d ame      -7.898   3.147  68.824  0.00  0.00     0.086 H 
BRANCH  13  15
ATOM     15  N2  non d ame      -9.494   4.425  68.657  0.00  0.00    -0.343 N 
ATOM     16  C5  non d ame      -9.563   4.517  70.117  0.00  0.00     0.273 C 
ATOM     17  O2  non d ame      -8.886   3.818  70.788  0.00  0.00    -0.266 OA
ATOM     18  H5  non d ame     -10.071   5.017  68.077  0.00  0.00     0.163 HD
BRANCH  16  19
ATOM     19  C4  non d ame     -10.517   5.522  70.781  0.00  0.00     0.154 A 
ATOM     20  C1  non d ame     -11.025   6.735  70.215  0.00  0.00    -0.017 A 
ATOM     21  C2  non d ame     -11.850   7.288  71.220  0.00  0.00     0.077 A 
ATOM     22  H1  non d ame     -10.825   7.151  69.227  0.00  0.00     0.091 H 
ATOM     23  O1  non d ame     -11.815   6.478  72.239  0.00  0.00    -0.218 OA
ATOM     24  N1  non d ame     -11.042   5.442  72.007  0.00  0.00    -0.123 NA
BRANCH  21  25
ATOM     25  C3  non d ame     -12.636   8.588  71.127  0.00  0.00    -0.029 C 
ATOM     26  H2  non d ame     -13.380   8.622  71.924  0.00  0.00     0.036 H 
ATOM     27  H3  non d ame     -11.955   9.432  71.230  0.00  0.00     0.036 H 
ATOM     28  H4  non d ame     -13.137   8.642  70.160  0.00  0.00     0.036 H 
ENDBRANCH  21  25
ENDBRANCH  16  19
ENDBRANCH  13  15
BRANCH  13  29
ATOM     29  C8  non d ame      -9.355   2.274  67.544  0.00  0.00    -0.049 C 
ATOM     30  H7  non d ame      -9.425   2.313  66.457  0.00  0.00     0.030 H 
ATOM     31  H8  non d ame      -8.838   1.361  67.842  0.00  0.00     0.030 H 
ATOM     32  H9  non d ame     -10.356   2.281  67.973  0.00  0.00     0.030 H 
ENDBRANCH  13  29
ENDBRANCH  10  13
ENDBRANCH   7   9
BRANCH   7  33
ATOM     33  C11 non d ame      -8.852   5.321  63.404  0.00  0.00    -0.033 C 
ATOM     34  H12 non d ame      -9.359   6.277  63.273  0.00  0.00     0.042 H 
BRANCH  33  35
ATOM     35  C12 non d ame      -7.992   5.067  62.127  0.00  0.00    -0.071 C 
ATOM     36  H13 non d ame      -8.650   4.868  61.281  0.00  0.00     0.028 H 
ATOM     37  H14 non d ame      -7.386   5.948  61.916  0.00  0.00     0.028 H 
ATOM     38  H15 non d ame      -7.341   4.209  62.292  0.00  0.00     0.028 H 
ENDBRANCH  33  35
BRANCH  33  39
ATOM     39  C13 non d ame      -9.941   4.216  63.583  0.00  0.00    -0.071 C 
ATOM     40  H16 non d ame     -10.382   4.298  64.576  0.00  0.00     0.028 H 
ATOM     41  H17 non d ame     -10.717   4.344  62.828  0.00  0.00     0.028 H 
ATOM     42  H18 non d ame      -9.483   3.234  63.469  0.00  0.00     0.028 H 
ENDBRANCH  33  39
ENDBRANCH   7  33
ENDBRANCH   4   7
ENDBRANCH   1   3
BRANCH   1  43
ATOM     43  C15 non d ame      -9.689   9.855  65.581  0.00  0.00     0.240 C 
ATOM     44  O5  non d ame     -10.330   9.096  66.234  0.00  0.00    -0.271 OA
ATOM     45  N6  non d ame     -10.057  11.299  65.550  0.00  0.00    -0.355 N 
ATOM     46  H46 non d ame      -9.518  11.954  65.002  0.00  0.00     0.162 HD
BRANCH  45  47
ATOM     47  C20 non d ame     -11.222  11.776  66.325  0.00  0.00     0.013 C 
ATOM     48  H30 non d ame     -11.860  10.917  66.534  0.00  0.00     0.072 H 
BRANCH  47  49
ATOM     49  C21 non d ame     -11.983  12.796  65.509  0.00  0.00    -0.038 C 
ATOM     50  H31 non d ame     -12.598  12.221  64.817  0.00  0.00     0.036 H 
ATOM     51  H32 non d ame     -12.454  13.461  66.235  0.00  0.00     0.036 H 
BRANCH  49  52
ATOM     52  C22 non d ame     -11.060  13.681  64.644  0.00  0.00     0.018 C 
ATOM     53  H33 non d ame     -10.139  13.798  65.217  0.00  0.00     0.048 H 
ATOM     54  H34 non d ame     -11.034  13.208  63.661  0.00  0.00     0.048 H 
BRANCH  52  55
ATOM     55  C23 non d ame     -11.605  15.118  64.414  0.00  0.00     0.259 C 
ATOM     56  O7  non d ame     -12.691  15.284  63.961  0.00  0.00    -0.265 OA
BRANCH  55  57
ATOM     57  O8  non d ame     -10.787  16.234  64.738  0.00  0.00    -0.317 OA
BRANCH  57  58
ATOM     58  C29 non d ame     -10.048  16.083  65.953  0.00  0.00     0.052 C 
ATOM     59  H47 non d ame     -10.656  15.443  66.592  0.00  0.00     0.082 H 
ATOM     60  H48 non d ame      -9.050  15.762  65.653  0.00  0.00     0.082 H 
BRANCH  58  61
ATOM     61  C35 non d ame      -9.934  17.478  66.622  0.00  0.00    -0.034 A 
ATOM     62  C30 non d ame      -9.287  17.613  67.846  0.00  0.00    -0.075 A 
ATOM     63  C31 non d ame      -9.185  18.867  68.448  0.00  0.00    -0.082 A 
ATOM     64  H49 non d ame      -8.861  16.738  68.335  0.00  0.00     0.084 H 
ATOM     65  C32 non d ame      -9.735  19.988  67.820  0.00  0.00    -0.083 A 
ATOM     66  H50 non d ame      -8.677  18.969  69.406  0.00  0.00     0.083 H 
ATOM     67  C33 non d ame     -10.382  19.849  66.600  0.00  0.00    -0.082 A 
ATOM     68  H51 non d ame      -9.659  20.972  68.283  0.00  0.00     0.083 H 
ATOM     69  C34 non d ame     -10.484  18.597  65.995  0.00  0.00    -0.075 A 
ATOM     70  H52 non d ame     -10.812  20.725  66.115  0.00  0.00     0.083 H 
ATOM     71  H53 non d ame     -10.993  18.496  65.035  0.00  0.00     0.084 H 
ENDBRANCH  58  61
ENDBRANCH  57  58
ENDBRANCH  55  57
ENDBRANCH  52  55
ENDBRANCH  49  52
ENDBRANCH  47  49
BRANCH  47  72
ATOM     72  C24 non d ame     -10.748  12.415  67.628  0.00  0.00    -0.039 C 
ATOM     73  H35 non d ame     -10.304  11.605  68.205  0.00  0.00     0.036 H 
ATOM     74  H36 non d ame     -10.139  13.268  67.329  0.00  0.00     0.036 H 
BRANCH  72  75
ATOM     75  C25 non d ame     -11.973  12.989  68.486  0.00  0.00    -0.001 C 
ATOM     76  C26 non d ame     -11.860  14.626  68.601  0.00  0.00    -0.035 C 
ATOM     77  C27 non d ame     -11.960  14.981  69.904  0.00  0.00     0.085 C 
ATOM     78  H38 non d ame     -10.857  14.951  68.325  0.00  0.00     0.036 H 
ATOM     79  H39 non d ame     -12.731  15.094  68.141  0.00  0.00     0.036 H 
ATOM     80  N5  non d ame     -11.804  13.720  70.718  0.00  0.00    -0.049 N 
ATOM     81  H40 non d ame     -11.109  15.635  70.094  0.00  0.00     0.075 H 
ATOM     82  H41 non d ame     -12.976  15.358  70.026  0.00  0.00     0.075 H 
ATOM     83  C28 non d ame     -11.980  12.495  69.680  0.00  0.00     0.193 C 
ATOM     84  H42 non d ame     -10.854  13.716  71.061  0.00  0.00     0.280 HD
ATOM     85  H43 non d ame     -12.575  13.701  71.370  0.00  0.00     0.280 HD
ATOM     86  H44 non d ame     -12.907  11.922  69.652  0.00  0.00     0.129 H 
ATOM     87  H37 non d ame     -12.931  12.580  68.164  0.00  0.00     0.046 H 
BRANCH  83  88
ATOM     88  O6  non d ame     -10.941  11.534  69.871  0.00  0.00    -0.369 OA
ATOM     89  H45 non d ame     -10.606  11.251  69.018  0.00  0.00     0.212 HD
ENDBRANCH  83  88
ENDBRANCH  72  75
ENDBRANCH  47  72
ENDBRANCH  45  47
ENDBRANCH   1  43
BRANCH   1  90
ATOM     90  C16 non d ame      -8.346  10.116  63.471  0.00  0.00    -0.035 C 
ATOM     91  H21 non d ame      -9.360  10.173  63.075  0.00  0.00     0.037 H 
ATOM     92  H22 non d ame      -7.811  11.030  63.730  0.00  0.00     0.037 H 
BRANCH  90  93
ATOM     93  C17 non d ame      -7.488   9.394  62.385  0.00  0.00    -0.059 C 
ATOM     94  H23 non d ame      -7.779   8.344  62.378  0.00  0.00     0.038 H 
BRANCH  93  95
ATOM     95  C18 non d ame      -7.740   9.968  60.955  0.00  0.00    -0.073 C 
ATOM     96  H24 non d ame      -7.252  10.939  60.862  0.00  0.00     0.028 H 
ATOM     97  H25 non d ame      -7.331   9.284  60.211  0.00  0.00     0.028 H 
ATOM     98  H26 non d ame      -8.812  10.082  60.792  0.00  0.00     0.028 H 
ENDBRANCH  93  95
BRANCH  93  99
ATOM     99  C19 non d ame      -5.999   9.449  62.740  0.00  0.00    -0.073 C 
ATOM    100  H27 non d ame      -5.887   9.540  63.820  0.00  0.00     0.028 H 
ATOM    101  H28 non d ame      -5.511   8.535  62.399  0.00  0.00     0.028 H 
ATOM    102  H29 non d ame      -5.542  10.309  62.253  0.00  0.00     0.028 H 
ENDBRANCH  93  99
ENDBRANCH  90  93
ENDBRANCH   1  90
TORSDOF 26
ENDMDL
MODEL 10
REMARK VINA RESULT:      -6.2      3.116      6.373
REMARK  26 active torsions:
REMARK  status: ('A' for Active; 'I' for Inactive)
REMARK    1  A    between atoms: C2_2  and  C3_3 
REMARK    2  A    between atoms: C4_6  and  C5_7 
REMARK       I    between atoms: C5_7  and  N2_9 
REMARK    3  A    between atoms: N2_9  and  C6_10 
REMARK    4  A    between atoms: C6_10  and  C7_11 
REMARK    5  A    between atoms: C6_10  and  C8_13 
REMARK       I    between atoms: C7_11  and  N3_14 
REMARK    6  A    between atoms: N3_14  and  C9_15 
REMARK    7  A    between atoms: C9_15  and  C10_16 
REMARK    8  A    between atoms: C9_15  and  C11_18 
REMARK       I    between atoms: C10_16  and  N4_21 
REMARK    9  A    between atoms: C11_18  and  C12_19 
REMARK   10  A    between atoms: C11_18  and  C13_20 
REMARK   11  A    between atoms: N4_21  and  C14_22 
REMARK   12  A    between atoms: C14_22  and  C15_23 
REMARK   13  A    between atoms: C14_22  and  C16_25 
REMARK       I    between atoms: C15_23  and  N6_40 
REMARK   14  A    between atoms: C16_25  and  C17_26 
REMARK   15  A    between atoms: C17_26  and  C18_27 
REMARK   16  A    between atoms: C17_26  and  C19_28 
REMARK   17  A    between atoms: C20_29  and  C21_30 
REMARK   18  A    between atoms: C20_29  and  C24_33 
REMARK   19  A    between atoms: C20_29  and  N6_40 
REMARK   20  A    between atoms: C21_30  and  C22_31 
REMARK   21  A    between atoms: C22_31  and  C23_32 
REMARK   22  A    between atoms: C23_32  and  O8_43 
REMARK   23  A    between atoms: C24_33  and  C25_34 
REMARK   24  A    between atoms: C28_38  and  O6_39 
REMARK   25  A    between atoms: C29_42  and  O8_43 
REMARK   26  A    between atoms: C29_42  and  C35_49 
ROOT
ATOM      1  C14 non d ame     -10.280  10.812  68.388  0.00  0.00     0.089 C 
ATOM      2  H20 non d ame      -9.403  10.885  69.030  0.00  0.00     0.087 H 
ENDROOT
BRANCH   1   3
ATOM      3  N4  non d ame     -10.968   9.574  68.721  0.00  0.00    -0.346 N 
ATOM      4  C10 non d ame     -10.507   8.737  69.888  0.00  0.00     0.241 C 
ATOM      5  O4  non d ame      -9.577   9.080  70.542  0.00  0.00    -0.271 OA
ATOM      6  H19 non d ame     -11.755   9.299  68.150  0.00  0.00     0.163 HD
BRANCH   4   7
ATOM      7  C9  non d ame     -11.233   7.461  70.223  0.00  0.00     0.092 C 
ATOM      8  H11 non d ame     -12.188   7.444  69.698  0.00  0.00     0.088 H 
BRANCH   7   9
ATOM      9  N3  non d ame     -10.455   6.315  69.742  0.00  0.00    -0.346 N 
ATOM     10  C7  non d ame     -10.532   5.920  68.357  0.00  0.00     0.240 C 
ATOM     11  O3  non d ame     -11.217   6.513  67.615  0.00  0.00    -0.271 OA
ATOM     12  H10 non d ame      -9.862   5.793  70.371  0.00  0.00     0.163 HD
BRANCH  10  13
ATOM     13  C6  non d ame      -9.705   4.697  67.853  0.00  0.00     0.086 C 
ATOM     14  H6  non d ame     -10.228   4.119  67.092  0.00  0.00     0.086 H 
BRANCH  13  15
ATOM     15  N2  non d ame      -8.479   5.179  67.240  0.00  0.00    -0.343 N 
ATOM     16  C5  non d ame      -8.341   5.148  65.782  0.00  0.00     0.273 C 
ATOM     17  O2  non d ame      -9.221   4.731  65.113  0.00  0.00    -0.266 OA
ATOM     18  H5  non d ame      -7.731   5.532  67.819  0.00  0.00     0.163 HD
BRANCH  16  19
ATOM     19  C4  non d ame      -7.051   5.656  65.120  0.00  0.00     0.154 A 
ATOM     20  C1  non d ame      -6.938   6.657  64.103  0.00  0.00    -0.017 A 
ATOM     21  C2  non d ame      -5.553   6.754  63.841  0.00  0.00     0.077 A 
ATOM     22  H1  non d ame      -7.738   7.226  63.628  0.00  0.00     0.091 H 
ATOM     23  O1  non d ame      -4.950   5.906  64.622  0.00  0.00    -0.218 OA
ATOM     24  N1  non d ame      -5.804   5.253  65.377  0.00  0.00    -0.123 NA
BRANCH  21  25
ATOM     25  C3  non d ame      -4.889   7.683  62.833  0.00  0.00    -0.029 C 
ATOM     26  H2  non d ame      -4.181   7.116  62.227  0.00  0.00     0.036 H 
ATOM     27  H3  non d ame      -5.650   8.121  62.187  0.00  0.00     0.036 H 
ATOM     28  H4  non d ame      -4.361   8.477  63.361  0.00  0.00     0.036 H 
ENDBRANCH  21  25
ENDBRANCH  16  19
ENDBRANCH  13  15
BRANCH  13  29
ATOM     29  C8  non d ame      -9.380   3.793  69.015  0.00  0.00    -0.049 C 
ATOM     30  H7  non d ame     -10.011   2.905  68.972  0.00  0.00     0.030 H 
ATOM     31  H8  non d ame      -8.332   3.496  68.962  0.00  0.00     0.030 H 
ATOM     32  H9  non d ame      -9.561   4.322  69.949  0.00  0.00     0.030 H 
ENDBRANCH  13  29
ENDBRANCH  10  13
ENDBRANCH   7   9
BRANCH   7  33
ATOM     33  C11 non d ame     -11.411   7.354  71.765  0.00  0.00    -0.033 C 
ATOM     34  H12 non d ame     -10.495   7.724  72.228  0.00  0.00     0.042 H 
BRANCH  33  35
ATOM     35  C12 non d ame     -12.585   8.252  72.266  0.00  0.00    -0.071 C 
ATOM     36  H13 non d ame     -13.504   7.966  71.755  0.00  0.00     0.028 H 
ATOM     37  H14 non d ame     -12.711   8.120  73.340  0.00  0.00     0.028 H 
ATOM     38  H15 non d ame     -12.359   9.296  72.053  0.00  0.00     0.028 H 
ENDBRANCH  33  35
BRANCH  33  39
ATOM     39  C13 non d ame     -11.607   5.868  72.204  0.00  0.00    -0.071 C 
ATOM     40  H16 non d ame     -10.808   5.257  71.785  0.00  0.00     0.028 H 
ATOM     41  H17 non d ame     -11.583   5.803  73.292  0.00  0.00     0.028 H 
ATOM     42  H18 non d ame     -12.569   5.507  71.840  0.00  0.00     0.028 H 
ENDBRANCH  33  39
ENDBRANCH   7  33
ENDBRANCH   4   7
ENDBRANCH   1   3
BRANCH   1  43
ATOM     43  C15 non d ame     -11.265  11.998  68.600  0.00  0.00     0.240 C 
ATOM     44  O5  non d ame     -12.356  11.952  68.130  0.00  0.00    -0.271 OA
ATOM     45  N6  non d ame     -10.851  13.187  69.397  0.00  0.00    -0.355 N 
ATOM     46  H46 non d ame      -9.928  13.236  69.805  0.00  0.00     0.162 HD
BRANCH  45  47
ATOM     47  C20 non d ame     -11.799  14.306  69.591  0.00  0.00     0.013 C 
ATOM     48  H30 non d ame     -12.496  14.303  68.753  0.00  0.00     0.072 H 
BRANCH  47  49
ATOM     49  C21 non d ame     -11.034  15.610  69.621  0.00  0.00    -0.038 C 
ATOM     50  H31 non d ame     -11.447  16.174  70.458  0.00  0.00     0.036 H 
ATOM     51  H32 non d ame      -9.980  15.332  69.617  0.00  0.00     0.036 H 
BRANCH  49  52
ATOM     52  C22 non d ame     -11.264  16.469  68.359  0.00  0.00     0.018 C 
ATOM     53  H33 non d ame     -12.202  16.117  67.928  0.00  0.00     0.048 H 
ATOM     54  H34 non d ame     -11.169  17.505  68.686  0.00  0.00     0.048 H 
BRANCH  52  55
ATOM     55  C23 non d ame     -10.186  16.265  67.259  0.00  0.00     0.259 C 
ATOM     56  O7  non d ame      -9.600  17.196  66.810  0.00  0.00    -0.265 OA
BRANCH  55  57
ATOM     57  O8  non d ame      -9.915  14.953  66.782  0.00  0.00    -0.317 OA
BRANCH  57  58
ATOM     58  C29 non d ame      -9.729  14.873  65.366  0.00  0.00     0.052 C 
ATOM     59  H47 non d ame     -10.057  15.833  64.970  0.00  0.00     0.082 H 
ATOM     60  H48 non d ame      -8.698  14.549  65.223  0.00  0.00     0.082 H 
BRANCH  58  61
ATOM     61  C35 non d ame     -10.671  13.768  64.820  0.00  0.00    -0.034 A 
ATOM     62  C30 non d ame     -12.011  13.747  65.195  0.00  0.00    -0.075 A 
ATOM     63  C31 non d ame     -12.858  12.754  64.705  0.00  0.00    -0.082 A 
ATOM     64  H49 non d ame     -12.397  14.508  65.873  0.00  0.00     0.084 H 
ATOM     65  C32 non d ame     -12.360  11.778  63.838  0.00  0.00    -0.083 A 
ATOM     66  H50 non d ame     -13.907  12.741  65.000  0.00  0.00     0.083 H 
ATOM     67  C33 non d ame     -11.021  11.800  63.469  0.00  0.00    -0.082 A 
ATOM     68  H51 non d ame     -13.015  10.998  63.450  0.00  0.00     0.083 H 
ATOM     69  C34 non d ame     -10.172  12.793  63.955  0.00  0.00    -0.075 A 
ATOM     70  H52 non d ame     -10.636  11.036  62.794  0.00  0.00     0.083 H 
ATOM     71  H53 non d ame      -9.122  12.804  63.659  0.00  0.00     0.084 H 
ENDBRANCH  58  61
ENDBRANCH  57  58
ENDBRANCH  55  57
ENDBRANCH  52  55
ENDBRANCH  49  52
ENDBRANCH  47  49
BRANCH  47  72
ATOM     72  C24 non d ame     -12.549  14.124  70.908  0.00  0.00    -0.039 C 
ATOM     73  H35 non d ame     -13.436  13.541  70.659  0.00  0.00     0.036 H 
ATOM     74  H36 non d ame     -11.815  13.725  71.608  0.00  0.00     0.036 H 
BRANCH  72  75
ATOM     75  C25 non d ame     -13.055  15.524  71.500  0.00  0.00    -0.001 C 
ATOM     76  C26 non d ame     -11.900  16.170  72.476  0.00  0.00    -0.035 C 
ATOM     77  C27 non d ame     -12.463  16.495  73.664  0.00  0.00     0.085 C 
ATOM     78  H38 non d ame     -11.167  15.408  72.743  0.00  0.00     0.036 H 
ATOM     79  H39 non d ame     -11.568  17.129  72.079  0.00  0.00     0.036 H 
ATOM     80  N5  non d ame     -13.819  15.834  73.705  0.00  0.00    -0.049 N 
ATOM     81  H40 non d ame     -11.824  16.045  74.424  0.00  0.00     0.075 H 
ATOM     82  H41 non d ame     -12.597  17.577  73.635  0.00  0.00     0.075 H 
ATOM     83  C28 non d ame     -14.137  15.376  72.190  0.00  0.00     0.193 C 
ATOM     84  H42 non d ame     -13.717  15.006  74.276  0.00  0.00     0.280 HD
ATOM     85  H43 non d ame     -14.480  16.550  73.970  0.00  0.00     0.280 HD
ATOM     86  H44 non d ame     -14.841  15.940  71.577  0.00  0.00     0.129 H 
ATOM     87  H37 non d ame     -13.472  16.172  70.730  0.00  0.00     0.046 H 
BRANCH  83  88
ATOM     88  O6  non d ame     -14.609  14.028  72.171  0.00  0.00    -0.369 OA
ATOM     89  H45 non d ame     -14.453  13.647  71.305  0.00  0.00     0.212 HD
ENDBRANCH  83  88
ENDBRANCH  72  75
ENDBRANCH  47  72
ENDBRANCH  45  47
ENDBRANCH   1  43
BRANCH   1  90
ATOM     90  C16 non d ame      -9.847  10.763  66.930  0.00  0.00    -0.035 C 
ATOM     91  H21 non d ame     -10.744  10.992  66.355  0.00  0.00     0.037 H 
ATOM     92  H22 non d ame      -8.977  11.415  66.866  0.00  0.00     0.037 H 
BRANCH  90  93
ATOM     93  C17 non d ame      -9.376   9.349  66.465  0.00  0.00    -0.059 C 
ATOM     94  H23 non d ame     -10.086   8.619  66.853  0.00  0.00     0.038 H 
BRANCH  93  95
ATOM     95  C18 non d ame      -9.356   9.215  64.909  0.00  0.00    -0.073 C 
ATOM     96  H24 non d ame     -10.264   9.655  64.495  0.00  0.00     0.028 H 
ATOM     97  H25 non d ame      -8.486   9.738  64.511  0.00  0.00     0.028 H 
ATOM     98  H26 non d ame      -9.304   8.162  64.635  0.00  0.00     0.028 H 
ENDBRANCH  93  95
BRANCH  93  99
ATOM     99  C19 non d ame      -8.006   9.007  67.059  0.00  0.00    -0.073 C 
ATOM    100  H27 non d ame      -7.248   9.655  66.619  0.00  0.00     0.028 H 
ATOM    101  H28 non d ame      -8.031   9.157  68.138  0.00  0.00     0.028 H 
ATOM    102  H29 non d ame      -7.765   7.967  66.841  0.00  0.00     0.028 H 
ENDBRANCH  93  99
ENDBRANCH  90  93
ENDBRANCH   1  90
TORSDOF 26
ENDMDL
MODEL 11
REMARK VINA RESULT:      -6.2      3.941     10.473
REMARK  26 active torsions:
REMARK  status: ('A' for Active; 'I' for Inactive)
REMARK    1  A    between atoms: C2_2  and  C3_3 
REMARK    2  A    between atoms: C4_6  and  C5_7 
REMARK       I    between atoms: C5_7  and  N2_9 
REMARK    3  A    between atoms: N2_9  and  C6_10 
REMARK    4  A    between atoms: C6_10  and  C7_11 
REMARK    5  A    between atoms: C6_10  and  C8_13 
REMARK       I    between atoms: C7_11  and  N3_14 
REMARK    6  A    between atoms: N3_14  and  C9_15 
REMARK    7  A    between atoms: C9_15  and  C10_16 
REMARK    8  A    between atoms: C9_15  and  C11_18 
REMARK       I    between atoms: C10_16  and  N4_21 
REMARK    9  A    between atoms: C11_18  and  C12_19 
REMARK   10  A    between atoms: C11_18  and  C13_20 
REMARK   11  A    between atoms: N4_21  and  C14_22 
REMARK   12  A    between atoms: C14_22  and  C15_23 
REMARK   13  A    between atoms: C14_22  and  C16_25 
REMARK       I    between atoms: C15_23  and  N6_40 
REMARK   14  A    between atoms: C16_25  and  C17_26 
REMARK   15  A    between atoms: C17_26  and  C18_27 
REMARK   16  A    between atoms: C17_26  and  C19_28 
REMARK   17  A    between atoms: C20_29  and  C21_30 
REMARK   18  A    between atoms: C20_29  and  C24_33 
REMARK   19  A    between atoms: C20_29  and  N6_40 
REMARK   20  A    between atoms: C21_30  and  C22_31 
REMARK   21  A    between atoms: C22_31  and  C23_32 
REMARK   22  A    between atoms: C23_32  and  O8_43 
REMARK   23  A    between atoms: C24_33  and  C25_34 
REMARK   24  A    between atoms: C28_38  and  O6_39 
REMARK   25  A    between atoms: C29_42  and  O8_43 
REMARK   26  A    between atoms: C29_42  and  C35_49 
ROOT
ATOM      1  C14 non d ame      -7.648   6.485  63.252  0.00  0.00     0.089 C 
ATOM      2  H20 non d ame      -7.888   6.727  62.217  0.00  0.00     0.087 H 
ENDROOT
BRANCH   1   3
ATOM      3  N4  non d ame      -7.639   7.732  64.003  0.00  0.00    -0.346 N 
ATOM      4  C10 non d ame      -8.380   8.939  63.485  0.00  0.00     0.241 C 
ATOM      5  O4  non d ame      -8.975   8.883  62.459  0.00  0.00    -0.271 OA
ATOM      6  H19 non d ame      -7.125   7.759  64.873  0.00  0.00     0.163 HD
BRANCH   4   7
ATOM      7  C9  non d ame      -8.365  10.219  64.277  0.00  0.00     0.092 C 
ATOM      8  H11 non d ame      -8.051  11.038  63.630  0.00  0.00     0.088 H 
BRANCH   7   9
ATOM      9  N3  non d ame      -9.723  10.527  64.735  0.00  0.00    -0.346 N 
ATOM     10  C7  non d ame     -10.409  11.689  64.228  0.00  0.00     0.240 C 
ATOM     11  O3  non d ame      -9.882  12.390  63.452  0.00  0.00    -0.271 OA
ATOM     12  H10 non d ame     -10.189   9.933  65.406  0.00  0.00     0.163 HD
BRANCH  10  13
ATOM     13  C6  non d ame     -11.853  12.013  64.722  0.00  0.00     0.086 C 
ATOM     14  H6  non d ame     -12.305  11.189  65.274  0.00  0.00     0.086 H 
BRANCH  13  15
ATOM     15  N2  non d ame     -11.796  13.143  65.634  0.00  0.00    -0.343 N 
ATOM     16  C5  non d ame     -11.878  12.909  67.078  0.00  0.00     0.273 C 
ATOM     17  O2  non d ame     -11.991  11.809  67.494  0.00  0.00    -0.266 OA
ATOM     18  H5  non d ame     -11.701  14.080  65.271  0.00  0.00     0.163 HD
BRANCH  16  19
ATOM     19  C4  non d ame     -11.817  14.094  68.055  0.00  0.00     0.154 A 
ATOM     20  C1  non d ame     -11.958  14.049  69.478  0.00  0.00    -0.017 A 
ATOM     21  C2  non d ame     -11.824  15.390  69.900  0.00  0.00     0.077 A 
ATOM     22  H1  non d ame     -12.132  13.176  70.109  0.00  0.00     0.091 H 
ATOM     23  O1  non d ame     -11.627  16.113  68.836  0.00  0.00    -0.218 OA
ATOM     24  N1  non d ame     -11.619  15.378  67.747  0.00  0.00    -0.123 NA
BRANCH  21  25
ATOM     25  C3  non d ame     -11.894  15.896  71.334  0.00  0.00    -0.029 C 
ATOM     26  H2  non d ame     -10.988  15.606  71.868  0.00  0.00     0.036 H 
ATOM     27  H3  non d ame     -11.982  16.982  71.332  0.00  0.00     0.036 H 
ATOM     28  H4  non d ame     -12.763  15.463  71.831  0.00  0.00     0.036 H 
ENDBRANCH  21  25
ENDBRANCH  16  19
ENDBRANCH  13  15
BRANCH  13  29
ATOM     29  C8  non d ame     -12.729  12.348  63.541  0.00  0.00    -0.049 C 
ATOM     30  H7  non d ame     -13.555  11.639  63.489  0.00  0.00     0.030 H 
ATOM     31  H8  non d ame     -13.124  13.358  63.657  0.00  0.00     0.030 H 
ATOM     32  H9  non d ame     -12.142  12.289  62.626  0.00  0.00     0.030 H 
ENDBRANCH  13  29
ENDBRANCH  10  13
ENDBRANCH   7   9
BRANCH   7  33
ATOM     33  C11 non d ame      -7.429  10.055  65.510  0.00  0.00    -0.033 C 
ATOM     34  H12 non d ame      -7.444   9.003  65.797  0.00  0.00     0.042 H 
BRANCH  33  35
ATOM     35  C12 non d ame      -5.954  10.424  65.158  0.00  0.00    -0.071 C 
ATOM     36  H13 non d ame      -5.425   9.529  64.829  0.00  0.00     0.028 H 
ATOM     37  H14 non d ame      -5.946  11.164  64.358  0.00  0.00     0.028 H 
ATOM     38  H15 non d ame      -5.462  10.835  66.039  0.00  0.00     0.028 H 
ENDBRANCH  33  35
BRANCH  33  39
ATOM     39  C13 non d ame      -7.948  10.894  66.722  0.00  0.00    -0.071 C 
ATOM     40  H16 non d ame      -8.361  11.836  66.361  0.00  0.00     0.028 H 
ATOM     41  H17 non d ame      -8.722  10.334  67.247  0.00  0.00     0.028 H 
ATOM     42  H18 non d ame      -7.122  11.097  67.402  0.00  0.00     0.028 H 
ENDBRANCH  33  39
ENDBRANCH   7  33
ENDBRANCH   4   7
ENDBRANCH   1   3
BRANCH   1  43
ATOM     43  C15 non d ame      -8.697   5.530  63.890  0.00  0.00     0.240 C 
ATOM     44  O5  non d ame      -9.174   4.656  63.240  0.00  0.00    -0.271 OA
ATOM     45  N6  non d ame      -9.102   5.699  65.315  0.00  0.00    -0.355 N 
ATOM     46  H46 non d ame      -8.701   6.435  65.879  0.00  0.00     0.162 HD
BRANCH  45  47
ATOM     47  C20 non d ame     -10.100   4.782  65.907  0.00  0.00     0.013 C 
ATOM     48  H30 non d ame     -10.867   4.593  65.157  0.00  0.00     0.072 H 
BRANCH  47  49
ATOM     49  C21 non d ame     -10.717   5.433  67.124  0.00  0.00    -0.038 C 
ATOM     50  H31 non d ame     -11.783   5.210  67.069  0.00  0.00     0.036 H 
ATOM     51  H32 non d ame     -10.129   5.083  67.974  0.00  0.00     0.036 H 
BRANCH  49  52
ATOM     52  C22 non d ame     -10.590   6.971  67.111  0.00  0.00     0.018 C 
ATOM     53  H33 non d ame      -9.965   7.209  66.249  0.00  0.00     0.048 H 
ATOM     54  H34 non d ame     -11.610   7.352  67.166  0.00  0.00     0.048 H 
BRANCH  52  55
ATOM     55  C23 non d ame      -9.849   7.549  68.348  0.00  0.00     0.259 C 
ATOM     56  O7  non d ame      -9.158   6.851  69.016  0.00  0.00    -0.265 OA
BRANCH  55  57
ATOM     57  O8  non d ame     -10.015   8.921  68.684  0.00  0.00    -0.317 OA
BRANCH  57  58
ATOM     58  C29 non d ame      -9.726   9.226  70.051  0.00  0.00     0.052 C 
ATOM     59  H47 non d ame      -9.176   8.368  70.436  0.00  0.00     0.082 H 
ATOM     60  H48 non d ame      -9.259  10.211  70.040  0.00  0.00     0.082 H 
BRANCH  58  61
ATOM     61  C35 non d ame     -11.073   9.329  70.814  0.00  0.00    -0.034 A 
ATOM     62  C30 non d ame     -11.448   8.328  71.703  0.00  0.00    -0.075 A 
ATOM     63  C31 non d ame     -12.658   8.420  72.389  0.00  0.00    -0.082 A 
ATOM     64  H49 non d ame     -10.795   7.471  71.862  0.00  0.00     0.084 H 
ATOM     65  C32 non d ame     -13.496   9.520  72.181  0.00  0.00    -0.083 A 
ATOM     66  H50 non d ame     -12.949   7.634  73.086  0.00  0.00     0.083 H 
ATOM     67  C33 non d ame     -13.119  10.516  71.291  0.00  0.00    -0.082 A 
ATOM     68  H51 non d ame     -14.444   9.600  72.713  0.00  0.00     0.083 H 
ATOM     69  C34 non d ame     -11.909  10.428  70.605  0.00  0.00    -0.075 A 
ATOM     70  H52 non d ame     -13.775  11.371  71.129  0.00  0.00     0.083 H 
ATOM     71  H53 non d ame     -11.619  11.216  69.908  0.00  0.00     0.084 H 
ENDBRANCH  58  61
ENDBRANCH  57  58
ENDBRANCH  55  57
ENDBRANCH  52  55
ENDBRANCH  49  52
ENDBRANCH  47  49
BRANCH  47  72
ATOM     72  C24 non d ame      -9.422   3.476  66.315  0.00  0.00    -0.039 C 
ATOM     73  H35 non d ame     -10.212   2.725  66.310  0.00  0.00     0.036 H 
ATOM     74  H36 non d ame      -8.567   3.371  65.647  0.00  0.00     0.036 H 
BRANCH  72  75
ATOM     75  C25 non d ame      -8.848   3.548  67.809  0.00  0.00    -0.001 C 
ATOM     76  C26 non d ame      -7.236   3.873  67.775  0.00  0.00    -0.035 C 
ATOM     77  C27 non d ame      -6.590   2.959  68.538  0.00  0.00     0.085 C 
ATOM     78  H38 non d ame      -6.841   3.695  66.775  0.00  0.00     0.036 H 
ATOM     79  H39 non d ame      -7.034   4.817  68.282  0.00  0.00     0.036 H 
ATOM     80  N5  non d ame      -7.572   1.849  68.824  0.00  0.00    -0.049 N 
ATOM     81  H40 non d ame      -5.788   2.570  67.911  0.00  0.00     0.075 H 
ATOM     82  H41 non d ame      -6.354   3.472  69.470  0.00  0.00     0.075 H 
ATOM     83  C28 non d ame      -9.027   2.431  68.433  0.00  0.00     0.193 C 
ATOM     84  H42 non d ame      -7.347   1.096  68.189  0.00  0.00     0.280 HD
ATOM     85  H43 non d ame      -7.547   1.693  69.821  0.00  0.00     0.280 HD
ATOM     86  H44 non d ame      -9.724   2.747  69.209  0.00  0.00     0.129 H 
ATOM     87  H37 non d ame      -9.465   4.167  68.459  0.00  0.00     0.046 H 
BRANCH  83  88
ATOM     88  O6  non d ame      -9.741   1.480  67.642  0.00  0.00    -0.369 OA
ATOM     89  H45 non d ame      -9.396   0.601  67.810  0.00  0.00     0.212 HD
ENDBRANCH  83  88
ENDBRANCH  72  75
ENDBRANCH  47  72
ENDBRANCH  45  47
ENDBRANCH   1  43
BRANCH   1  90
ATOM     90  C16 non d ame      -6.268   5.851  63.326  0.00  0.00    -0.035 C 
ATOM     91  H21 non d ame      -6.407   4.921  63.879  0.00  0.00     0.037 H 
ATOM     92  H22 non d ame      -5.907   5.824  62.299  0.00  0.00     0.037 H 
BRANCH  90  93
ATOM     93  C17 non d ame      -5.234   6.694  64.137  0.00  0.00    -0.059 C 
ATOM     94  H23 non d ame      -5.792   7.341  64.813  0.00  0.00     0.038 H 
BRANCH  93  95
ATOM     95  C18 non d ame      -4.291   5.799  65.003  0.00  0.00    -0.073 C 
ATOM     96  H24 non d ame      -3.618   6.434  65.581  0.00  0.00     0.028 H 
ATOM     97  H25 non d ame      -4.890   5.193  65.682  0.00  0.00     0.028 H 
ATOM     98  H26 non d ame      -3.709   5.148  64.352  0.00  0.00     0.028 H 
ENDBRANCH  93  95
BRANCH  93  99
ATOM     99  C19 non d ame      -4.422   7.602  63.208  0.00  0.00    -0.073 C 
ATOM    100  H27 non d ame      -3.367   7.547  63.478  0.00  0.00     0.028 H 
ATOM    101  H28 non d ame      -4.550   7.274  62.176  0.00  0.00     0.028 H 
ATOM    102  H29 non d ame      -4.770   8.629  63.309  0.00  0.00     0.028 H 
ENDBRANCH  93  99
ENDBRANCH  90  93
ENDBRANCH   1  90
TORSDOF 26
ENDMDL
MODEL 12
REMARK VINA RESULT:      -6.2      2.518      8.184
REMARK  26 active torsions:
REMARK  status: ('A' for Active; 'I' for Inactive)
REMARK    1  A    between atoms: C2_2  and  C3_3 
REMARK    2  A    between atoms: C4_6  and  C5_7 
REMARK       I    between atoms: C5_7  and  N2_9 
REMARK    3  A    between atoms: N2_9  and  C6_10 
REMARK    4  A    between atoms: C6_10  and  C7_11 
REMARK    5  A    between atoms: C6_10  and  C8_13 
REMARK       I    between atoms: C7_11  and  N3_14 
REMARK    6  A    between atoms: N3_14  and  C9_15 
REMARK    7  A    between atoms: C9_15  and  C10_16 
REMARK    8  A    between atoms: C9_15  and  C11_18 
REMARK       I    between atoms: C10_16  and  N4_21 
REMARK    9  A    between atoms: C11_18  and  C12_19 
REMARK   10  A    between atoms: C11_18  and  C13_20 
REMARK   11  A    between atoms: N4_21  and  C14_22 
REMARK   12  A    between atoms: C14_22  and  C15_23 
REMARK   13  A    between atoms: C14_22  and  C16_25 
REMARK       I    between atoms: C15_23  and  N6_40 
REMARK   14  A    between atoms: C16_25  and  C17_26 
REMARK   15  A    between atoms: C17_26  and  C18_27 
REMARK   16  A    between atoms: C17_26  and  C19_28 
REMARK   17  A    between atoms: C20_29  and  C21_30 
REMARK   18  A    between atoms: C20_29  and  C24_33 
REMARK   19  A    between atoms: C20_29  and  N6_40 
REMARK   20  A    between atoms: C21_30  and  C22_31 
REMARK   21  A    between atoms: C22_31  and  C23_32 
REMARK   22  A    between atoms: C23_32  and  O8_43 
REMARK   23  A    between atoms: C24_33  and  C25_34 
REMARK   24  A    between atoms: C28_38  and  O6_39 
REMARK   25  A    between atoms: C29_42  and  O8_43 
REMARK   26  A    between atoms: C29_42  and  C35_49 
ROOT
ATOM      1  C14 non d ame      -6.557  16.010  67.632  0.00  0.00     0.089 C 
ATOM      2  H20 non d ame      -5.967  16.525  66.874  0.00  0.00     0.087 H 
ENDROOT
BRANCH   1   3
ATOM      3  N4  non d ame      -7.959  16.151  67.267  0.00  0.00    -0.346 N 
ATOM      4  C10 non d ame      -8.396  17.251  66.332  0.00  0.00     0.241 C 
ATOM      5  O4  non d ame      -7.600  18.012  65.887  0.00  0.00    -0.271 OA
ATOM      6  H19 non d ame      -8.620  15.495  67.659  0.00  0.00     0.163 HD
BRANCH   4   7
ATOM      7  C9  non d ame      -9.849  17.379  65.961  0.00  0.00     0.092 C 
ATOM      8  H11 non d ame      -9.930  17.876  64.994  0.00  0.00     0.088 H 
BRANCH   7   9
ATOM      9  N3  non d ame     -10.436  16.044  65.811  0.00  0.00    -0.346 N 
ATOM     10  C7  non d ame     -11.339  15.771  64.721  0.00  0.00     0.240 C 
ATOM     11  O3  non d ame     -11.607  16.615  63.955  0.00  0.00    -0.271 OA
ATOM     12  H10 non d ame     -10.216  15.307  66.465  0.00  0.00     0.163 HD
BRANCH  10  13
ATOM     13  C6  non d ame     -11.963  14.349  64.570  0.00  0.00     0.086 C 
ATOM     14  H6  non d ame     -12.582  14.252  63.678  0.00  0.00     0.086 H 
BRANCH  13  15
ATOM     15  N2  non d ame     -10.890  13.376  64.439  0.00  0.00    -0.343 N 
ATOM     16  C5  non d ame     -11.131  12.133  63.703  0.00  0.00     0.273 C 
ATOM     17  O2  non d ame     -12.190  11.924  63.222  0.00  0.00    -0.266 OA
ATOM     18  H5  non d ame      -9.989  13.561  64.854  0.00  0.00     0.163 HD
BRANCH  16  19
ATOM     19  C4  non d ame     -10.006  11.096  63.554  0.00  0.00     0.154 A 
ATOM     20  C1  non d ame      -9.001  11.051  62.536  0.00  0.00    -0.017 A 
ATOM     21  C2  non d ame      -8.218   9.917  62.848  0.00  0.00     0.077 A 
ATOM     22  H1  non d ame      -8.861  11.736  61.699  0.00  0.00     0.091 H 
ATOM     23  O1  non d ame      -8.722   9.382  63.922  0.00  0.00    -0.218 OA
ATOM     24  N1  non d ame      -9.767  10.052  64.352  0.00  0.00    -0.123 NA
BRANCH  21  25
ATOM     25  C3  non d ame      -7.008   9.416  62.072  0.00  0.00    -0.029 C 
ATOM     26  H2  non d ame      -6.145   9.364  62.737  0.00  0.00     0.036 H 
ATOM     27  H3  non d ame      -7.218   8.424  61.673  0.00  0.00     0.036 H 
ATOM     28  H4  non d ame      -6.793  10.100  61.251  0.00  0.00     0.036 H 
ENDBRANCH  21  25
ENDBRANCH  16  19
ENDBRANCH  13  15
BRANCH  13  29
ATOM     29  C8  non d ame     -12.801  14.032  65.782  0.00  0.00    -0.049 C 
ATOM     30  H7  non d ame     -12.390  13.161  66.291  0.00  0.00     0.030 H 
ATOM     31  H8  non d ame     -12.795  14.886  66.461  0.00  0.00     0.030 H 
ATOM     32  H9  non d ame     -13.824  13.822  65.472  0.00  0.00     0.030 H 
ENDBRANCH  13  29
ENDBRANCH  10  13
ENDBRANCH   7   9
BRANCH   7  33
ATOM     33  C11 non d ame     -10.605  18.153  67.081  0.00  0.00    -0.033 C 
ATOM     34  H12 non d ame     -11.659  17.886  67.011  0.00  0.00     0.042 H 
BRANCH  33  35
ATOM     35  C12 non d ame     -10.108  17.729  68.499  0.00  0.00    -0.071 C 
ATOM     36  H13 non d ame     -10.920  17.843  69.217  0.00  0.00     0.028 H 
ATOM     37  H14 non d ame      -9.788  16.688  68.475  0.00  0.00     0.028 H 
ATOM     38  H15 non d ame      -9.270  18.360  68.793  0.00  0.00     0.028 H 
ENDBRANCH  33  35
BRANCH  33  39
ATOM     39  C13 non d ame     -10.481  19.696  66.876  0.00  0.00    -0.071 C 
ATOM     40  H16 non d ame      -9.932  20.131  67.710  0.00  0.00     0.028 H 
ATOM     41  H17 non d ame      -9.950  19.898  65.945  0.00  0.00     0.028 H 
ATOM     42  H18 non d ame     -11.477  20.136  66.828  0.00  0.00     0.028 H 
ENDBRANCH  33  39
ENDBRANCH   7  33
ENDBRANCH   4   7
ENDBRANCH   1   3
BRANCH   1  43
ATOM     43  C15 non d ame      -6.217  14.494  67.710  0.00  0.00     0.240 C 
ATOM     44  O5  non d ame      -5.157  14.105  67.335  0.00  0.00    -0.271 OA
ATOM     45  N6  non d ame      -7.207  13.526  68.261  0.00  0.00    -0.355 N 
ATOM     46  H46 non d ame      -8.109  13.844  68.587  0.00  0.00     0.162 HD
BRANCH  45  47
ATOM     47  C20 non d ame      -6.868  12.089  68.331  0.00  0.00     0.013 C 
ATOM     48  H30 non d ame      -6.051  11.903  67.634  0.00  0.00     0.072 H 
BRANCH  47  49
ATOM     49  C21 non d ame      -8.077  11.269  67.938  0.00  0.00    -0.038 C 
ATOM     50  H31 non d ame      -7.805  10.770  67.007  0.00  0.00     0.036 H 
ATOM     51  H32 non d ame      -8.331  10.680  68.820  0.00  0.00     0.036 H 
BRANCH  49  52
ATOM     52  C22 non d ame      -9.313  12.138  67.624  0.00  0.00     0.018 C 
ATOM     53  H33 non d ame      -9.245  13.001  68.288  0.00  0.00     0.048 H 
ATOM     54  H34 non d ame      -9.307  12.281  66.543  0.00  0.00     0.048 H 
BRANCH  52  55
ATOM     55  C23 non d ame     -10.665  11.448  67.958  0.00  0.00     0.259 C 
ATOM     56  O7  non d ame     -10.884  10.341  67.585  0.00  0.00    -0.265 OA
BRANCH  55  57
ATOM     57  O8  non d ame     -11.645  12.157  68.705  0.00  0.00    -0.317 OA
BRANCH  57  58
ATOM     58  C29 non d ame     -11.244  13.476  69.089  0.00  0.00     0.052 C 
ATOM     59  H47 non d ame     -10.197  13.393  69.380  0.00  0.00     0.082 H 
ATOM     60  H48 non d ame     -11.529  14.124  68.261  0.00  0.00     0.082 H 
BRANCH  58  61
ATOM     61  C35 non d ame     -12.070  13.883  70.338  0.00  0.00    -0.034 A 
ATOM     62  C30 non d ame     -12.733  12.912  71.082  0.00  0.00    -0.075 A 
ATOM     63  C31 non d ame     -13.475  13.278  72.203  0.00  0.00    -0.082 A 
ATOM     64  H49 non d ame     -12.670  11.866  70.787  0.00  0.00     0.084 H 
ATOM     65  C32 non d ame     -13.556  14.622  72.579  0.00  0.00    -0.083 A 
ATOM     66  H50 non d ame     -13.992  12.515  72.785  0.00  0.00     0.083 H 
ATOM     67  C33 non d ame     -12.896  15.588  71.832  0.00  0.00    -0.082 A 
ATOM     68  H51 non d ame     -14.135  14.917  73.454  0.00  0.00     0.083 H 
ATOM     69  C34 non d ame     -12.151  15.226  70.711  0.00  0.00    -0.075 A 
ATOM     70  H52 non d ame     -12.963  16.636  72.126  0.00  0.00     0.083 H 
ATOM     71  H53 non d ame     -11.634  15.991  70.130  0.00  0.00     0.084 H 
ENDBRANCH  58  61
ENDBRANCH  57  58
ENDBRANCH  55  57
ENDBRANCH  52  55
ENDBRANCH  49  52
ENDBRANCH  47  49
BRANCH  47  72
ATOM     72  C24 non d ame      -6.446  11.726  69.752  0.00  0.00    -0.039 C 
ATOM     73  H35 non d ame      -6.859  12.509  70.387  0.00  0.00     0.036 H 
ATOM     74  H36 non d ame      -6.757  10.690  69.893  0.00  0.00     0.036 H 
BRANCH  72  75
ATOM     75  C25 non d ame      -4.853  11.768  69.926  0.00  0.00    -0.001 C 
ATOM     76  C26 non d ame      -4.132  10.967  68.685  0.00  0.00    -0.035 C 
ATOM     77  C27 non d ame      -3.257  10.068  69.194  0.00  0.00     0.085 C 
ATOM     78  H38 non d ame      -4.863  10.346  68.166  0.00  0.00     0.036 H 
ATOM     79  H39 non d ame      -3.497  11.649  68.118  0.00  0.00     0.036 H 
ATOM     80  N5  non d ame      -3.551   9.953  70.670  0.00  0.00    -0.049 N 
ATOM     81  H40 non d ame      -3.495   9.121  68.709  0.00  0.00     0.075 H 
ATOM     82  H41 non d ame      -2.272  10.515  69.063  0.00  0.00     0.075 H 
ATOM     83  C28 non d ame      -4.490  11.215  71.036  0.00  0.00     0.193 C 
ATOM     84  H42 non d ame      -4.090   9.106  70.789  0.00  0.00     0.280 HD
ATOM     85  H43 non d ame      -2.668  10.060  71.148  0.00  0.00     0.280 HD
ATOM     86  H44 non d ame      -4.079  12.076  71.562  0.00  0.00     0.129 H 
ATOM     87  H37 non d ame      -4.489  12.770  70.149  0.00  0.00     0.046 H 
BRANCH  83  88
ATOM     88  O6  non d ame      -5.607  10.787  71.817  0.00  0.00    -0.369 OA
ATOM     89  H45 non d ame      -6.376  11.315  71.591  0.00  0.00     0.212 HD
ENDBRANCH  83  88
ENDBRANCH  72  75
ENDBRANCH  47  72
ENDBRANCH  45  47
ENDBRANCH   1  43
BRANCH   1  90
ATOM     90  C16 non d ame      -6.329  16.656  68.990  0.00  0.00    -0.035 C 
ATOM     91  H21 non d ame      -7.324  16.791  69.415  0.00  0.00     0.037 H 
ATOM     92  H22 non d ame      -5.604  16.019  69.494  0.00  0.00     0.037 H 
BRANCH  90  93
ATOM     93  C17 non d ame      -5.689  18.077  68.907  0.00  0.00    -0.059 C 
ATOM     94  H23 non d ame      -5.280  18.198  67.904  0.00  0.00     0.038 H 
BRANCH  93  95
ATOM     95  C18 non d ame      -6.738  19.212  69.134  0.00  0.00    -0.073 C 
ATOM     96  H24 non d ame      -6.227  20.173  69.188  0.00  0.00     0.028 H 
ATOM     97  H25 non d ame      -7.445  19.223  68.305  0.00  0.00     0.028 H 
ATOM     98  H26 non d ame      -7.273  19.031  70.066  0.00  0.00     0.028 H 
ENDBRANCH  93  95
BRANCH  93  99
ATOM     99  C19 non d ame      -4.522  18.208  69.891  0.00  0.00    -0.073 C 
ATOM    100  H27 non d ame      -4.445  19.243  70.225  0.00  0.00     0.028 H 
ATOM    101  H28 non d ame      -4.697  17.560  70.750  0.00  0.00     0.028 H 
ATOM    102  H29 non d ame      -3.596  17.916  69.397  0.00  0.00     0.028 H 
ENDBRANCH  93  99
ENDBRANCH  90  93
ENDBRANCH   1  90
TORSDOF 26
ENDMDL
MODEL 13
REMARK VINA RESULT:      -6.2      3.216      9.761
REMARK  26 active torsions:
REMARK  status: ('A' for Active; 'I' for Inactive)
REMARK    1  A    between atoms: C2_2  and  C3_3 
REMARK    2  A    between atoms: C4_6  and  C5_7 
REMARK       I    between atoms: C5_7  and  N2_9 
REMARK    3  A    between atoms: N2_9  and  C6_10 
REMARK    4  A    between atoms: C6_10  and  C7_11 
REMARK    5  A    between atoms: C6_10  and  C8_13 
REMARK       I    between atoms: C7_11  and  N3_14 
REMARK    6  A    between atoms: N3_14  and  C9_15 
REMARK    7  A    between atoms: C9_15  and  C10_16 
REMARK    8  A    between atoms: C9_15  and  C11_18 
REMARK       I    between atoms: C10_16  and  N4_21 
REMARK    9  A    between atoms: C11_18  and  C12_19 
REMARK   10  A    between atoms: C11_18  and  C13_20 
REMARK   11  A    between atoms: N4_21  and  C14_22 
REMARK   12  A    between atoms: C14_22  and  C15_23 
REMARK   13  A    between atoms: C14_22  and  C16_25 
REMARK       I    between atoms: C15_23  and  N6_40 
REMARK   14  A    between atoms: C16_25  and  C17_26 
REMARK   15  A    between atoms: C17_26  and  C18_27 
REMARK   16  A    between atoms: C17_26  and  C19_28 
REMARK   17  A    between atoms: C20_29  and  C21_30 
REMARK   18  A    between atoms: C20_29  and  C24_33 
REMARK   19  A    between atoms: C20_29  and  N6_40 
REMARK   20  A    between atoms: C21_30  and  C22_31 
REMARK   21  A    between atoms: C22_31  and  C23_32 
REMARK   22  A    between atoms: C23_32  and  O8_43 
REMARK   23  A    between atoms: C24_33  and  C25_34 
REMARK   24  A    between atoms: C28_38  and  O6_39 
REMARK   25  A    between atoms: C29_42  and  O8_43 
REMARK   26  A    between atoms: C29_42  and  C35_49 
ROOT
ATOM      1  C14 non d ame      -9.189   7.034  66.619  0.00  0.00     0.089 C 
ATOM      2  H20 non d ame      -9.476   6.524  65.699  0.00  0.00     0.087 H 
ENDROOT
BRANCH   1   3
ATOM      3  N4  non d ame      -8.831   8.400  66.271  0.00  0.00    -0.346 N 
ATOM      4  C10 non d ame      -8.275   8.717  64.905  0.00  0.00     0.241 C 
ATOM      5  O4  non d ame      -8.124   7.854  64.103  0.00  0.00    -0.271 OA
ATOM      6  H19 non d ame      -8.965   9.119  66.968  0.00  0.00     0.163 HD
BRANCH   4   7
ATOM      7  C9  non d ame      -7.915  10.138  64.559  0.00  0.00     0.092 C 
ATOM      8  H11 non d ame      -7.762  10.217  63.483  0.00  0.00     0.088 H 
BRANCH   7   9
ATOM      9  N3  non d ame      -9.031  11.024  64.903  0.00  0.00    -0.346 N 
ATOM     10  C7  non d ame     -10.115  11.213  63.973  0.00  0.00     0.240 C 
ATOM     11  O3  non d ame     -10.106  10.661  62.940  0.00  0.00    -0.271 OA
ATOM     12  H10 non d ame      -9.052  11.508  65.789  0.00  0.00     0.163 HD
BRANCH  10  13
ATOM     13  C6  non d ame     -11.298  12.160  64.344  0.00  0.00     0.086 C 
ATOM     14  H6  non d ame     -11.819  11.850  65.250  0.00  0.00     0.086 H 
BRANCH  13  15
ATOM     15  N2  non d ame     -10.773  13.491  64.601  0.00  0.00    -0.343 N 
ATOM     16  C5  non d ame     -11.329  14.285  65.699  0.00  0.00     0.273 C 
ATOM     17  O2  non d ame     -12.199  13.846  66.367  0.00  0.00    -0.266 OA
ATOM     18  H5  non d ame     -10.031  13.860  64.024  0.00  0.00     0.163 HD
BRANCH  16  19
ATOM     19  C4  non d ame     -10.783  15.693  65.984  0.00  0.00     0.154 A 
ATOM     20  C1  non d ame     -10.489  16.264  67.263  0.00  0.00    -0.017 A 
ATOM     21  C2  non d ame     -10.017  17.565  66.981  0.00  0.00     0.077 A 
ATOM     22  H1  non d ame     -10.600  15.804  68.246  0.00  0.00     0.091 H 
ATOM     23  O1  non d ame     -10.040  17.714  65.688  0.00  0.00    -0.218 OA
ATOM     24  N1  non d ame     -10.484  16.635  65.085  0.00  0.00    -0.123 NA
BRANCH  21  25
ATOM     25  C3  non d ame      -9.564  18.601  68.001  0.00  0.00    -0.029 C 
ATOM     26  H2  non d ame      -9.378  19.551  67.498  0.00  0.00     0.036 H 
ATOM     27  H3  non d ame     -10.342  18.734  68.753  0.00  0.00     0.036 H 
ATOM     28  H4  non d ame      -8.648  18.260  68.484  0.00  0.00     0.036 H 
ENDBRANCH  21  25
ENDBRANCH  16  19
ENDBRANCH  13  15
BRANCH  13  29
ATOM     29  C8  non d ame     -12.286  12.206  63.206  0.00  0.00    -0.049 C 
ATOM     30  H7  non d ame     -11.752  12.140  62.258  0.00  0.00     0.030 H 
ATOM     31  H8  non d ame     -12.978  11.367  63.292  0.00  0.00     0.030 H 
ATOM     32  H9  non d ame     -12.842  13.142  63.245  0.00  0.00     0.030 H 
ENDBRANCH  13  29
ENDBRANCH  10  13
ENDBRANCH   7   9
BRANCH   7  33
ATOM     33  C11 non d ame      -6.651  10.563  65.362  0.00  0.00    -0.033 C 
ATOM     34  H12 non d ame      -6.131  11.324  64.779  0.00  0.00     0.042 H 
BRANCH  33  35
ATOM     35  C12 non d ame      -7.037  11.204  66.732  0.00  0.00    -0.071 C 
ATOM     36  H13 non d ame      -6.605  12.202  66.800  0.00  0.00     0.028 H 
ATOM     37  H14 non d ame      -8.122  11.271  66.809  0.00  0.00     0.028 H 
ATOM     38  H15 non d ame      -6.653  10.585  67.543  0.00  0.00     0.028 H 
ENDBRANCH  33  35
BRANCH  33  39
ATOM     39  C13 non d ame      -5.679   9.355  65.556  0.00  0.00    -0.071 C 
ATOM     40  H16 non d ame      -6.257   8.448  65.729  0.00  0.00     0.028 H 
ATOM     41  H17 non d ame      -5.068   9.232  64.661  0.00  0.00     0.028 H 
ATOM     42  H18 non d ame      -5.033   9.543  66.413  0.00  0.00     0.028 H 
ENDBRANCH  33  39
ENDBRANCH   7  33
ENDBRANCH   4   7
ENDBRANCH   1   3
BRANCH   1  43
ATOM     43  C15 non d ame     -10.350   7.075  67.654  0.00  0.00     0.240 C 
ATOM     44  O5  non d ame     -11.440   6.721  67.335  0.00  0.00    -0.271 OA
ATOM     45  N6  non d ame     -10.103   7.548  69.046  0.00  0.00    -0.355 N 
ATOM     46  H46 non d ame      -9.181   7.847  69.330  0.00  0.00     0.162 HD
BRANCH  45  47
ATOM     47  C20 non d ame     -11.217   7.580  70.018  0.00  0.00     0.013 C 
ATOM     48  H30 non d ame     -12.102   7.950  69.501  0.00  0.00     0.072 H 
BRANCH  47  49
ATOM     49  C21 non d ame     -10.859   8.506  71.158  0.00  0.00    -0.038 C 
ATOM     50  H31 non d ame     -10.014   8.039  71.663  0.00  0.00     0.036 H 
ATOM     51  H32 non d ame     -10.749   9.495  70.710  0.00  0.00     0.036 H 
BRANCH  49  52
ATOM     52  C22 non d ame     -11.985   8.627  72.208  0.00  0.00     0.018 C 
ATOM     53  H33 non d ame     -12.391   7.621  72.323  0.00  0.00     0.048 H 
ATOM     54  H34 non d ame     -11.538   9.135  73.063  0.00  0.00     0.048 H 
BRANCH  52  55
ATOM     55  C23 non d ame     -13.173   9.518  71.752  0.00  0.00     0.259 C 
ATOM     56  O7  non d ame     -14.125   9.033  71.232  0.00  0.00    -0.265 OA
BRANCH  55  57
ATOM     57  O8  non d ame     -13.106  10.924  71.950  0.00  0.00    -0.317 OA
BRANCH  57  58
ATOM     58  C29 non d ame     -12.671  11.655  70.799  0.00  0.00     0.052 C 
ATOM     59  H47 non d ame     -11.628  11.378  70.651  0.00  0.00     0.082 H 
ATOM     60  H48 non d ame     -13.406  11.447  70.022  0.00  0.00     0.082 H 
BRANCH  58  61
ATOM     61  C35 non d ame     -12.733  13.168  71.141  0.00  0.00    -0.034 A 
ATOM     62  C30 non d ame     -12.046  14.088  70.357  0.00  0.00    -0.075 A 
ATOM     63  C31 non d ame     -12.101  15.446  70.663  0.00  0.00    -0.082 A 
ATOM     64  H49 non d ame     -11.463  13.745  69.502  0.00  0.00     0.084 H 
ATOM     65  C32 non d ame     -12.847  15.884  71.761  0.00  0.00    -0.083 A 
ATOM     66  H50 non d ame     -11.563  16.165  70.046  0.00  0.00     0.083 H 
ATOM     67  C33 non d ame     -13.529  14.962  72.544  0.00  0.00    -0.082 A 
ATOM     68  H51 non d ame     -12.896  16.944  72.008  0.00  0.00     0.083 H 
ATOM     69  C34 non d ame     -13.478  13.603  72.239  0.00  0.00    -0.075 A 
ATOM     70  H52 non d ame     -14.108  15.306  73.401  0.00  0.00     0.083 H 
ATOM     71  H53 non d ame     -14.018  12.884  72.858  0.00  0.00     0.084 H 
ENDBRANCH  58  61
ENDBRANCH  57  58
ENDBRANCH  55  57
ENDBRANCH  52  55
ENDBRANCH  49  52
ENDBRANCH  47  49
BRANCH  47  72
ATOM     72  C24 non d ame     -11.468   6.175  70.561  0.00  0.00    -0.039 C 
ATOM     73  H35 non d ame     -12.117   6.310  71.426  0.00  0.00     0.036 H 
ATOM     74  H36 non d ame     -11.814   5.591  69.708  0.00  0.00     0.036 H 
BRANCH  72  75
ATOM     75  C25 non d ame     -10.117   5.492  71.085  0.00  0.00    -0.001 C 
ATOM     76  C26 non d ame      -9.695   4.251  70.094  0.00  0.00    -0.035 C 
ATOM     77  C27 non d ame      -9.476   3.146  70.846  0.00  0.00     0.085 C 
ATOM     78  H38 non d ame     -10.541   3.969  69.467  0.00  0.00     0.036 H 
ATOM     79  H39 non d ame      -8.723   4.447  69.640  0.00  0.00     0.036 H 
ATOM     80  N5  non d ame     -10.026   3.433  72.222  0.00  0.00    -0.049 N 
ATOM     81  H40 non d ame     -10.069   2.356  70.384  0.00  0.00     0.075 H 
ATOM     82  H41 non d ame      -8.393   3.048  70.910  0.00  0.00     0.075 H 
ATOM     83  C28 non d ame     -10.262   5.029  72.283  0.00  0.00     0.193 C 
ATOM     84  H42 non d ame     -10.924   2.973  72.273  0.00  0.00     0.280 HD
ATOM     85  H43 non d ame      -9.297   3.191  72.878  0.00  0.00     0.280 HD
ATOM     86  H44 non d ame      -9.571   5.671  72.829  0.00  0.00     0.129 H 
ATOM     87  H37 non d ame      -9.346   6.227  71.316  0.00  0.00     0.046 H 
BRANCH  83  88
ATOM     88  O6  non d ame     -11.554   5.315  72.819  0.00  0.00    -0.369 OA
ATOM     89  H45 non d ame     -11.560   6.203  73.183  0.00  0.00     0.212 HD
ENDBRANCH  83  88
ENDBRANCH  72  75
ENDBRANCH  47  72
ENDBRANCH  45  47
ENDBRANCH   1  43
BRANCH   1  90
ATOM     90  C16 non d ame      -7.981   6.344  67.234  0.00  0.00    -0.035 C 
ATOM     91  H21 non d ame      -7.172   7.073  67.174  0.00  0.00     0.037 H 
ATOM     92  H22 non d ame      -8.318   5.984  68.205  0.00  0.00     0.037 H 
BRANCH  90  93
ATOM     93  C17 non d ame      -7.504   5.089  66.438  0.00  0.00    -0.059 C 
ATOM     94  H23 non d ame      -7.314   4.293  67.158  0.00  0.00     0.038 H 
BRANCH  93  95
ATOM     95  C18 non d ame      -8.587   4.578  65.437  0.00  0.00    -0.073 C 
ATOM     96  H24 non d ame      -8.100   4.153  64.558  0.00  0.00     0.028 H 
ATOM     97  H25 non d ame      -9.195   3.812  65.919  0.00  0.00     0.028 H 
ATOM     98  H26 non d ame      -9.224   5.408  65.133  0.00  0.00     0.028 H 
ENDBRANCH  93  95
BRANCH  93  99
ATOM     99  C19 non d ame      -6.183   5.371  65.715  0.00  0.00    -0.073 C 
ATOM    100  H27 non d ame      -5.604   4.450  65.647  0.00  0.00     0.028 H 
ATOM    101  H28 non d ame      -6.391   5.745  64.712  0.00  0.00     0.028 H 
ATOM    102  H29 non d ame      -5.617   6.116  66.271  0.00  0.00     0.028 H 
ENDBRANCH  93  99
ENDBRANCH  90  93
ENDBRANCH   1  90
TORSDOF 26
ENDMDL
MODEL 14
REMARK VINA RESULT:      -6.2      3.040      8.182
REMARK  26 active torsions:
REMARK  status: ('A' for Active; 'I' for Inactive)
REMARK    1  A    between atoms: C2_2  and  C3_3 
REMARK    2  A    between atoms: C4_6  and  C5_7 
REMARK       I    between atoms: C5_7  and  N2_9 
REMARK    3  A    between atoms: N2_9  and  C6_10 
REMARK    4  A    between atoms: C6_10  and  C7_11 
REMARK    5  A    between atoms: C6_10  and  C8_13 
REMARK       I    between atoms: C7_11  and  N3_14 
REMARK    6  A    between atoms: N3_14  and  C9_15 
REMARK    7  A    between atoms: C9_15  and  C10_16 
REMARK    8  A    between atoms: C9_15  and  C11_18 
REMARK       I    between atoms: C10_16  and  N4_21 
REMARK    9  A    between atoms: C11_18  and  C12_19 
REMARK   10  A    between atoms: C11_18  and  C13_20 
REMARK   11  A    between atoms: N4_21  and  C14_22 
REMARK   12  A    between atoms: C14_22  and  C15_23 
REMARK   13  A    between atoms: C14_22  and  C16_25 
REMARK       I    between atoms: C15_23  and  N6_40 
REMARK   14  A    between atoms: C16_25  and  C17_26 
REMARK   15  A    between atoms: C17_26  and  C18_27 
REMARK   16  A    between atoms: C17_26  and  C19_28 
REMARK   17  A    between atoms: C20_29  and  C21_30 
REMARK   18  A    between atoms: C20_29  and  C24_33 
REMARK   19  A    between atoms: C20_29  and  N6_40 
REMARK   20  A    between atoms: C21_30  and  C22_31 
REMARK   21  A    between atoms: C22_31  and  C23_32 
REMARK   22  A    between atoms: C23_32  and  O8_43 
REMARK   23  A    between atoms: C24_33  and  C25_34 
REMARK   24  A    between atoms: C28_38  and  O6_39 
REMARK   25  A    between atoms: C29_42  and  O8_43 
REMARK   26  A    between atoms: C29_42  and  C35_49 
ROOT
ATOM      1  C14 non d ame     -10.120  10.378  64.482  0.00  0.00     0.089 C 
ATOM      2  H20 non d ame     -11.110   9.968  64.677  0.00  0.00     0.087 H 
ENDROOT
BRANCH   1   3
ATOM      3  N4  non d ame      -9.521  10.710  65.766  0.00  0.00    -0.346 N 
ATOM      4  C10 non d ame     -10.311  10.546  67.040  0.00  0.00     0.241 C 
ATOM      5  O4  non d ame     -11.429  10.147  67.006  0.00  0.00    -0.271 OA
ATOM      6  H19 non d ame      -8.570  11.050  65.773  0.00  0.00     0.163 HD
BRANCH   4   7
ATOM      7  C9  non d ame      -9.675  10.889  68.361  0.00  0.00     0.092 C 
ATOM      8  H11 non d ame      -8.591  10.814  68.267  0.00  0.00     0.088 H 
BRANCH   7   9
ATOM      9  N3  non d ame      -9.983  12.280  68.706  0.00  0.00    -0.346 N 
ATOM     10  C7  non d ame      -9.231  13.355  68.109  0.00  0.00     0.240 C 
ATOM     11  O3  non d ame      -8.372  13.119  67.349  0.00  0.00    -0.271 OA
ATOM     12  H10 non d ame     -10.719  12.499  69.361  0.00  0.00     0.163 HD
BRANCH  10  13
ATOM     13  C6  non d ame      -9.562  14.833  68.483  0.00  0.00     0.086 C 
ATOM     14  H6  non d ame     -10.230  15.311  67.766  0.00  0.00     0.086 H 
BRANCH  13  15
ATOM     15  N2  non d ame     -10.245  14.853  69.765  0.00  0.00    -0.343 N 
ATOM     16  C5  non d ame     -11.522  15.560  69.891  0.00  0.00     0.273 C 
ATOM     17  O2  non d ame     -11.989  16.111  68.956  0.00  0.00    -0.266 OA
ATOM     18  H5  non d ame      -9.838  14.381  70.560  0.00  0.00     0.163 HD
BRANCH  16  19
ATOM     19  C4  non d ame     -12.257  15.587  71.241  0.00  0.00     0.154 A 
ATOM     20  C1  non d ame     -11.670  15.684  72.543  0.00  0.00    -0.017 A 
ATOM     21  C2  non d ame     -12.764  15.668  73.437  0.00  0.00     0.077 A 
ATOM     22  H1  non d ame     -10.613  15.755  72.800  0.00  0.00     0.091 H 
ATOM     23  O1  non d ame     -13.848  15.575  72.722  0.00  0.00    -0.218 OA
ATOM     24  N1  non d ame     -13.576  15.524  71.437  0.00  0.00    -0.123 NA
BRANCH  21  25
ATOM     25  C3  non d ame     -12.689  15.749  74.955  0.00  0.00    -0.029 C 
ATOM     26  H2  non d ame     -11.653  15.627  75.276  0.00  0.00     0.036 H 
ATOM     27  H3  non d ame     -13.059  16.719  75.286  0.00  0.00     0.036 H 
ATOM     28  H4  non d ame     -13.300  14.959  75.393  0.00  0.00     0.036 H 
ENDBRANCH  21  25
ENDBRANCH  16  19
ENDBRANCH  13  15
BRANCH  13  29
ATOM     29  C8  non d ame      -8.286  15.632  68.566  0.00  0.00    -0.049 C 
ATOM     30  H7  non d ame      -7.450  14.962  68.768  0.00  0.00     0.030 H 
ATOM     31  H8  non d ame      -8.118  16.147  67.619  0.00  0.00     0.030 H 
ATOM     32  H9  non d ame      -8.367  16.363  69.369  0.00  0.00     0.030 H 
ENDBRANCH  13  29
ENDBRANCH  10  13
ENDBRANCH   7   9
BRANCH   7  33
ATOM     33  C11 non d ame     -10.233   9.946  69.467  0.00  0.00    -0.033 C 
ATOM     34  H12 non d ame     -10.709   9.101  68.969  0.00  0.00     0.042 H 
BRANCH  33  35
ATOM     35  C12 non d ame      -9.088   9.379  70.362  0.00  0.00    -0.071 C 
ATOM     36  H13 non d ame      -8.739   8.433  69.949  0.00  0.00     0.028 H 
ATOM     37  H14 non d ame      -8.262  10.090  70.390  0.00  0.00     0.028 H 
ATOM     38  H15 non d ame      -9.463   9.219  71.373  0.00  0.00     0.028 H 
ENDBRANCH  33  35
BRANCH  33  39
ATOM     39  C13 non d ame     -11.316  10.674  70.326  0.00  0.00    -0.071 C 
ATOM     40  H16 non d ame     -12.119  11.024  69.678  0.00  0.00     0.028 H 
ATOM     41  H17 non d ame     -11.721   9.981  71.065  0.00  0.00     0.028 H 
ATOM     42  H18 non d ame     -10.864  11.524  70.836  0.00  0.00     0.028 H 
ENDBRANCH  33  39
ENDBRANCH   7  33
ENDBRANCH   4   7
ENDBRANCH   1   3
BRANCH   1  43
ATOM     43  C15 non d ame      -9.196   9.361  63.753  0.00  0.00     0.240 C 
ATOM     44  O5  non d ame      -8.970   9.493  62.593  0.00  0.00    -0.271 OA
ATOM     45  N6  non d ame      -8.584   8.227  64.502  0.00  0.00    -0.355 N 
ATOM     46  H46 non d ame      -8.764   8.107  65.489  0.00  0.00     0.162 HD
BRANCH  45  47
ATOM     47  C20 non d ame      -7.707   7.270  63.795  0.00  0.00     0.013 C 
ATOM     48  H30 non d ame      -7.888   7.376  62.725  0.00  0.00     0.072 H 
BRANCH  47  49
ATOM     49  C21 non d ame      -8.041   5.863  64.238  0.00  0.00    -0.038 C 
ATOM     50  H31 non d ame      -9.013   5.931  64.727  0.00  0.00     0.036 H 
ATOM     51  H32 non d ame      -7.918   5.239  63.352  0.00  0.00     0.036 H 
BRANCH  49  52
ATOM     52  C22 non d ame      -7.057   5.317  65.295  0.00  0.00     0.018 C 
ATOM     53  H33 non d ame      -6.924   4.261  65.058  0.00  0.00     0.048 H 
ATOM     54  H34 non d ame      -6.201   5.992  65.277  0.00  0.00     0.048 H 
BRANCH  52  55
ATOM     55  C23 non d ame      -7.610   5.362  66.747  0.00  0.00     0.259 C 
ATOM     56  O7  non d ame      -6.902   5.118  67.668  0.00  0.00    -0.265 OA
BRANCH  55  57
ATOM     57  O8  non d ame      -8.978   5.687  66.962  0.00  0.00    -0.317 OA
BRANCH  57  58
ATOM     58  C29 non d ame      -9.729   4.650  67.601  0.00  0.00     0.052 C 
ATOM     59  H47 non d ame     -10.604   4.489  66.973  0.00  0.00     0.082 H 
ATOM     60  H48 non d ame      -9.023   3.837  67.772  0.00  0.00     0.082 H 
BRANCH  58  61
ATOM     61  C35 non d ame     -10.205   5.184  68.979  0.00  0.00    -0.034 A 
ATOM     62  C30 non d ame     -11.199   6.154  69.044  0.00  0.00    -0.075 A 
ATOM     63  C31 non d ame     -11.626   6.634  70.281  0.00  0.00    -0.082 A 
ATOM     64  H49 non d ame     -11.643   6.539  68.127  0.00  0.00     0.084 H 
ATOM     65  C32 non d ame     -11.053   6.140  71.457  0.00  0.00    -0.083 A 
ATOM     66  H50 non d ame     -12.406   7.393  70.329  0.00  0.00     0.083 H 
ATOM     67  C33 non d ame     -10.059   5.173  71.387  0.00  0.00    -0.082 A 
ATOM     68  H51 non d ame     -11.382   6.509  72.428  0.00  0.00     0.083 H 
ATOM     69  C34 non d ame      -9.631   4.690  70.152  0.00  0.00    -0.075 A 
ATOM     70  H52 non d ame      -9.613   4.792  72.305  0.00  0.00     0.083 H 
ATOM     71  H53 non d ame      -8.850   3.930  70.105  0.00  0.00     0.084 H 
ENDBRANCH  58  61
ENDBRANCH  57  58
ENDBRANCH  55  57
ENDBRANCH  52  55
ENDBRANCH  49  52
ENDBRANCH  47  49
BRANCH  47  72
ATOM     72  C24 non d ame      -6.246   7.572  64.118  0.00  0.00    -0.039 C 
ATOM     73  H35 non d ame      -5.968   6.866  64.900  0.00  0.00     0.036 H 
ATOM     74  H36 non d ame      -5.726   7.555  63.160  0.00  0.00     0.036 H 
BRANCH  72  75
ATOM     75  C25 non d ame      -6.066   9.044  64.726  0.00  0.00    -0.001 C 
ATOM     76  C26 non d ame      -5.525  10.070  63.560  0.00  0.00    -0.035 C 
ATOM     77  C27 non d ame      -4.436  10.726  64.026  0.00  0.00     0.085 C 
ATOM     78  H38 non d ame      -5.138   9.503  62.714  0.00  0.00     0.036 H 
ATOM     79  H39 non d ame      -6.252  10.866  63.396  0.00  0.00     0.036 H 
ATOM     80  N5  non d ame      -3.990  10.008  65.277  0.00  0.00    -0.049 N 
ATOM     81  H40 non d ame      -3.673  10.608  63.257  0.00  0.00     0.075 H 
ATOM     82  H41 non d ame      -4.789  11.721  64.296  0.00  0.00     0.075 H 
ATOM     83  C28 non d ame      -5.217   9.047  65.700  0.00  0.00     0.193 C 
ATOM     84  H42 non d ame      -3.206   9.429  65.011  0.00  0.00     0.280 HD
ATOM     85  H43 non d ame      -3.876  10.715  65.989  0.00  0.00     0.280 HD
ATOM     86  H44 non d ame      -5.869   9.315  66.531  0.00  0.00     0.129 H 
ATOM     87  H37 non d ame      -6.935   9.361  65.302  0.00  0.00     0.046 H 
BRANCH  83  88
ATOM     88  O6  non d ame      -4.735   7.736  65.999  0.00  0.00    -0.369 OA
ATOM     89  H45 non d ame      -5.360   7.288  66.572  0.00  0.00     0.212 HD
ENDBRANCH  83  88
ENDBRANCH  72  75
ENDBRANCH  47  72
ENDBRANCH  45  47
ENDBRANCH   1  43
BRANCH   1  90
ATOM     90  C16 non d ame     -10.243  11.645  63.649  0.00  0.00    -0.035 C 
ATOM     91  H21 non d ame      -9.260  12.115  63.692  0.00  0.00     0.037 H 
ATOM     92  H22 non d ame     -10.650  11.322  62.692  0.00  0.00     0.037 H 
BRANCH  90  93
ATOM     93  C17 non d ame     -11.254  12.682  64.233  0.00  0.00    -0.059 C 
ATOM     94  H23 non d ame     -11.728  12.228  65.103  0.00  0.00     0.038 H 
BRANCH  93  95
ATOM     95  C18 non d ame     -10.548  13.993  64.704  0.00  0.00    -0.073 C 
ATOM     96  H24 non d ame      -9.526  13.767  65.009  0.00  0.00     0.028 H 
ATOM     97  H25 non d ame     -10.530  14.711  63.884  0.00  0.00     0.028 H 
ATOM     98  H26 non d ame     -11.094  14.418  65.546  0.00  0.00     0.028 H 
ENDBRANCH  93  95
BRANCH  93  99
ATOM     99  C19 non d ame     -12.362  12.992  63.223  0.00  0.00    -0.073 C 
ATOM    100  H27 non d ame     -13.281  12.493  63.529  0.00  0.00     0.028 H 
ATOM    101  H28 non d ame     -12.528  14.069  63.184  0.00  0.00     0.028 H 
ATOM    102  H29 non d ame     -12.066  12.635  62.237  0.00  0.00     0.028 H 
ENDBRANCH  93  99
ENDBRANCH  90  93
ENDBRANCH   1  90
TORSDOF 26
ENDMDL
MODEL 15
REMARK VINA RESULT:      -6.2      2.300      6.853
REMARK  26 active torsions:
REMARK  status: ('A' for Active; 'I' for Inactive)
REMARK    1  A    between atoms: C2_2  and  C3_3 
REMARK    2  A    between atoms: C4_6  and  C5_7 
REMARK       I    between atoms: C5_7  and  N2_9 
REMARK    3  A    between atoms: N2_9  and  C6_10 
REMARK    4  A    between atoms: C6_10  and  C7_11 
REMARK    5  A    between atoms: C6_10  and  C8_13 
REMARK       I    between atoms: C7_11  and  N3_14 
REMARK    6  A    between atoms: N3_14  and  C9_15 
REMARK    7  A    between atoms: C9_15  and  C10_16 
REMARK    8  A    between atoms: C9_15  and  C11_18 
REMARK       I    between atoms: C10_16  and  N4_21 
REMARK    9  A    between atoms: C11_18  and  C12_19 
REMARK   10  A    between atoms: C11_18  and  C13_20 
REMARK   11  A    between atoms: N4_21  and  C14_22 
REMARK   12  A    between atoms: C14_22  and  C15_23 
REMARK   13  A    between atoms: C14_22  and  C16_25 
REMARK       I    between atoms: C15_23  and  N6_40 
REMARK   14  A    between atoms: C16_25  and  C17_26 
REMARK   15  A    between atoms: C17_26  and  C18_27 
REMARK   16  A    between atoms: C17_26  and  C19_28 
REMARK   17  A    between atoms: C20_29  and  C21_30 
REMARK   18  A    between atoms: C20_29  and  C24_33 
REMARK   19  A    between atoms: C20_29  and  N6_40 
REMARK   20  A    between atoms: C21_30  and  C22_31 
REMARK   21  A    between atoms: C22_31  and  C23_32 
REMARK   22  A    between atoms: C23_32  and  O8_43 
REMARK   23  A    between atoms: C24_33  and  C25_34 
REMARK   24  A    between atoms: C28_38  and  O6_39 
REMARK   25  A    between atoms: C29_42  and  O8_43 
REMARK   26  A    between atoms: C29_42  and  C35_49 
ROOT
ATOM      1  C14 non d ame     -10.943  10.309  68.401  0.00  0.00     0.089 C 
ATOM      2  H20 non d ame     -11.840   9.697  68.305  0.00  0.00     0.087 H 
ENDROOT
BRANCH   1   3
ATOM      3  N4  non d ame      -9.988   9.849  67.404  0.00  0.00    -0.346 N 
ATOM      4  C10 non d ame     -10.038   8.427  66.902  0.00  0.00     0.241 C 
ATOM      5  O4  non d ame     -10.854   7.672  67.318  0.00  0.00    -0.271 OA
ATOM      6  H19 non d ame      -9.300  10.507  67.065  0.00  0.00     0.163 HD
BRANCH   4   7
ATOM      7  C9  non d ame      -9.046   7.969  65.866  0.00  0.00     0.092 C 
ATOM      8  H11 non d ame      -9.529   7.257  65.196  0.00  0.00     0.088 H 
BRANCH   7   9
ATOM      9  N3  non d ame      -8.626   9.113  65.050  0.00  0.00    -0.346 N 
ATOM     10  C7  non d ame      -8.503   8.973  63.621  0.00  0.00     0.240 C 
ATOM     11  O3  non d ame      -8.735   7.946  63.109  0.00  0.00    -0.271 OA
ATOM     12  H10 non d ame      -8.420  10.004  65.478  0.00  0.00     0.163 HD
BRANCH  10  13
ATOM     13  C6  non d ame      -8.052  10.193  62.759  0.00  0.00     0.086 C 
ATOM     14  H6  non d ame      -8.397  10.132  61.727  0.00  0.00     0.086 H 
BRANCH  13  15
ATOM     15  N2  non d ame      -8.631  11.404  63.319  0.00  0.00    -0.343 N 
ATOM     16  C5  non d ame     -10.087  11.539  63.393  0.00  0.00     0.273 C 
ATOM     17  O2  non d ame     -10.784  10.670  62.998  0.00  0.00    -0.266 OA
ATOM     18  H5  non d ame      -8.028  12.142  63.652  0.00  0.00     0.163 HD
BRANCH  16  19
ATOM     19  C4  non d ame     -10.713  12.812  63.984  0.00  0.00     0.154 A 
ATOM     20  C1  non d ame     -10.042  13.849  64.707  0.00  0.00    -0.017 A 
ATOM     21  C2  non d ame     -11.054  14.782  65.028  0.00  0.00     0.077 A 
ATOM     22  H1  non d ame      -8.984  13.915  64.961  0.00  0.00     0.091 H 
ATOM     23  O1  non d ame     -12.170  14.326  64.539  0.00  0.00    -0.218 OA
ATOM     24  N1  non d ame     -11.997  13.177  63.926  0.00  0.00    -0.123 NA
BRANCH  21  25
ATOM     25  C3  non d ame     -10.870  16.082  65.799  0.00  0.00    -0.029 C 
ATOM     26  H2  non d ame     -11.792  16.663  65.759  0.00  0.00     0.036 H 
ATOM     27  H3  non d ame     -10.628  15.857  66.837  0.00  0.00     0.036 H 
ATOM     28  H4  non d ame     -10.058  16.658  65.354  0.00  0.00     0.036 H 
ENDBRANCH  21  25
ENDBRANCH  16  19
ENDBRANCH  13  15
BRANCH  13  29
ATOM     29  C8  non d ame      -6.548  10.290  62.766  0.00  0.00    -0.049 C 
ATOM     30  H7  non d ame      -6.218  10.888  61.916  0.00  0.00     0.030 H 
ATOM     31  H8  non d ame      -6.219  10.762  63.692  0.00  0.00     0.030 H 
ATOM     32  H9  non d ame      -6.120   9.291  62.694  0.00  0.00     0.030 H 
ENDBRANCH  13  29
ENDBRANCH  10  13
ENDBRANCH   7   9
BRANCH   7  33
ATOM     33  C11 non d ame      -7.802   7.355  66.573  0.00  0.00    -0.033 C 
ATOM     34  H12 non d ame      -6.954   7.460  65.896  0.00  0.00     0.042 H 
BRANCH  33  35
ATOM     35  C12 non d ame      -7.454   8.128  67.883  0.00  0.00    -0.071 C 
ATOM     36  H13 non d ame      -7.421   7.429  68.719  0.00  0.00     0.028 H 
ATOM     37  H14 non d ame      -6.483   8.610  67.774  0.00  0.00     0.028 H 
ATOM     38  H15 non d ame      -8.216   8.885  68.071  0.00  0.00     0.028 H 
ENDBRANCH  33  35
BRANCH  33  39
ATOM     39  C13 non d ame      -8.013   5.833  66.853  0.00  0.00    -0.071 C 
ATOM     40  H16 non d ame      -8.930   5.692  67.424  0.00  0.00     0.028 H 
ATOM     41  H17 non d ame      -8.087   5.296  65.907  0.00  0.00     0.028 H 
ATOM     42  H18 non d ame      -7.167   5.449  67.423  0.00  0.00     0.028 H 
ENDBRANCH  33  39
ENDBRANCH   7  33
ENDBRANCH   4   7
ENDBRANCH   1   3
BRANCH   1  43
ATOM     43  C15 non d ame     -11.231  11.817  68.152  0.00  0.00     0.240 C 
ATOM     44  O5  non d ame     -11.970  12.142  67.278  0.00  0.00    -0.271 OA
ATOM     45  N6  non d ame     -10.592  12.858  69.006  0.00  0.00    -0.355 N 
ATOM     46  H46 non d ame      -9.966  12.595  69.754  0.00  0.00     0.162 HD
BRANCH  45  47
ATOM     47  C20 non d ame     -10.877  14.288  68.757  0.00  0.00     0.013 C 
ATOM     48  H30 non d ame     -11.089  14.407  67.694  0.00  0.00     0.072 H 
BRANCH  47  49
ATOM     49  C21 non d ame      -9.669  15.113  69.138  0.00  0.00    -0.038 C 
ATOM     50  H31 non d ame      -9.857  16.111  68.743  0.00  0.00     0.036 H 
ATOM     51  H32 non d ame      -9.539  14.966  70.211  0.00  0.00     0.036 H 
BRANCH  49  52
ATOM     52  C22 non d ame      -8.369  14.616  68.470  0.00  0.00     0.018 C 
ATOM     53  H33 non d ame      -8.251  13.579  68.787  0.00  0.00     0.048 H 
ATOM     54  H34 non d ame      -8.471  14.854  67.411  0.00  0.00     0.048 H 
BRANCH  52  55
ATOM     55  C23 non d ame      -7.092  15.358  68.956  0.00  0.00     0.259 C 
ATOM     56  O7  non d ame      -6.510  14.985  69.921  0.00  0.00    -0.265 OA
BRANCH  55  57
ATOM     57  O8  non d ame      -6.634  16.499  68.240  0.00  0.00    -0.317 OA
BRANCH  57  58
ATOM     58  C29 non d ame      -6.853  17.739  68.919  0.00  0.00     0.052 C 
ATOM     59  H47 non d ame      -7.237  17.474  69.903  0.00  0.00     0.082 H 
ATOM     60  H48 non d ame      -5.917  18.292  68.830  0.00  0.00     0.082 H 
BRANCH  58  61
ATOM     61  C35 non d ame      -7.956  18.516  68.154  0.00  0.00    -0.034 A 
ATOM     62  C30 non d ame      -9.115  18.910  68.813  0.00  0.00    -0.075 A 
ATOM     63  C31 non d ame     -10.107  19.608  68.126  0.00  0.00    -0.082 A 
ATOM     64  H49 non d ame      -9.247  18.673  69.868  0.00  0.00     0.084 H 
ATOM     65  C32 non d ame      -9.937  19.910  66.772  0.00  0.00    -0.083 A 
ATOM     66  H50 non d ame     -11.013  19.917  68.646  0.00  0.00     0.083 H 
ATOM     67  C33 non d ame      -8.780  19.512  66.116  0.00  0.00    -0.082 A 
ATOM     68  H51 non d ame     -10.708  20.455  66.227  0.00  0.00     0.083 H 
ATOM     69  C34 non d ame      -7.785  18.816  66.801  0.00  0.00    -0.075 A 
ATOM     70  H52 non d ame      -8.651  19.746  65.059  0.00  0.00     0.083 H 
ATOM     71  H53 non d ame      -6.878  18.507  66.279  0.00  0.00     0.084 H 
ENDBRANCH  58  61
ENDBRANCH  57  58
ENDBRANCH  55  57
ENDBRANCH  52  55
ENDBRANCH  49  52
ENDBRANCH  47  49
BRANCH  47  72
ATOM     72  C24 non d ame     -12.078  14.728  69.590  0.00  0.00    -0.039 C 
ATOM     73  H35 non d ame     -12.018  15.815  69.637  0.00  0.00     0.036 H 
ATOM     74  H36 non d ame     -12.943  14.250  69.129  0.00  0.00     0.036 H 
BRANCH  72  75
ATOM     75  C25 non d ame     -11.987  14.185  71.095  0.00  0.00    -0.001 C 
ATOM     76  C26 non d ame     -13.284  13.230  71.427  0.00  0.00    -0.035 C 
ATOM     77  C27 non d ame     -13.858  13.658  72.576  0.00  0.00     0.085 C 
ATOM     78  H38 non d ame     -14.062  13.386  70.680  0.00  0.00     0.036 H 
ATOM     79  H39 non d ame     -12.953  12.220  71.668  0.00  0.00     0.036 H 
ATOM     80  N5  non d ame     -13.270  15.014  72.886  0.00  0.00    -0.049 N 
ATOM     81  H40 non d ame     -14.918  13.774  72.348  0.00  0.00     0.075 H 
ATOM     82  H41 non d ame     -13.539  12.951  73.342  0.00  0.00     0.075 H 
ATOM     83  C28 non d ame     -11.967  15.159  71.943  0.00  0.00     0.193 C 
ATOM     84  H42 non d ame     -13.956  15.696  72.594  0.00  0.00     0.280 HD
ATOM     85  H43 non d ame     -12.968  14.982  73.849  0.00  0.00     0.280 HD
ATOM     86  H44 non d ame     -10.967  15.041  72.359  0.00  0.00     0.129 H 
ATOM     87  H37 non d ame     -11.001  13.782  71.329  0.00  0.00     0.046 H 
BRANCH  83  88
ATOM     88  O6  non d ame     -11.965  16.434  71.299  0.00  0.00    -0.369 OA
ATOM     89  H45 non d ame     -12.478  16.385  70.490  0.00  0.00     0.212 HD
ENDBRANCH  83  88
ENDBRANCH  72  75
ENDBRANCH  47  72
ENDBRANCH  45  47
ENDBRANCH   1  43
BRANCH   1  90
ATOM     90  C16 non d ame     -10.341  10.126  69.787  0.00  0.00    -0.035 C 
ATOM     91  H21 non d ame      -9.359   9.685  69.618  0.00  0.00     0.037 H 
ATOM     92  H22 non d ame     -10.425  11.100  70.268  0.00  0.00     0.037 H 
BRANCH  90  93
ATOM     93  C17 non d ame     -11.129   9.119  70.683  0.00  0.00    -0.059 C 
ATOM     94  H23 non d ame     -11.454   8.295  70.048  0.00  0.00     0.038 H 
BRANCH  93  95
ATOM     95  C18 non d ame     -10.242   8.524  71.822  0.00  0.00    -0.073 C 
ATOM     96  H24 non d ame      -9.317   9.096  71.899  0.00  0.00     0.028 H 
ATOM     97  H25 non d ame     -10.781   8.576  72.768  0.00  0.00     0.028 H 
ATOM     98  H26 non d ame     -10.009   7.484  71.595  0.00  0.00     0.028 H 
ENDBRANCH  93  95
BRANCH  93  99
ATOM     99  C19 non d ame     -12.389   9.771  71.259  0.00  0.00    -0.073 C 
ATOM    100  H27 non d ame     -12.592   9.358  72.247  0.00  0.00     0.028 H 
ATOM    101  H28 non d ame     -12.238  10.848  71.339  0.00  0.00     0.028 H 
ATOM    102  H29 non d ame     -13.234   9.571  70.601  0.00  0.00     0.028 H 
ENDBRANCH  93  99
ENDBRANCH  90  93
ENDBRANCH   1  90
TORSDOF 26
ENDMDL
MODEL 16
REMARK VINA RESULT:      -6.1      2.582      6.411
REMARK  26 active torsions:
REMARK  status: ('A' for Active; 'I' for Inactive)
REMARK    1  A    between atoms: C2_2  and  C3_3 
REMARK    2  A    between atoms: C4_6  and  C5_7 
REMARK       I    between atoms: C5_7  and  N2_9 
REMARK    3  A    between atoms: N2_9  and  C6_10 
REMARK    4  A    between atoms: C6_10  and  C7_11 
REMARK    5  A    between atoms: C6_10  and  C8_13 
REMARK       I    between atoms: C7_11  and  N3_14 
REMARK    6  A    between atoms: N3_14  and  C9_15 
REMARK    7  A    between atoms: C9_15  and  C10_16 
REMARK    8  A    between atoms: C9_15  and  C11_18 
REMARK       I    between atoms: C10_16  and  N4_21 
REMARK    9  A    between atoms: C11_18  and  C12_19 
REMARK   10  A    between atoms: C11_18  and  C13_20 
REMARK   11  A    between atoms: N4_21  and  C14_22 
REMARK   12  A    between atoms: C14_22  and  C15_23 
REMARK   13  A    between atoms: C14_22  and  C16_25 
REMARK       I    between atoms: C15_23  and  N6_40 
REMARK   14  A    between atoms: C16_25  and  C17_26 
REMARK   15  A    between atoms: C17_26  and  C18_27 
REMARK   16  A    between atoms: C17_26  and  C19_28 
REMARK   17  A    between atoms: C20_29  and  C21_30 
REMARK   18  A    between atoms: C20_29  and  C24_33 
REMARK   19  A    between atoms: C20_29  and  N6_40 
REMARK   20  A    between atoms: C21_30  and  C22_31 
REMARK   21  A    between atoms: C22_31  and  C23_32 
REMARK   22  A    between atoms: C23_32  and  O8_43 
REMARK   23  A    between atoms: C24_33  and  C25_34 
REMARK   24  A    between atoms: C28_38  and  O6_39 
REMARK   25  A    between atoms: C29_42  and  O8_43 
REMARK   26  A    between atoms: C29_42  and  C35_49 
ROOT
ATOM      1  C14 non d ame      -9.742  10.004  69.296  0.00  0.00     0.089 C 
ATOM      2  H20 non d ame      -9.273   9.038  69.479  0.00  0.00     0.087 H 
ENDROOT
BRANCH   1   3
ATOM      3  N4  non d ame      -8.708  11.022  69.407  0.00  0.00    -0.346 N 
ATOM      4  C10 non d ame      -7.270  10.683  69.105  0.00  0.00     0.241 C 
ATOM      5  O4  non d ame      -6.970   9.582  68.777  0.00  0.00    -0.271 OA
ATOM      6  H19 non d ame      -8.985  11.952  69.690  0.00  0.00     0.163 HD
BRANCH   4   7
ATOM      7  C9  non d ame      -6.214  11.750  69.219  0.00  0.00     0.092 C 
ATOM      8  H11 non d ame      -5.688  11.837  68.268  0.00  0.00     0.088 H 
BRANCH   7   9
ATOM      9  N3  non d ame      -6.851  13.044  69.480  0.00  0.00    -0.346 N 
ATOM     10  C7  non d ame      -7.025  13.992  68.408  0.00  0.00     0.240 C 
ATOM     11  O3  non d ame      -6.656  13.731  67.328  0.00  0.00    -0.271 OA
ATOM     12  H10 non d ame      -7.173  13.284  70.407  0.00  0.00     0.163 HD
BRANCH  10  13
ATOM     13  C6  non d ame      -7.701  15.369  68.694  0.00  0.00     0.086 C 
ATOM     14  H6  non d ame      -8.148  15.813  67.804  0.00  0.00     0.086 H 
BRANCH  13  15
ATOM     15  N2  non d ame      -8.781  15.174  69.648  0.00  0.00    -0.343 N 
ATOM     16  C5  non d ame     -10.150  15.532  69.269  0.00  0.00     0.273 C 
ATOM     17  O2  non d ame     -10.372  15.977  68.197  0.00  0.00    -0.266 OA
ATOM     18  H5  non d ame      -8.583  14.795  70.562  0.00  0.00     0.163 HD
BRANCH  16  19
ATOM     19  C4  non d ame     -11.302  15.330  70.266  0.00  0.00     0.154 A 
ATOM     20  C1  non d ame     -12.703  15.307  69.975  0.00  0.00    -0.017 A 
ATOM     21  C2  non d ame     -13.331  15.093  71.223  0.00  0.00     0.077 A 
ATOM     22  H1  non d ame     -13.191  15.429  69.007  0.00  0.00     0.091 H 
ATOM     23  O1  non d ame     -12.390  15.001  72.119  0.00  0.00    -0.218 OA
ATOM     24  N1  non d ame     -11.198  15.137  71.584  0.00  0.00    -0.123 NA
BRANCH  21  25
ATOM     25  C3  non d ame     -14.828  14.985  71.472  0.00  0.00    -0.029 C 
ATOM     26  H2  non d ame     -15.282  15.974  71.400  0.00  0.00     0.036 H 
ATOM     27  H3  non d ame     -15.274  14.326  70.727  0.00  0.00     0.036 H 
ATOM     28  H4  non d ame     -15.004  14.577  72.468  0.00  0.00     0.036 H 
ENDBRANCH  21  25
ENDBRANCH  16  19
ENDBRANCH  13  15
BRANCH  13  29
ATOM     29  C8  non d ame      -6.682  16.326  69.258  0.00  0.00    -0.049 C 
ATOM     30  H7  non d ame      -6.341  16.999  68.471  0.00  0.00     0.030 H 
ATOM     31  H8  non d ame      -7.136  16.907  70.062  0.00  0.00     0.030 H 
ATOM     32  H9  non d ame      -5.834  15.765  69.648  0.00  0.00     0.030 H 
ENDBRANCH  13  29
ENDBRANCH  10  13
ENDBRANCH   7   9
BRANCH   7  33
ATOM     33  C11 non d ame      -5.250  11.403  70.391  0.00  0.00    -0.033 C 
ATOM     34  H12 non d ame      -5.613  10.484  70.854  0.00  0.00     0.042 H 
BRANCH  33  35
ATOM     35  C12 non d ame      -3.803  11.128  69.875  0.00  0.00    -0.071 C 
ATOM     36  H13 non d ame      -3.838  10.399  69.066  0.00  0.00     0.028 H 
ATOM     37  H14 non d ame      -3.366  12.057  69.509  0.00  0.00     0.028 H 
ATOM     38  H15 non d ame      -3.195  10.738  70.691  0.00  0.00     0.028 H 
ENDBRANCH  33  35
BRANCH  33  39
ATOM     39  C13 non d ame      -5.261  12.527  71.476  0.00  0.00    -0.071 C 
ATOM     40  H16 non d ame      -6.272  12.920  71.582  0.00  0.00     0.028 H 
ATOM     41  H17 non d ame      -4.928  12.117  72.429  0.00  0.00     0.028 H 
ATOM     42  H18 non d ame      -4.590  13.330  71.171  0.00  0.00     0.028 H 
ENDBRANCH  33  39
ENDBRANCH   7  33
ENDBRANCH   4   7
ENDBRANCH   1   3
BRANCH   1  43
ATOM     43  C15 non d ame     -10.374  10.092  67.878  0.00  0.00     0.240 C 
ATOM     44  O5  non d ame     -11.556  10.160  67.759  0.00  0.00    -0.271 OA
ATOM     45  N6  non d ame      -9.507  10.102  66.666  0.00  0.00    -0.355 N 
ATOM     46  H46 non d ame      -8.502  10.050  66.753  0.00  0.00     0.162 HD
BRANCH  45  47
ATOM     47  C20 non d ame     -10.123  10.187  65.324  0.00  0.00     0.013 C 
ATOM     48  H30 non d ame     -11.158   9.858  65.409  0.00  0.00     0.072 H 
BRANCH  47  49
ATOM     49  C21 non d ame      -9.371   9.286  64.370  0.00  0.00    -0.038 C 
ATOM     50  H31 non d ame      -8.815   8.590  64.998  0.00  0.00     0.036 H 
ATOM     51  H32 non d ame     -10.119   8.912  63.669  0.00  0.00     0.036 H 
BRANCH  49  52
ATOM     52  C22 non d ame      -8.325  10.046  63.526  0.00  0.00     0.018 C 
ATOM     53  H33 non d ame      -8.871  10.453  62.675  0.00  0.00     0.048 H 
ATOM     54  H34 non d ame      -7.817  10.716  64.220  0.00  0.00     0.048 H 
BRANCH  52  55
ATOM     55  C23 non d ame      -7.221   9.131  62.927  0.00  0.00     0.259 C 
ATOM     56  O7  non d ame      -6.099   9.513  62.849  0.00  0.00    -0.265 OA
BRANCH  55  57
ATOM     57  O8  non d ame      -7.568   7.833  62.459  0.00  0.00    -0.317 OA
BRANCH  57  58
ATOM     58  C29 non d ame      -6.988   6.766  63.214  0.00  0.00     0.052 C 
ATOM     59  H47 non d ame      -6.270   6.289  62.547  0.00  0.00     0.082 H 
ATOM     60  H48 non d ame      -6.648   7.216  64.147  0.00  0.00     0.082 H 
BRANCH  58  61
ATOM     61  C35 non d ame      -8.109   5.745  63.541  0.00  0.00    -0.034 A 
ATOM     62  C30 non d ame      -8.499   5.537  64.860  0.00  0.00    -0.075 A 
ATOM     63  C31 non d ame      -9.507   4.620  65.154  0.00  0.00    -0.082 A 
ATOM     64  H49 non d ame      -8.015   6.092  65.663  0.00  0.00     0.084 H 
ATOM     65  C32 non d ame     -10.124   3.907  64.123  0.00  0.00    -0.083 A 
ATOM     66  H50 non d ame      -9.811   4.461  66.188  0.00  0.00     0.083 H 
ATOM     67  C33 non d ame      -9.730   4.115  62.808  0.00  0.00    -0.082 A 
ATOM     68  H51 non d ame     -10.913   3.188  64.344  0.00  0.00     0.083 H 
ATOM     69  C34 non d ame      -8.724   5.033  62.510  0.00  0.00    -0.075 A 
ATOM     70  H52 non d ame     -10.212   3.556  62.006  0.00  0.00     0.083 H 
ATOM     71  H53 non d ame      -8.421   5.192  61.474  0.00  0.00     0.084 H 
ENDBRANCH  58  61
ENDBRANCH  57  58
ENDBRANCH  55  57
ENDBRANCH  52  55
ENDBRANCH  49  52
ENDBRANCH  47  49
BRANCH  47  72
ATOM     72  C24 non d ame     -10.063  11.627  64.819  0.00  0.00    -0.039 C 
ATOM     73  H35 non d ame      -9.196  12.071  65.308  0.00  0.00     0.036 H 
ATOM     74  H36 non d ame     -10.098  11.556  63.732  0.00  0.00     0.036 H 
BRANCH  72  75
ATOM     75  C25 non d ame     -11.346  12.470  65.279  0.00  0.00    -0.001 C 
ATOM     76  C26 non d ame     -11.983  13.269  63.991  0.00  0.00    -0.035 C 
ATOM     77  C27 non d ame     -12.134  14.574  64.318  0.00  0.00     0.085 C 
ATOM     78  H38 non d ame     -11.262  13.294  63.173  0.00  0.00     0.036 H 
ATOM     79  H39 non d ame     -13.003  12.932  63.807  0.00  0.00     0.036 H 
ATOM     80  N5  non d ame     -11.359  14.803  65.593  0.00  0.00    -0.049 N 
ATOM     81  H40 non d ame     -11.663  15.135  63.510  0.00  0.00     0.075 H 
ATOM     82  H41 non d ame     -13.197  14.702  64.522  0.00  0.00     0.075 H 
ATOM     83  C28 non d ame     -11.036  13.336  66.186  0.00  0.00     0.193 C 
ATOM     84  H42 non d ame     -10.489  15.239  65.325  0.00  0.00     0.280 HD
ATOM     85  H43 non d ame     -11.986  15.275  66.229  0.00  0.00     0.280 HD
ATOM     86  H44 non d ame     -11.599  12.945  67.034  0.00  0.00     0.129 H 
ATOM     87  H37 non d ame     -12.033  11.878  65.884  0.00  0.00     0.046 H 
BRANCH  83  88
ATOM     88  O6  non d ame      -9.663  13.250  66.566  0.00  0.00    -0.369 OA
ATOM     89  H45 non d ame      -9.108  13.458  65.812  0.00  0.00     0.212 HD
ENDBRANCH  83  88
ENDBRANCH  72  75
ENDBRANCH  47  72
ENDBRANCH  45  47
ENDBRANCH   1  43
BRANCH   1  90
ATOM     90  C16 non d ame     -10.810  10.264  70.348  0.00  0.00    -0.035 C 
ATOM     91  H21 non d ame     -10.443  11.112  70.928  0.00  0.00     0.037 H 
ATOM     92  H22 non d ame     -11.745  10.347  69.795  0.00  0.00     0.037 H 
BRANCH  90  93
ATOM     93  C17 non d ame     -10.995   9.087  71.357  0.00  0.00    -0.059 C 
ATOM     94  H23 non d ame     -11.584   9.460  72.195  0.00  0.00     0.038 H 
BRANCH  93  95
ATOM     95  C18 non d ame     -11.769   7.886  70.727  0.00  0.00    -0.073 C 
ATOM     96  H24 non d ame     -11.098   7.321  70.079  0.00  0.00     0.028 H 
ATOM     97  H25 non d ame     -12.138   7.236  71.520  0.00  0.00     0.028 H 
ATOM     98  H26 non d ame     -12.609   8.260  70.143  0.00  0.00     0.028 H 
ENDBRANCH  93  95
BRANCH  93  99
ATOM     99  C19 non d ame      -9.645   8.632  71.919  0.00  0.00    -0.073 C 
ATOM    100  H27 non d ame      -8.860   9.298  71.561  0.00  0.00     0.028 H 
ATOM    101  H28 non d ame      -9.677   8.660  73.008  0.00  0.00     0.028 H 
ATOM    102  H29 non d ame      -9.438   7.615  71.587  0.00  0.00     0.028 H 
ENDBRANCH  93  99
ENDBRANCH  90  93
ENDBRANCH   1  90
TORSDOF 26
ENDMDL
MODEL 17
REMARK VINA RESULT:      -6.1      3.433      9.653
REMARK  26 active torsions:
REMARK  status: ('A' for Active; 'I' for Inactive)
REMARK    1  A    between atoms: C2_2  and  C3_3 
REMARK    2  A    between atoms: C4_6  and  C5_7 
REMARK       I    between atoms: C5_7  and  N2_9 
REMARK    3  A    between atoms: N2_9  and  C6_10 
REMARK    4  A    between atoms: C6_10  and  C7_11 
REMARK    5  A    between atoms: C6_10  and  C8_13 
REMARK       I    between atoms: C7_11  and  N3_14 
REMARK    6  A    between atoms: N3_14  and  C9_15 
REMARK    7  A    between atoms: C9_15  and  C10_16 
REMARK    8  A    between atoms: C9_15  and  C11_18 
REMARK       I    between atoms: C10_16  and  N4_21 
REMARK    9  A    between atoms: C11_18  and  C12_19 
REMARK   10  A    between atoms: C11_18  and  C13_20 
REMARK   11  A    between atoms: N4_21  and  C14_22 
REMARK   12  A    between atoms: C14_22  and  C15_23 
REMARK   13  A    between atoms: C14_22  and  C16_25 
REMARK       I    between atoms: C15_23  and  N6_40 
REMARK   14  A    between atoms: C16_25  and  C17_26 
REMARK   15  A    between atoms: C17_26  and  C18_27 
REMARK   16  A    between atoms: C17_26  and  C19_28 
REMARK   17  A    between atoms: C20_29  and  C21_30 
REMARK   18  A    between atoms: C20_29  and  C24_33 
REMARK   19  A    between atoms: C20_29  and  N6_40 
REMARK   20  A    between atoms: C21_30  and  C22_31 
REMARK   21  A    between atoms: C22_31  and  C23_32 
REMARK   22  A    between atoms: C23_32  and  O8_43 
REMARK   23  A    between atoms: C24_33  and  C25_34 
REMARK   24  A    between atoms: C28_38  and  O6_39 
REMARK   25  A    between atoms: C29_42  and  O8_43 
REMARK   26  A    between atoms: C29_42  and  C35_49 
ROOT
ATOM      1  C14 non d ame      -8.418   8.594  63.060  0.00  0.00     0.089 C 
ATOM      2  H20 non d ame      -9.302   8.876  62.489  0.00  0.00     0.087 H 
ENDROOT
BRANCH   1   3
ATOM      3  N4  non d ame      -8.478   9.293  64.335  0.00  0.00    -0.346 N 
ATOM      4  C10 non d ame      -9.496  10.383  64.559  0.00  0.00     0.241 C 
ATOM      5  O4  non d ame     -10.255  10.682  63.696  0.00  0.00    -0.271 OA
ATOM      6  H19 non d ame      -7.822   9.025  65.056  0.00  0.00     0.163 HD
BRANCH   4   7
ATOM      7  C9  non d ame      -9.549  11.092  65.887  0.00  0.00     0.092 C 
ATOM      8  H11 non d ame      -8.599  11.597  66.061  0.00  0.00     0.088 H 
BRANCH   7   9
ATOM      9  N3  non d ame     -10.587  12.126  65.848  0.00  0.00    -0.346 N 
ATOM     10  C7  non d ame     -10.284  13.469  66.275  0.00  0.00     0.240 C 
ATOM     11  O3  non d ame      -9.209  13.736  66.654  0.00  0.00    -0.271 OA
ATOM     12  H10 non d ame     -11.519  11.910  65.525  0.00  0.00     0.163 HD
BRANCH  10  13
ATOM     13  C6  non d ame     -11.395  14.564  66.235  0.00  0.00     0.086 C 
ATOM     14  H6  non d ame     -12.057  14.525  67.100  0.00  0.00     0.086 H 
BRANCH  13  15
ATOM     15  N2  non d ame     -10.765  15.874  66.252  0.00  0.00    -0.343 N 
ATOM     16  C5  non d ame     -10.869  16.709  67.451  0.00  0.00     0.273 C 
ATOM     17  O2  non d ame     -11.462  16.318  68.395  0.00  0.00    -0.266 OA
ATOM     18  H5  non d ame     -10.262  16.201  65.440  0.00  0.00     0.163 HD
BRANCH  16  19
ATOM     19  C4  non d ame     -10.207  18.095  67.483  0.00  0.00     0.154 A 
ATOM     20  C1  non d ame      -8.818  18.394  67.313  0.00  0.00    -0.017 A 
ATOM     21  C2  non d ame      -8.730  19.799  67.429  0.00  0.00     0.077 A 
ATOM     22  H1  non d ame      -7.998  17.698  67.133  0.00  0.00     0.091 H 
ATOM     23  O1  non d ame      -9.935  20.246  67.640  0.00  0.00    -0.218 OA
ATOM     24  N1  non d ame     -10.813  19.270  67.676  0.00  0.00    -0.123 NA
BRANCH  21  25
ATOM     25  C3  non d ame      -7.463  20.635  67.325  0.00  0.00    -0.029 C 
ATOM     26  H2  non d ame      -7.305  21.176  68.259  0.00  0.00     0.036 H 
ATOM     27  H3  non d ame      -6.611  19.982  67.135  0.00  0.00     0.036 H 
ATOM     28  H4  non d ame      -7.563  21.348  66.505  0.00  0.00     0.036 H 
ENDBRANCH  21  25
ENDBRANCH  16  19
ENDBRANCH  13  15
BRANCH  13  29
ATOM     29  C8  non d ame     -12.218  14.403  64.983  0.00  0.00    -0.049 C 
ATOM     30  H7  non d ame     -12.925  13.583  65.115  0.00  0.00     0.030 H 
ATOM     31  H8  non d ame     -12.766  15.327  64.788  0.00  0.00     0.030 H 
ATOM     32  H9  non d ame     -11.562  14.185  64.142  0.00  0.00     0.030 H 
ENDBRANCH  13  29
ENDBRANCH  10  13
ENDBRANCH   7   9
BRANCH   7  33
ATOM     33  C11 non d ame      -9.882  10.067  67.010  0.00  0.00    -0.033 C 
ATOM     34  H12 non d ame      -9.991   9.089  66.540  0.00  0.00     0.042 H 
BRANCH  33  35
ATOM     35  C12 non d ame      -8.720   9.961  68.046  0.00  0.00    -0.071 C 
ATOM     36  H13 non d ame      -8.076   9.121  67.786  0.00  0.00     0.028 H 
ATOM     37  H14 non d ame      -8.137  10.882  68.034  0.00  0.00     0.028 H 
ATOM     38  H15 non d ame      -9.135   9.808  69.042  0.00  0.00     0.028 H 
ENDBRANCH  33  35
BRANCH  33  39
ATOM     39  C13 non d ame     -11.233  10.422  67.708  0.00  0.00    -0.071 C 
ATOM     40  H16 non d ame     -11.085  10.464  68.787  0.00  0.00     0.028 H 
ATOM     41  H17 non d ame     -11.584  11.391  67.351  0.00  0.00     0.028 H 
ATOM     42  H18 non d ame     -11.974   9.658  67.473  0.00  0.00     0.028 H 
ENDBRANCH  33  39
ENDBRANCH   7  33
ENDBRANCH   4   7
ENDBRANCH   1   3
BRANCH   1  43
ATOM     43  C15 non d ame      -8.359   7.065  63.336  0.00  0.00     0.240 C 
ATOM     44  O5  non d ame      -8.166   6.309  62.438  0.00  0.00    -0.271 OA
ATOM     45  N6  non d ame      -8.533   6.541  64.720  0.00  0.00    -0.355 N 
ATOM     46  H46 non d ame      -8.693   7.173  65.492  0.00  0.00     0.162 HD
BRANCH  45  47
ATOM     47  C20 non d ame      -8.473   5.084  64.966  0.00  0.00     0.013 C 
ATOM     48  H30 non d ame      -8.238   4.594  64.021  0.00  0.00     0.072 H 
BRANCH  47  49
ATOM     49  C21 non d ame      -9.814   4.606  65.475  0.00  0.00    -0.038 C 
ATOM     50  H31 non d ame     -10.530   5.377  65.187  0.00  0.00     0.036 H 
ATOM     51  H32 non d ame      -9.926   3.589  65.098  0.00  0.00     0.036 H 
BRANCH  49  52
ATOM     52  C22 non d ame      -9.871   4.510  67.015  0.00  0.00     0.018 C 
ATOM     53  H33 non d ame     -10.542   3.679  67.235  0.00  0.00     0.048 H 
ATOM     54  H34 non d ame      -8.833   4.474  67.347  0.00  0.00     0.048 H 
BRANCH  52  55
ATOM     55  C23 non d ame     -10.498   5.757  67.697  0.00  0.00     0.259 C 
ATOM     56  O7  non d ame     -10.840   6.691  67.048  0.00  0.00    -0.265 OA
BRANCH  55  57
ATOM     57  O8  non d ame     -10.647   5.777  69.112  0.00  0.00    -0.317 OA
BRANCH  57  58
ATOM     58  C29 non d ame     -10.138   6.960  69.735  0.00  0.00     0.052 C 
ATOM     59  H47 non d ame      -9.389   6.619  70.448  0.00  0.00     0.082 H 
ATOM     60  H48 non d ame      -9.852   7.623  68.919  0.00  0.00     0.082 H 
BRANCH  58  61
ATOM     61  C35 non d ame     -11.299   7.624  70.522  0.00  0.00    -0.034 A 
ATOM     62  C30 non d ame     -11.179   8.936  70.967  0.00  0.00    -0.075 A 
ATOM     63  C31 non d ame     -12.221   9.532  71.674  0.00  0.00    -0.082 A 
ATOM     64  H49 non d ame     -10.267   9.497  70.762  0.00  0.00     0.084 H 
ATOM     65  C32 non d ame     -13.388   8.810  71.938  0.00  0.00    -0.083 A 
ATOM     66  H50 non d ame     -12.124  10.561  72.020  0.00  0.00     0.083 H 
ATOM     67  C33 non d ame     -13.504   7.499  71.495  0.00  0.00    -0.082 A 
ATOM     68  H51 non d ame     -14.209   9.269  72.490  0.00  0.00     0.083 H 
ATOM     69  C34 non d ame     -12.464   6.901  70.785  0.00  0.00    -0.075 A 
ATOM     70  H52 non d ame     -14.414   6.938  71.704  0.00  0.00     0.083 H 
ATOM     71  H53 non d ame     -12.563   5.870  70.439  0.00  0.00     0.084 H 
ENDBRANCH  58  61
ENDBRANCH  57  58
ENDBRANCH  55  57
ENDBRANCH  52  55
ENDBRANCH  49  52
ENDBRANCH  47  49
BRANCH  47  72
ATOM     72  C24 non d ame      -7.395   4.780  66.004  0.00  0.00    -0.039 C 
ATOM     73  H35 non d ame      -7.844   5.020  66.968  0.00  0.00     0.036 H 
ATOM     74  H36 non d ame      -7.069   3.760  65.794  0.00  0.00     0.036 H 
BRANCH  72  75
ATOM     75  C25 non d ame      -6.117   5.730  65.827  0.00  0.00    -0.001 C 
ATOM     76  C26 non d ame      -5.040   5.036  64.797  0.00  0.00    -0.035 C 
ATOM     77  C27 non d ame      -3.820   5.024  65.383  0.00  0.00     0.085 C 
ATOM     78  H38 non d ame      -5.273   3.979  64.670  0.00  0.00     0.036 H 
ATOM     79  H39 non d ame      -4.897   5.671  63.922  0.00  0.00     0.036 H 
ATOM     80  N5  non d ame      -4.028   5.347  66.843  0.00  0.00    -0.049 N 
ATOM     81  H40 non d ame      -3.463   3.997  65.294  0.00  0.00     0.075 H 
ATOM     82  H41 non d ame      -3.264   5.837  64.916  0.00  0.00     0.075 H 
ATOM     83  C28 non d ame      -5.528   5.935  66.958  0.00  0.00     0.193 C 
ATOM     84  H42 non d ame      -3.989   4.468  67.339  0.00  0.00     0.280 HD
ATOM     85  H43 non d ame      -3.376   6.084  67.069  0.00  0.00     0.280 HD
ATOM     86  H44 non d ame      -5.695   7.006  67.078  0.00  0.00     0.129 H 
ATOM     87  H37 non d ame      -6.397   6.765  65.630  0.00  0.00     0.046 H 
BRANCH  83  88
ATOM     88  O6  non d ame      -6.217   5.316  68.046  0.00  0.00    -0.369 OA
ATOM     89  H45 non d ame      -6.584   5.993  68.618  0.00  0.00     0.212 HD
ENDBRANCH  83  88
ENDBRANCH  72  75
ENDBRANCH  47  72
ENDBRANCH  45  47
ENDBRANCH   1  43
BRANCH   1  90
ATOM     90  C16 non d ame      -7.165   9.028  62.315  0.00  0.00    -0.035 C 
ATOM     91  H21 non d ame      -6.966   8.232  61.597  0.00  0.00     0.037 H 
ATOM     92  H22 non d ame      -7.373  10.038  61.964  0.00  0.00     0.037 H 
BRANCH  90  93
ATOM     93  C17 non d ame      -5.899   9.128  63.224  0.00  0.00    -0.059 C 
ATOM     94  H23 non d ame      -6.209   8.916  64.247  0.00  0.00     0.038 H 
BRANCH  93  95
ATOM     95  C18 non d ame      -4.806   8.084  62.831  0.00  0.00    -0.073 C 
ATOM     96  H24 non d ame      -5.162   7.483  61.994  0.00  0.00     0.028 H 
ATOM     97  H25 non d ame      -3.894   8.605  62.540  0.00  0.00     0.028 H 
ATOM     98  H26 non d ame      -4.599   7.436  63.682  0.00  0.00     0.028 H 
ENDBRANCH  93  95
BRANCH  93  99
ATOM     99  C19 non d ame      -5.326  10.548  63.209  0.00  0.00    -0.073 C 
ATOM    100  H27 non d ame      -6.016  11.212  62.688  0.00  0.00     0.028 H 
ATOM    101  H28 non d ame      -5.190  10.896  64.233  0.00  0.00     0.028 H 
ATOM    102  H29 non d ame      -4.366  10.547  62.695  0.00  0.00     0.028 H 
ENDBRANCH  93  99
ENDBRANCH  90  93
ENDBRANCH   1  90
TORSDOF 26
ENDMDL
MODEL 18
REMARK VINA RESULT:      -6.1      2.821      7.108
REMARK  26 active torsions:
REMARK  status: ('A' for Active; 'I' for Inactive)
REMARK    1  A    between atoms: C2_2  and  C3_3 
REMARK    2  A    between atoms: C4_6  and  C5_7 
REMARK       I    between atoms: C5_7  and  N2_9 
REMARK    3  A    between atoms: N2_9  and  C6_10 
REMARK    4  A    between atoms: C6_10  and  C7_11 
REMARK    5  A    between atoms: C6_10  and  C8_13 
REMARK       I    between atoms: C7_11  and  N3_14 
REMARK    6  A    between atoms: N3_14  and  C9_15 
REMARK    7  A    between atoms: C9_15  and  C10_16 
REMARK    8  A    between atoms: C9_15  and  C11_18 
REMARK       I    between atoms: C10_16  and  N4_21 
REMARK    9  A    between atoms: C11_18  and  C12_19 
REMARK   10  A    between atoms: C11_18  and  C13_20 
REMARK   11  A    between atoms: N4_21  and  C14_22 
REMARK   12  A    between atoms: C14_22  and  C15_23 
REMARK   13  A    between atoms: C14_22  and  C16_25 
REMARK       I    between atoms: C15_23  and  N6_40 
REMARK   14  A    between atoms: C16_25  and  C17_26 
REMARK   15  A    between atoms: C17_26  and  C18_27 
REMARK   16  A    between atoms: C17_26  and  C19_28 
REMARK   17  A    between atoms: C20_29  and  C21_30 
REMARK   18  A    between atoms: C20_29  and  C24_33 
REMARK   19  A    between atoms: C20_29  and  N6_40 
REMARK   20  A    between atoms: C21_30  and  C22_31 
REMARK   21  A    between atoms: C22_31  and  C23_32 
REMARK   22  A    between atoms: C23_32  and  O8_43 
REMARK   23  A    between atoms: C24_33  and  C25_34 
REMARK   24  A    between atoms: C28_38  and  O6_39 
REMARK   25  A    between atoms: C29_42  and  O8_43 
REMARK   26  A    between atoms: C29_42  and  C35_49 
ROOT
ATOM      1  C14 non d ame      -9.852  12.038  65.257  0.00  0.00     0.089 C 
ATOM      2  H20 non d ame      -9.868  12.315  64.203  0.00  0.00     0.087 H 
ENDROOT
BRANCH   1   3
ATOM      3  N4  non d ame      -9.075  10.814  65.378  0.00  0.00    -0.346 N 
ATOM      4  C10 non d ame      -9.009   9.837  64.231  0.00  0.00     0.241 C 
ATOM      5  O4  non d ame      -9.593  10.057  63.221  0.00  0.00    -0.271 OA
ATOM      6  H19 non d ame      -8.587  10.644  66.247  0.00  0.00     0.163 HD
BRANCH   4   7
ATOM      7  C9  non d ame      -8.195   8.578  64.371  0.00  0.00     0.092 C 
ATOM      8  H11 non d ame      -7.309   8.788  64.970  0.00  0.00     0.088 H 
BRANCH   7   9
ATOM      9  N3  non d ame      -8.976   7.569  65.092  0.00  0.00    -0.346 N 
ATOM     10  C7  non d ame      -8.886   7.478  66.528  0.00  0.00     0.240 C 
ATOM     11  O3  non d ame      -8.188   8.208  67.120  0.00  0.00    -0.271 OA
ATOM     12  H10 non d ame      -9.580   6.930  64.595  0.00  0.00     0.163 HD
BRANCH  10  13
ATOM     13  C6  non d ame      -9.717   6.399  67.289  0.00  0.00     0.086 C 
ATOM     14  H6  non d ame      -9.417   5.381  67.040  0.00  0.00     0.086 H 
BRANCH  13  15
ATOM     15  N2  non d ame      -9.499   6.558  68.717  0.00  0.00    -0.343 N 
ATOM     16  C5  non d ame      -9.494   5.375  69.582  0.00  0.00     0.273 C 
ATOM     17  O2  non d ame      -9.668   4.302  69.119  0.00  0.00    -0.266 OA
ATOM     18  H5  non d ame      -9.354   7.479  69.105  0.00  0.00     0.163 HD
BRANCH  16  19
ATOM     19  C4  non d ame      -9.263   5.528  71.094  0.00  0.00     0.154 A 
ATOM     20  C1  non d ame     -10.246   5.811  72.094  0.00  0.00    -0.017 A 
ATOM     21  C2  non d ame      -9.528   5.849  73.310  0.00  0.00     0.077 A 
ATOM     22  H1  non d ame     -11.317   5.966  71.959  0.00  0.00     0.091 H 
ATOM     23  O1  non d ame      -8.279   5.612  73.030  0.00  0.00    -0.218 OA
ATOM     24  N1  non d ame      -8.100   5.422  71.742  0.00  0.00    -0.123 NA
BRANCH  21  25
ATOM     25  C3  non d ame     -10.108   6.115  74.692  0.00  0.00    -0.029 C 
ATOM     26  H2  non d ame      -9.659   5.431  75.414  0.00  0.00     0.036 H 
ATOM     27  H3  non d ame      -9.894   7.143  74.984  0.00  0.00     0.036 H 
ATOM     28  H4  non d ame     -11.188   5.961  74.670  0.00  0.00     0.036 H 
ENDBRANCH  21  25
ENDBRANCH  16  19
ENDBRANCH  13  15
BRANCH  13  29
ATOM     29  C8  non d ame     -11.180   6.568  66.969  0.00  0.00    -0.049 C 
ATOM     30  H7  non d ame     -11.658   5.589  66.923  0.00  0.00     0.030 H 
ATOM     31  H8  non d ame     -11.655   7.168  67.746  0.00  0.00     0.030 H 
ATOM     32  H9  non d ame     -11.286   7.069  66.007  0.00  0.00     0.030 H 
ENDBRANCH  13  29
ENDBRANCH  10  13
ENDBRANCH   7   9
BRANCH   7  33
ATOM     33  C11 non d ame      -7.830   8.036  62.958  0.00  0.00    -0.033 C 
ATOM     34  H12 non d ame      -8.577   8.412  62.259  0.00  0.00     0.042 H 
BRANCH  33  35
ATOM     35  C12 non d ame      -6.439   8.567  62.487  0.00  0.00    -0.071 C 
ATOM     36  H13 non d ame      -5.740   7.734  62.411  0.00  0.00     0.028 H 
ATOM     37  H14 non d ame      -6.543   9.044  61.513  0.00  0.00     0.028 H 
ATOM     38  H15 non d ame      -6.065   9.293  63.208  0.00  0.00     0.028 H 
ENDBRANCH  33  35
BRANCH  33  39
ATOM     39  C13 non d ame      -7.880   6.475  62.927  0.00  0.00    -0.071 C 
ATOM     40  H16 non d ame      -6.867   6.078  62.985  0.00  0.00     0.028 H 
ATOM     41  H17 non d ame      -8.463   6.113  63.775  0.00  0.00     0.028 H 
ATOM     42  H18 non d ame      -8.347   6.146  61.999  0.00  0.00     0.028 H 
ENDBRANCH  33  39
ENDBRANCH   7  33
ENDBRANCH   4   7
ENDBRANCH   1   3
BRANCH   1  43
ATOM     43  C15 non d ame      -9.193  13.133  66.143  0.00  0.00     0.240 C 
ATOM     44  O5  non d ame      -8.370  12.828  66.947  0.00  0.00    -0.271 OA
ATOM     45  N6  non d ame      -9.578  14.564  65.985  0.00  0.00    -0.355 N 
ATOM     46  H46 non d ame     -10.272  14.836  65.304  0.00  0.00     0.162 HD
BRANCH  45  47
ATOM     47  C20 non d ame      -8.941  15.594  66.834  0.00  0.00     0.013 C 
ATOM     48  H30 non d ame      -7.880  15.354  66.911  0.00  0.00     0.072 H 
BRANCH  47  49
ATOM     49  C21 non d ame      -9.576  15.574  68.207  0.00  0.00    -0.038 C 
ATOM     50  H31 non d ame      -9.198  14.674  68.693  0.00  0.00     0.036 H 
ATOM     51  H32 non d ame      -9.372  16.554  68.639  0.00  0.00     0.036 H 
BRANCH  49  52
ATOM     52  C22 non d ame     -11.112  15.431  68.155  0.00  0.00     0.018 C 
ATOM     53  H33 non d ame     -11.506  16.446  68.221  0.00  0.00     0.048 H 
ATOM     54  H34 non d ame     -11.322  14.821  67.276  0.00  0.00     0.048 H 
BRANCH  52  55
ATOM     55  C23 non d ame     -11.710  14.661  69.365  0.00  0.00     0.259 C 
ATOM     56  O7  non d ame     -11.720  15.153  70.446  0.00  0.00    -0.265 OA
BRANCH  55  57
ATOM     57  O8  non d ame     -12.234  13.353  69.170  0.00  0.00    -0.317 OA
BRANCH  57  58
ATOM     58  C29 non d ame     -11.238  12.328  69.111  0.00  0.00     0.052 C 
ATOM     59  H47 non d ame     -11.270  11.943  68.093  0.00  0.00     0.082 H 
ATOM     60  H48 non d ame     -10.323  12.784  69.492  0.00  0.00     0.082 H 
BRANCH  58  61
ATOM     61  C35 non d ame     -11.661  11.193  70.080  0.00  0.00    -0.034 A 
ATOM     62  C30 non d ame     -10.984   9.978  70.068  0.00  0.00    -0.075 A 
ATOM     63  C31 non d ame     -11.364   8.958  70.938  0.00  0.00    -0.082 A 
ATOM     64  H49 non d ame     -10.157   9.825  69.376  0.00  0.00     0.084 H 
ATOM     65  C32 non d ame     -12.428   9.156  71.823  0.00  0.00    -0.083 A 
ATOM     66  H50 non d ame     -10.831   8.008  70.927  0.00  0.00     0.083 H 
ATOM     67  C33 non d ame     -13.103  10.369  71.831  0.00  0.00    -0.082 A 
ATOM     68  H51 non d ame     -12.731   8.364  72.507  0.00  0.00     0.083 H 
ATOM     69  C34 non d ame     -12.724  11.392  70.963  0.00  0.00    -0.075 A 
ATOM     70  H52 non d ame     -13.933  10.520  72.521  0.00  0.00     0.083 H 
ATOM     71  H53 non d ame     -13.258  12.343  70.976  0.00  0.00     0.084 H 
ENDBRANCH  58  61
ENDBRANCH  57  58
ENDBRANCH  55  57
ENDBRANCH  52  55
ENDBRANCH  49  52
ENDBRANCH  47  49
BRANCH  47  72
ATOM     72  C24 non d ame      -9.130  16.972  66.205  0.00  0.00    -0.039 C 
ATOM     73  H35 non d ame      -8.421  17.013  65.378  0.00  0.00     0.036 H 
ATOM     74  H36 non d ame     -10.200  17.058  66.010  0.00  0.00     0.036 H 
BRANCH  72  75
ATOM     75  C25 non d ame      -8.740  18.146  67.222  0.00  0.00    -0.001 C 
ATOM     76  C26 non d ame     -10.060  19.072  67.544  0.00  0.00    -0.035 C 
ATOM     77  C27 non d ame      -9.743  20.372  67.340  0.00  0.00     0.085 C 
ATOM     78  H38 non d ame     -10.839  18.881  66.806  0.00  0.00     0.036 H 
ATOM     79  H39 non d ame     -10.296  19.030  68.608  0.00  0.00     0.036 H 
ATOM     80  N5  non d ame      -8.429  20.395  66.597  0.00  0.00    -0.049 N 
ATOM     81  H40 non d ame     -10.525  20.766  66.691  0.00  0.00     0.075 H 
ATOM     82  H41 non d ame      -9.594  20.795  68.334  0.00  0.00     0.075 H 
ATOM     83  C28 non d ame      -7.819  18.905  66.727  0.00  0.00     0.193 C 
ATOM     84  H42 non d ame      -8.652  20.566  65.627  0.00  0.00     0.280 HD
ATOM     85  H43 non d ame      -7.828  21.033  67.096  0.00  0.00     0.280 HD
ATOM     86  H44 non d ame      -7.000  18.701  67.418  0.00  0.00     0.129 H 
ATOM     87  H37 non d ame      -8.170  17.780  68.076  0.00  0.00     0.046 H 
BRANCH  83  88
ATOM     88  O6  non d ame      -7.367  18.445  65.453  0.00  0.00    -0.369 OA
ATOM     89  H45 non d ame      -6.638  17.833  65.574  0.00  0.00     0.212 HD
ENDBRANCH  83  88
ENDBRANCH  72  75
ENDBRANCH  47  72
ENDBRANCH  45  47
ENDBRANCH   1  43
BRANCH   1  90
ATOM     90  C16 non d ame     -11.270  11.775  65.741  0.00  0.00    -0.035 C 
ATOM     91  H21 non d ame     -11.428  10.706  65.603  0.00  0.00     0.037 H 
ATOM     92  H22 non d ame     -11.320  12.209  66.739  0.00  0.00     0.037 H 
BRANCH  90  93
ATOM     93  C17 non d ame     -12.365  12.495  64.891  0.00  0.00    -0.059 C 
ATOM     94  H23 non d ame     -13.267  11.885  64.929  0.00  0.00     0.038 H 
BRANCH  93  95
ATOM     95  C18 non d ame     -12.720  13.906  65.459  0.00  0.00    -0.073 C 
ATOM     96  H24 non d ame     -13.545  14.331  64.887  0.00  0.00     0.028 H 
ATOM     97  H25 non d ame     -13.014  13.813  66.505  0.00  0.00     0.028 H 
ATOM     98  H26 non d ame     -11.851  14.558  65.383  0.00  0.00     0.028 H 
ENDBRANCH  93  95
BRANCH  93  99
ATOM     99  C19 non d ame     -11.942  12.589  63.422  0.00  0.00    -0.073 C 
ATOM    100  H27 non d ame     -10.864  12.734  63.364  0.00  0.00     0.028 H 
ATOM    101  H28 non d ame     -12.214  11.668  62.906  0.00  0.00     0.028 H 
ATOM    102  H29 non d ame     -12.448  13.432  62.953  0.00  0.00     0.028 H 
ENDBRANCH  93  99
ENDBRANCH  90  93
ENDBRANCH   1  90
TORSDOF 26
ENDMDL
MODEL 19
REMARK VINA RESULT:      -6.1      2.962      6.910
REMARK  26 active torsions:
REMARK  status: ('A' for Active; 'I' for Inactive)
REMARK    1  A    between atoms: C2_2  and  C3_3 
REMARK    2  A    between atoms: C4_6  and  C5_7 
REMARK       I    between atoms: C5_7  and  N2_9 
REMARK    3  A    between atoms: N2_9  and  C6_10 
REMARK    4  A    between atoms: C6_10  and  C7_11 
REMARK    5  A    between atoms: C6_10  and  C8_13 
REMARK       I    between atoms: C7_11  and  N3_14 
REMARK    6  A    between atoms: N3_14  and  C9_15 
REMARK    7  A    between atoms: C9_15  and  C10_16 
REMARK    8  A    between atoms: C9_15  and  C11_18 
REMARK       I    between atoms: C10_16  and  N4_21 
REMARK    9  A    between atoms: C11_18  and  C12_19 
REMARK   10  A    between atoms: C11_18  and  C13_20 
REMARK   11  A    between atoms: N4_21  and  C14_22 
REMARK   12  A    between atoms: C14_22  and  C15_23 
REMARK   13  A    between atoms: C14_22  and  C16_25 
REMARK       I    between atoms: C15_23  and  N6_40 
REMARK   14  A    between atoms: C16_25  and  C17_26 
REMARK   15  A    between atoms: C17_26  and  C18_27 
REMARK   16  A    between atoms: C17_26  and  C19_28 
REMARK   17  A    between atoms: C20_29  and  C21_30 
REMARK   18  A    between atoms: C20_29  and  C24_33 
REMARK   19  A    between atoms: C20_29  and  N6_40 
REMARK   20  A    between atoms: C21_30  and  C22_31 
REMARK   21  A    between atoms: C22_31  and  C23_32 
REMARK   22  A    between atoms: C23_32  and  O8_43 
REMARK   23  A    between atoms: C24_33  and  C25_34 
REMARK   24  A    between atoms: C28_38  and  O6_39 
REMARK   25  A    between atoms: C29_42  and  O8_43 
REMARK   26  A    between atoms: C29_42  and  C35_49 
ROOT
ATOM      1  C14 non d ame     -10.906   8.866  69.651  0.00  0.00     0.089 C 
ATOM      2  H20 non d ame     -11.886   8.402  69.760  0.00  0.00     0.087 H 
ENDROOT
BRANCH   1   3
ATOM      3  N4  non d ame     -10.033   7.898  69.003  0.00  0.00    -0.346 N 
ATOM      4  C10 non d ame     -10.390   6.432  69.000  0.00  0.00     0.241 C 
ATOM      5  O4  non d ame     -11.384   6.056  69.529  0.00  0.00    -0.271 OA
ATOM      6  H19 non d ame      -9.191   8.239  68.561  0.00  0.00     0.163 HD
BRANCH   4   7
ATOM      7  C9  non d ame      -9.478   5.445  68.321  0.00  0.00     0.092 C 
ATOM      8  H11 non d ame     -10.077   4.755  67.726  0.00  0.00     0.088 H 
BRANCH   7   9
ATOM      9  N3  non d ame      -8.591   6.156  67.395  0.00  0.00    -0.346 N 
ATOM     10  C7  non d ame      -8.249   5.564  66.126  0.00  0.00     0.240 C 
ATOM     11  O3  non d ame      -8.678   4.514  65.833  0.00  0.00    -0.271 OA
ATOM     12  H10 non d ame      -8.213   7.061  67.634  0.00  0.00     0.163 HD
BRANCH  10  13
ATOM     13  C6  non d ame      -7.302   6.324  65.147  0.00  0.00     0.086 C 
ATOM     14  H6  non d ame      -7.235   5.847  64.168  0.00  0.00     0.086 H 
BRANCH  13  15
ATOM     15  N2  non d ame      -7.829   7.660  64.923  0.00  0.00    -0.343 N 
ATOM     16  C5  non d ame      -8.291   8.038  63.585  0.00  0.00     0.273 C 
ATOM     17  O2  non d ame      -8.231   7.261  62.696  0.00  0.00    -0.266 OA
ATOM     18  H5  non d ame      -7.875   8.318  65.687  0.00  0.00     0.163 HD
BRANCH  16  19
ATOM     19  C4  non d ame      -8.853   9.446  63.334  0.00  0.00     0.154 A 
ATOM     20  C1  non d ame      -9.731  10.190  64.184  0.00  0.00    -0.017 A 
ATOM     21  C2  non d ame      -9.946  11.411  63.506  0.00  0.00     0.077 A 
ATOM     22  H1  non d ame     -10.149   9.891  65.146  0.00  0.00     0.091 H 
ATOM     23  O1  non d ame      -9.265  11.364  62.398  0.00  0.00    -0.218 OA
ATOM     24  N1  non d ame      -8.619  10.226  62.276  0.00  0.00    -0.123 NA
BRANCH  21  25
ATOM     25  C3  non d ame     -10.812  12.568  63.985  0.00  0.00    -0.029 C 
ATOM     26  H2  non d ame     -10.903  13.308  63.189  0.00  0.00     0.036 H 
ATOM     27  H3  non d ame     -11.802  12.195  64.249  0.00  0.00     0.036 H 
ATOM     28  H4  non d ame     -10.353  13.029  64.860  0.00  0.00     0.036 H 
ENDBRANCH  21  25
ENDBRANCH  16  19
ENDBRANCH  13  15
BRANCH  13  29
ATOM     29  C8  non d ame      -5.920   6.408  65.743  0.00  0.00    -0.049 C 
ATOM     30  H7  non d ame      -5.577   5.409  66.009  0.00  0.00     0.030 H 
ATOM     31  H8  non d ame      -5.236   6.845  65.014  0.00  0.00     0.030 H 
ATOM     32  H9  non d ame      -5.947   7.032  66.635  0.00  0.00     0.030 H 
ENDBRANCH  13  29
ENDBRANCH  10  13
ENDBRANCH   7   9
BRANCH   7  33
ATOM     33  C11 non d ame      -8.623   4.706  69.391  0.00  0.00    -0.033 C 
ATOM     34  H12 non d ame      -7.694   4.397  68.912  0.00  0.00     0.042 H 
BRANCH  33  35
ATOM     35  C12 non d ame      -8.249   5.654  70.573  0.00  0.00    -0.071 C 
ATOM     36  H13 non d ame      -8.441   6.687  70.285  0.00  0.00     0.028 H 
ATOM     37  H14 non d ame      -8.852   5.402  71.445  0.00  0.00     0.028 H 
ATOM     38  H15 non d ame      -7.193   5.533  70.814  0.00  0.00     0.028 H 
ENDBRANCH  33  35
BRANCH  33  39
ATOM     39  C13 non d ame      -9.354   3.424  69.902  0.00  0.00    -0.071 C 
ATOM     40  H16 non d ame      -9.320   3.396  70.991  0.00  0.00     0.028 H 
ATOM     41  H17 non d ame     -10.393   3.440  69.571  0.00  0.00     0.028 H 
ATOM     42  H18 non d ame      -8.858   2.540  69.501  0.00  0.00     0.028 H 
ENDBRANCH  33  39
ENDBRANCH   7  33
ENDBRANCH   4   7
ENDBRANCH   1   3
BRANCH   1  43
ATOM     43  C15 non d ame     -10.957  10.150  68.775  0.00  0.00     0.240 C 
ATOM     44  O5  non d ame     -11.098  10.058  67.597  0.00  0.00    -0.271 OA
ATOM     45  N6  non d ame     -10.840  11.496  69.403  0.00  0.00    -0.355 N 
ATOM     46  H46 non d ame     -10.725  11.588  70.403  0.00  0.00     0.162 HD
BRANCH  45  47
ATOM     47  C20 non d ame     -10.893  12.708  68.557  0.00  0.00     0.013 C 
ATOM     48  H30 non d ame     -10.967  12.387  67.518  0.00  0.00     0.072 H 
BRANCH  47  49
ATOM     49  C21 non d ame      -9.629  13.514  68.759  0.00  0.00    -0.038 C 
ATOM     50  H31 non d ame      -9.842  14.193  69.585  0.00  0.00     0.036 H 
ATOM     51  H32 non d ame      -8.825  12.782  68.846  0.00  0.00     0.036 H 
BRANCH  49  52
ATOM     52  C22 non d ame      -9.283  14.399  67.542  0.00  0.00     0.018 C 
ATOM     53  H33 non d ame      -9.591  13.830  66.664  0.00  0.00     0.048 H 
ATOM     54  H34 non d ame      -9.732  15.371  67.747  0.00  0.00     0.048 H 
BRANCH  52  55
ATOM     55  C23 non d ame      -7.760  14.658  67.371  0.00  0.00     0.259 C 
ATOM     56  O7  non d ame      -6.992  13.751  67.364  0.00  0.00    -0.265 OA
BRANCH  55  57
ATOM     57  O8  non d ame      -7.290  15.993  67.235  0.00  0.00    -0.317 OA
BRANCH  57  58
ATOM     58  C29 non d ame      -7.943  16.739  66.204  0.00  0.00     0.052 C 
ATOM     59  H47 non d ame      -7.145  17.158  65.592  0.00  0.00     0.082 H 
ATOM     60  H48 non d ame      -8.668  16.057  65.760  0.00  0.00     0.082 H 
BRANCH  58  61
ATOM     61  C35 non d ame      -8.714  17.908  66.873  0.00  0.00    -0.034 A 
ATOM     62  C30 non d ame      -8.150  18.591  67.945  0.00  0.00    -0.075 A 
ATOM     63  C31 non d ame      -8.842  19.640  68.547  0.00  0.00    -0.082 A 
ATOM     64  H49 non d ame      -7.166  18.304  68.315  0.00  0.00     0.084 H 
ATOM     65  C32 non d ame     -10.106  20.005  68.073  0.00  0.00    -0.083 A 
ATOM     66  H50 non d ame      -8.397  20.174  69.386  0.00  0.00     0.083 H 
ATOM     67  C33 non d ame     -10.667  19.319  67.004  0.00  0.00    -0.082 A 
ATOM     68  H51 non d ame     -10.654  20.825  68.537  0.00  0.00     0.083 H 
ATOM     69  C34 non d ame      -9.976  18.271  66.399  0.00  0.00    -0.075 A 
ATOM     70  H52 non d ame     -11.653  19.604  66.638  0.00  0.00     0.083 H 
ATOM     71  H53 non d ame     -10.423  17.737  65.559  0.00  0.00     0.084 H 
ENDBRANCH  58  61
ENDBRANCH  57  58
ENDBRANCH  55  57
ENDBRANCH  52  55
ENDBRANCH  49  52
ENDBRANCH  47  49
BRANCH  47  72
ATOM     72  C24 non d ame     -12.104  13.554  68.940  0.00  0.00    -0.039 C 
ATOM     73  H35 non d ame     -12.080  14.416  68.274  0.00  0.00     0.036 H 
ATOM     74  H36 non d ame     -12.955  12.871  68.917  0.00  0.00     0.036 H 
BRANCH  72  75
ATOM     75  C25 non d ame     -11.988  14.111  70.438  0.00  0.00    -0.001 C 
ATOM     76  C26 non d ame     -13.017  13.290  71.424  0.00  0.00    -0.035 C 
ATOM     77  C27 non d ame     -13.766  14.183  72.114  0.00  0.00     0.085 C 
ATOM     78  H38 non d ame     -13.752  12.749  70.828  0.00  0.00     0.036 H 
ATOM     79  H39 non d ame     -12.457  12.771  72.201  0.00  0.00     0.036 H 
ATOM     80  N5  non d ame     -13.571  15.527  71.455  0.00  0.00    -0.049 N 
ATOM     81  H40 non d ame     -14.800  13.866  71.976  0.00  0.00     0.075 H 
ATOM     82  H41 non d ame     -13.333  14.213  73.114  0.00  0.00     0.075 H 
ATOM     83  C28 non d ame     -12.283  15.367  70.493  0.00  0.00     0.193 C 
ATOM     84  H42 non d ame     -14.385  15.683  70.877  0.00  0.00     0.280 HD
ATOM     85  H43 non d ame     -13.343  16.178  72.192  0.00  0.00     0.280 HD
ATOM     86  H44 non d ame     -11.319  15.785  70.786  0.00  0.00     0.129 H 
ATOM     87  H37 non d ame     -10.952  14.199  70.766  0.00  0.00     0.046 H 
BRANCH  83  88
ATOM     88  O6  non d ame     -12.561  15.914  69.203  0.00  0.00    -0.369 OA
ATOM     89  H45 non d ame     -13.217  15.371  68.761  0.00  0.00     0.212 HD
ENDBRANCH  83  88
ENDBRANCH  72  75
ENDBRANCH  47  72
ENDBRANCH  45  47
ENDBRANCH   1  43
BRANCH   1  90
ATOM     90  C16 non d ame     -10.341   9.204  71.022  0.00  0.00    -0.035 C 
ATOM     91  H21 non d ame      -9.432   8.610  71.114  0.00  0.00     0.037 H 
ATOM     92  H22 non d ame     -10.285  10.292  71.050  0.00  0.00     0.037 H 
BRANCH  90  93
ATOM     93  C17 non d ame     -11.268   8.778  72.204  0.00  0.00    -0.059 C 
ATOM     94  H23 non d ame     -11.145   9.511  73.001  0.00  0.00     0.038 H 
BRANCH  93  95
ATOM     95  C18 non d ame     -12.775   8.763  71.797  0.00  0.00    -0.073 C 
ATOM     96  H24 non d ame     -12.934   9.451  70.965  0.00  0.00     0.028 H 
ATOM     97  H25 non d ame     -13.060   7.756  71.493  0.00  0.00     0.028 H 
ATOM     98  H26 non d ame     -13.385   9.072  72.646  0.00  0.00     0.028 H 
ENDBRANCH  93  95
BRANCH  93  99
ATOM     99  C19 non d ame     -10.842   7.420  72.769  0.00  0.00    -0.073 C 
ATOM    100  H27 non d ame      -9.766   7.418  72.938  0.00  0.00     0.028 H 
ATOM    101  H28 non d ame     -11.360   7.240  73.711  0.00  0.00     0.028 H 
ATOM    102  H29 non d ame     -11.099   6.635  72.058  0.00  0.00     0.028 H 
ENDBRANCH  93  99
ENDBRANCH  90  93
ENDBRANCH   1  90
TORSDOF 26
ENDMDL
MODEL 20
REMARK VINA RESULT:      -6.0      3.109      7.468
REMARK  26 active torsions:
REMARK  status: ('A' for Active; 'I' for Inactive)
REMARK    1  A    between atoms: C2_2  and  C3_3 
REMARK    2  A    between atoms: C4_6  and  C5_7 
REMARK       I    between atoms: C5_7  and  N2_9 
REMARK    3  A    between atoms: N2_9  and  C6_10 
REMARK    4  A    between atoms: C6_10  and  C7_11 
REMARK    5  A    between atoms: C6_10  and  C8_13 
REMARK       I    between atoms: C7_11  and  N3_14 
REMARK    6  A    between atoms: N3_14  and  C9_15 
REMARK    7  A    between atoms: C9_15  and  C10_16 
REMARK    8  A    between atoms: C9_15  and  C11_18 
REMARK       I    between atoms: C10_16  and  N4_21 
REMARK    9  A    between atoms: C11_18  and  C12_19 
REMARK   10  A    between atoms: C11_18  and  C13_20 
REMARK   11  A    between atoms: N4_21  and  C14_22 
REMARK   12  A    between atoms: C14_22  and  C15_23 
REMARK   13  A    between atoms: C14_22  and  C16_25 
REMARK       I    between atoms: C15_23  and  N6_40 
REMARK   14  A    between atoms: C16_25  and  C17_26 
REMARK   15  A    between atoms: C17_26  and  C18_27 
REMARK   16  A    between atoms: C17_26  and  C19_28 
REMARK   17  A    between atoms: C20_29  and  C21_30 
REMARK   18  A    between atoms: C20_29  and  C24_33 
REMARK   19  A    between atoms: C20_29  and  N6_40 
REMARK   20  A    between atoms: C21_30  and  C22_31 
REMARK   21  A    between atoms: C22_31  and  C23_32 
REMARK   22  A    between atoms: C23_32  and  O8_43 
REMARK   23  A    between atoms: C24_33  and  C25_34 
REMARK   24  A    between atoms: C28_38  and  O6_39 
REMARK   25  A    between atoms: C29_42  and  O8_43 
REMARK   26  A    between atoms: C29_42  and  C35_49 
ROOT
ATOM      1  C14 non d ame     -10.032  10.546  68.786  0.00  0.00     0.089 C 
ATOM      2  H20 non d ame      -9.376  10.614  69.654  0.00  0.00     0.087 H 
ENDROOT
BRANCH   1   3
ATOM      3  N4  non d ame     -10.488   9.168  68.689  0.00  0.00    -0.346 N 
ATOM      4  C10 non d ame     -10.234   8.200  69.817  0.00  0.00     0.241 C 
ATOM      5  O4  non d ame      -9.658   8.553  70.793  0.00  0.00    -0.271 OA
ATOM      6  H19 non d ame     -10.973   8.886  67.848  0.00  0.00     0.163 HD
BRANCH   4   7
ATOM      7  C9  non d ame     -10.718   6.778  69.702  0.00  0.00     0.092 C 
ATOM      8  H11 non d ame     -11.739   6.776  69.321  0.00  0.00     0.088 H 
BRANCH   7   9
ATOM      9  N3  non d ame      -9.892   6.058  68.727  0.00  0.00    -0.346 N 
ATOM     10  C7  non d ame     -10.270   6.039  67.336  0.00  0.00     0.240 C 
ATOM     11  O3  non d ame     -11.237   6.597  66.983  0.00  0.00    -0.271 OA
ATOM     12  H10 non d ame      -9.057   5.571  69.017  0.00  0.00     0.163 HD
BRANCH  10  13
ATOM     13  C6  non d ame      -9.390   5.269  66.304  0.00  0.00     0.086 C 
ATOM     14  H6  non d ame      -9.974   4.822  65.500  0.00  0.00     0.086 H 
BRANCH  13  15
ATOM     15  N2  non d ame      -8.470   6.204  65.679  0.00  0.00    -0.343 N 
ATOM     16  C5  non d ame      -8.233   6.127  64.235  0.00  0.00     0.273 C 
ATOM     17  O2  non d ame      -8.786   5.308  63.587  0.00  0.00    -0.266 OA
ATOM     18  H5  non d ame      -7.999   6.899  66.240  0.00  0.00     0.163 HD
BRANCH  16  19
ATOM     19  C4  non d ame      -7.265   7.111  63.560  0.00  0.00     0.154 A 
ATOM     20  C1  non d ame      -5.868   7.270  63.828  0.00  0.00    -0.017 A 
ATOM     21  C2  non d ame      -5.444   8.292  62.950  0.00  0.00     0.077 A 
ATOM     22  H1  non d ame      -5.256   6.728  64.550  0.00  0.00     0.091 H 
ATOM     23  O1  non d ame      -6.482   8.667  62.261  0.00  0.00    -0.218 OA
ATOM     24  N1  non d ame      -7.557   7.992  62.600  0.00  0.00    -0.123 NA
BRANCH  21  25
ATOM     25  C3  non d ame      -4.032   8.849  62.830  0.00  0.00    -0.029 C 
ATOM     26  H2  non d ame      -3.916   9.344  61.865  0.00  0.00     0.036 H 
ATOM     27  H3  non d ame      -3.856   9.568  63.630  0.00  0.00     0.036 H 
ATOM     28  H4  non d ame      -3.311   8.035  62.909  0.00  0.00     0.036 H 
ENDBRANCH  21  25
ENDBRANCH  16  19
ENDBRANCH  13  15
BRANCH  13  29
ATOM     29  C8  non d ame      -8.619   4.181  67.009  0.00  0.00    -0.049 C 
ATOM     30  H7  non d ame      -7.836   3.805  66.351  0.00  0.00     0.030 H 
ATOM     31  H8  non d ame      -8.168   4.586  67.917  0.00  0.00     0.030 H 
ATOM     32  H9  non d ame      -9.295   3.368  67.270  0.00  0.00     0.030 H 
ENDBRANCH  13  29
ENDBRANCH  10  13
ENDBRANCH   7   9
BRANCH   7  33
ATOM     33  C11 non d ame     -10.608   6.078  71.088  0.00  0.00    -0.033 C 
ATOM     34  H12 non d ame      -9.862   6.619  71.671  0.00  0.00     0.042 H 
BRANCH  33  35
ATOM     35  C12 non d ame     -11.957   6.152  71.870  0.00  0.00    -0.071 C 
ATOM     36  H13 non d ame     -12.249   7.195  71.993  0.00  0.00     0.028 H 
ATOM     37  H14 non d ame     -12.729   5.622  71.313  0.00  0.00     0.028 H 
ATOM     38  H15 non d ame     -11.833   5.690  72.849  0.00  0.00     0.028 H 
ENDBRANCH  33  35
BRANCH  33  39
ATOM     39  C13 non d ame     -10.124   4.601  70.932  0.00  0.00    -0.071 C 
ATOM     40  H16 non d ame      -9.466   4.524  70.067  0.00  0.00     0.028 H 
ATOM     41  H17 non d ame      -9.582   4.299  71.829  0.00  0.00     0.028 H 
ATOM     42  H18 non d ame     -10.986   3.950  70.791  0.00  0.00     0.028 H 
ENDBRANCH  33  39
ENDBRANCH   7  33
ENDBRANCH   4   7
ENDBRANCH   1   3
BRANCH   1  43
ATOM     43  C15 non d ame     -11.276  11.471  68.916  0.00  0.00     0.240 C 
ATOM     44  O5  non d ame     -12.360  11.039  68.688  0.00  0.00    -0.271 OA
ATOM     45  N6  non d ame     -11.118  12.893  69.333  0.00  0.00    -0.355 N 
ATOM     46  H46 non d ame     -10.202  13.270  69.533  0.00  0.00     0.162 HD
BRANCH  45  47
ATOM     47  C20 non d ame     -12.310  13.759  69.452  0.00  0.00     0.013 C 
ATOM     48  H30 non d ame     -13.093  13.341  68.820  0.00  0.00     0.072 H 
BRANCH  47  49
ATOM     49  C21 non d ame     -11.963  15.156  68.988  0.00  0.00    -0.038 C 
ATOM     50  H31 non d ame     -12.698  15.403  68.221  0.00  0.00     0.036 H 
ATOM     51  H32 non d ame     -11.897  15.759  69.895  0.00  0.00     0.036 H 
BRANCH  49  52
ATOM     52  C22 non d ame     -10.579  15.235  68.310  0.00  0.00     0.018 C 
ATOM     53  H33 non d ame      -9.853  14.998  69.089  0.00  0.00     0.048 H 
ATOM     54  H34 non d ame     -10.649  14.608  67.421  0.00  0.00     0.048 H 
BRANCH  52  55
ATOM     55  C23 non d ame     -10.211  16.658  67.803  0.00  0.00     0.259 C 
ATOM     56  O7  non d ame     -10.483  16.991  66.696  0.00  0.00    -0.265 OA
BRANCH  55  57
ATOM     57  O8  non d ame      -9.533  17.555  68.673  0.00  0.00    -0.317 OA
BRANCH  57  58
ATOM     58  C29 non d ame      -9.713  18.935  68.345  0.00  0.00     0.052 C 
ATOM     59  H47 non d ame     -10.198  18.946  67.369  0.00  0.00     0.082 H 
ATOM     60  H48 non d ame     -10.213  19.380  69.206  0.00  0.00     0.082 H 
BRANCH  58  61
ATOM     61  C35 non d ame      -8.310  19.581  68.204  0.00  0.00    -0.034 A 
ATOM     62  C30 non d ame      -7.357  19.402  69.201  0.00  0.00    -0.075 A 
ATOM     63  C31 non d ame      -6.096  19.982  69.075  0.00  0.00    -0.082 A 
ATOM     64  H49 non d ame      -7.598  18.807  70.081  0.00  0.00     0.084 H 
ATOM     65  C32 non d ame      -5.790  20.747  67.946  0.00  0.00    -0.083 A 
ATOM     66  H50 non d ame      -5.351  19.839  69.857  0.00  0.00     0.083 H 
ATOM     67  C33 non d ame      -6.745  20.926  66.954  0.00  0.00    -0.082 A 
ATOM     68  H51 non d ame      -4.806  21.204  67.838  0.00  0.00     0.083 H 
ATOM     69  C34 non d ame      -8.006  20.345  67.075  0.00  0.00    -0.075 A 
ATOM     70  H52 non d ame      -6.503  21.525  66.075  0.00  0.00     0.083 H 
ATOM     71  H53 non d ame      -8.750  20.490  66.291  0.00  0.00     0.084 H 
ENDBRANCH  58  61
ENDBRANCH  57  58
ENDBRANCH  55  57
ENDBRANCH  52  55
ENDBRANCH  49  52
ENDBRANCH  47  49
BRANCH  47  72
ATOM     72  C24 non d ame     -12.771  13.805  70.907  0.00  0.00    -0.039 C 
ATOM     73  H35 non d ame     -13.773  13.376  70.908  0.00  0.00     0.036 H 
ATOM     74  H36 non d ame     -11.975  13.328  71.480  0.00  0.00     0.036 H 
BRANCH  72  75
ATOM     75  C25 non d ame     -12.900  15.310  71.441  0.00  0.00    -0.001 C 
ATOM     76  C26 non d ame     -11.765  15.595  72.596  0.00  0.00    -0.035 C 
ATOM     77  C27 non d ame     -12.374  16.115  73.688  0.00  0.00     0.085 C 
ATOM     78  H38 non d ame     -11.356  14.652  72.958  0.00  0.00     0.036 H 
ATOM     79  H39 non d ame     -11.095  16.392  72.273  0.00  0.00     0.036 H 
ATOM     80  N5  non d ame     -13.858  15.908  73.507  0.00  0.00    -0.049 N 
ATOM     81  H40 non d ame     -12.031  15.512  74.529  0.00  0.00     0.075 H 
ATOM     82  H41 non d ame     -12.160  17.183  73.659  0.00  0.00     0.075 H 
ATOM     83  C28 non d ame     -14.067  15.526  71.951  0.00  0.00     0.193 C 
ATOM     84  H42 non d ame     -14.107  15.108  74.070  0.00  0.00     0.280 HD
ATOM     85  H43 non d ame     -14.296  16.802  73.679  0.00  0.00     0.280 HD
ATOM     86  H44 non d ame     -14.459  16.262  71.248  0.00  0.00     0.129 H 
ATOM     87  H37 non d ame     -12.972  16.032  70.627  0.00  0.00     0.046 H 
BRANCH  83  88
ATOM     88  O6  non d ame     -14.926  14.391  71.835  0.00  0.00    -0.369 OA
ATOM     89  H45 non d ame     -15.685  14.618  71.293  0.00  0.00     0.212 HD
ENDBRANCH  83  88
ENDBRANCH  72  75
ENDBRANCH  47  72
ENDBRANCH  45  47
ENDBRANCH   1  43
BRANCH   1  90
ATOM     90  C16 non d ame      -9.258  10.904  67.527  0.00  0.00    -0.035 C 
ATOM     91  H21 non d ame      -9.925  11.546  66.951  0.00  0.00     0.037 H 
ATOM     92  H22 non d ame      -8.300  11.288  67.876  0.00  0.00     0.037 H 
BRANCH  90  93
ATOM     93  C17 non d ame      -8.937   9.675  66.619  0.00  0.00    -0.059 C 
ATOM     94  H23 non d ame      -9.239   8.777  67.159  0.00  0.00     0.038 H 
BRANCH  93  95
ATOM     95  C18 non d ame      -9.729   9.712  65.274  0.00  0.00    -0.073 C 
ATOM     96  H24 non d ame      -9.104   9.315  64.473  0.00  0.00     0.028 H 
ATOM     97  H25 non d ame     -10.629   9.103  65.365  0.00  0.00     0.028 H 
ATOM     98  H26 non d ame     -10.008  10.740  65.043  0.00  0.00     0.028 H 
ENDBRANCH  93  95
BRANCH  93  99
ATOM     99  C19 non d ame      -7.431   9.564  66.362  0.00  0.00    -0.073 C 
ATOM    100  H27 non d ame      -7.152   8.513  66.288  0.00  0.00     0.028 H 
ATOM    101  H28 non d ame      -7.183  10.073  65.430  0.00  0.00     0.028 H 
ATOM    102  H29 non d ame      -6.888  10.027  67.185  0.00  0.00     0.028 H 
ENDBRANCH  93  99
ENDBRANCH  90  93
ENDBRANCH   1  90
TORSDOF 26
ENDMDL
