REMARK  26 active torsions:
REMARK  status: ('A' for Active; 'I' for Inactive)
REMARK    1  A    between atoms: C2_2  and  C3_3 
REMARK    2  A    between atoms: C4_6  and  C5_7 
REMARK       I    between atoms: C5_7  and  N2_9 
REMARK    3  A    between atoms: N2_9  and  C6_10 
REMARK    4  A    between atoms: C6_10  and  C7_11 
REMARK    5  A    between atoms: C6_10  and  C8_13 
REMARK       I    between atoms: C7_11  and  N3_14 
REMARK    6  A    between atoms: N3_14  and  C9_15 
REMARK    7  A    between atoms: C9_15  and  C10_16 
REMARK    8  A    between atoms: C9_15  and  C11_18 
REMARK       I    between atoms: C10_16  and  N4_21 
REMARK    9  A    between atoms: C11_18  and  C12_19 
REMARK   10  A    between atoms: C11_18  and  C13_20 
REMARK   11  A    between atoms: N4_21  and  C14_22 
REMARK   12  A    between atoms: C14_22  and  C15_23 
REMARK   13  A    between atoms: C14_22  and  C16_25 
REMARK       I    between atoms: C15_23  and  N6_40 
REMARK   14  A    between atoms: C16_25  and  C17_26 
REMARK   15  A    between atoms: C17_26  and  C18_27 
REMARK   16  A    between atoms: C17_26  and  C19_28 
REMARK   17  A    between atoms: C20_29  and  C21_30 
REMARK   18  A    between atoms: C20_29  and  C24_33 
REMARK   19  A    between atoms: C20_29  and  N6_40 
REMARK   20  A    between atoms: C21_30  and  C22_31 
REMARK   21  A    between atoms: C22_31  and  C23_32 
REMARK   22  A    between atoms: C23_32  and  O8_43 
REMARK   23  A    between atoms: C24_33  and  C25_34 
REMARK   24  A    between atoms: C28_38  and  O6_39 
REMARK   25  A    between atoms: C29_42  and  O8_43 
REMARK   26  A    between atoms: C29_42  and  C35_49 
ROOT
ATOM      1  C14 non d ame      -5.635  16.622  71.704  0.00  0.00     0.089 C 
ATOM      2  H20 non d ame      -5.193  17.612  71.593  0.00  0.00     0.087 H 
ENDROOT
BRANCH   1   3
ATOM      3  N4  non d ame      -4.657  15.650  71.239  0.00  0.00    -0.346 N 
ATOM      4  C10 non d ame      -3.396  16.108  70.550  0.00  0.00     0.241 C 
ATOM      5  O4  non d ame      -3.192  17.265  70.379  0.00  0.00    -0.271 OA
ATOM      6  H19 non d ame      -4.851  14.670  71.392  0.00  0.00     0.163 HD
BRANCH   4   7
ATOM      7  C9  non d ame      -2.392  15.089  70.080  0.00  0.00     0.092 C 
ATOM      8  H11 non d ame      -2.686  14.103  70.440  0.00  0.00     0.088 H 
BRANCH   7   9
ATOM      9  N3  non d ame      -2.400  15.034  68.615  0.00  0.00    -0.346 N 
ATOM     10  C7  non d ame      -3.016  13.920  67.938  0.00  0.00     0.240 C 
ATOM     11  O3  non d ame      -3.509  13.057  68.557  0.00  0.00    -0.271 OA
ATOM     12  H10 non d ame      -1.977  15.770  68.068  0.00  0.00     0.163 HD
BRANCH  10  13
ATOM     13  C6  non d ame      -3.018  13.866  66.379  0.00  0.00     0.086 C 
ATOM     14  H6  non d ame      -3.366  12.909  65.990  0.00  0.00     0.086 H 
BRANCH  13  15
ATOM     15  N2  non d ame      -3.932  14.877  65.874  0.00  0.00    -0.343 N 
ATOM     16  C5  non d ame      -4.892  14.522  64.826  0.00  0.00     0.273 C 
ATOM     17  O2  non d ame      -4.919  13.422  64.395  0.00  0.00    -0.266 OA
ATOM     18  H5  non d ame      -3.901  15.815  66.246  0.00  0.00     0.163 HD
BRANCH  16  19
ATOM     19  C4  non d ame      -5.866  15.580  64.284  0.00  0.00     0.154 A 
ATOM     20  C1  non d ame      -5.773  16.285  63.042  0.00  0.00    -0.017 A 
ATOM     21  C2  non d ame      -6.902  17.134  63.020  0.00  0.00     0.077 A 
ATOM     22  H1  non d ame      -5.004  16.195  62.274  0.00  0.00     0.091 H 
ATOM     23  O1  non d ame      -7.561  16.931  64.124  0.00  0.00    -0.218 OA
ATOM     24  N1  non d ame      -6.975  16.029  64.878  0.00  0.00    -0.123 NA
BRANCH  21  25
ATOM     25  C3  non d ame      -7.279  18.104  61.909  0.00  0.00    -0.029 C 
ATOM     26  H2  non d ame      -7.118  19.128  62.249  0.00  0.00     0.036 H 
ATOM     27  H3  non d ame      -6.660  17.911  61.033  0.00  0.00     0.036 H 
ATOM     28  H4  non d ame      -8.329  17.969  61.648  0.00  0.00     0.036 H 
ENDBRANCH  21  25
ENDBRANCH  16  19
ENDBRANCH  13  15
BRANCH  13  29
ATOM     29  C8  non d ame      -1.626  14.125  65.862  0.00  0.00    -0.049 C 
ATOM     30  H7  non d ame      -1.486  15.196  65.714  0.00  0.00     0.030 H 
ATOM     31  H8  non d ame      -0.896  13.760  66.586  0.00  0.00     0.030 H 
ATOM     32  H9  non d ame      -1.488  13.607  64.914  0.00  0.00     0.030 H 
ENDBRANCH  13  29
ENDBRANCH  10  13
ENDBRANCH   7   9
BRANCH   7  33
ATOM     33  C11 non d ame      -0.972  15.493  70.574  0.00  0.00    -0.033 C 
ATOM     34  H12 non d ame      -1.006  16.549  70.843  0.00  0.00     0.042 H 
BRANCH  33  35
ATOM     35  C12 non d ame      -0.567  14.696  71.853  0.00  0.00    -0.071 C 
ATOM     36  H13 non d ame       0.254  15.208  72.355  0.00  0.00     0.028 H 
ATOM     37  H14 non d ame      -1.421  14.632  72.527  0.00  0.00     0.028 H 
ATOM     38  H15 non d ame      -0.252  13.692  71.570  0.00  0.00     0.028 H 
ENDBRANCH  33  35
BRANCH  33  39
ATOM     39  C13 non d ame       0.086  15.317  69.438  0.00  0.00    -0.071 C 
ATOM     40  H16 non d ame       0.800  14.545  69.723  0.00  0.00     0.028 H 
ATOM     41  H17 non d ame      -0.416  15.026  68.515  0.00  0.00     0.028 H 
ATOM     42  H18 non d ame       0.612  16.259  69.284  0.00  0.00     0.028 H 
ENDBRANCH  33  39
ENDBRANCH   7  33
ENDBRANCH   4   7
ENDBRANCH   1   3
BRANCH   1  43
ATOM     43  C15 non d ame      -5.989  16.299  73.184  0.00  0.00     0.240 C 
ATOM     44  O5  non d ame      -5.218  15.694  73.858  0.00  0.00    -0.271 OA
ATOM     45  N6  non d ame      -7.285  16.751  73.765  0.00  0.00    -0.355 N 
ATOM     46  H46 non d ame      -7.946  17.269  73.204  0.00  0.00     0.162 HD
BRANCH  45  47
ATOM     47  C20 non d ame      -7.606  16.437  75.174  0.00  0.00     0.013 C 
ATOM     48  H30 non d ame      -6.713  16.015  75.635  0.00  0.00     0.072 H 
BRANCH  47  49
ATOM     49  C21 non d ame      -8.734  15.431  75.218  0.00  0.00    -0.038 C 
ATOM     50  H31 non d ame      -9.147  15.495  76.225  0.00  0.00     0.036 H 
ATOM     51  H32 non d ame      -9.362  15.656  74.355  0.00  0.00     0.036 H 
BRANCH  49  52
ATOM     52  C22 non d ame      -8.248  13.977  75.036  0.00  0.00     0.018 C 
ATOM     53  H33 non d ame      -9.145  13.387  74.844  0.00  0.00     0.048 H 
ATOM     54  H34 non d ame      -7.455  14.022  74.289  0.00  0.00     0.048 H 
BRANCH  52  55
ATOM     55  C23 non d ame      -7.602  13.369  76.312  0.00  0.00     0.259 C 
ATOM     56  O7  non d ame      -6.421  13.351  76.439  0.00  0.00    -0.265 OA
BRANCH  55  57
ATOM     57  O8  non d ame      -8.438  12.820  77.323  0.00  0.00    -0.317 OA
BRANCH  57  58
ATOM     58  C29 non d ame      -8.204  11.433  77.584  0.00  0.00     0.052 C 
ATOM     59  H47 non d ame      -9.161  10.937  77.426  0.00  0.00     0.082 H 
ATOM     60  H48 non d ame      -7.342  11.160  76.975  0.00  0.00     0.082 H 
BRANCH  58  61
ATOM     61  C35 non d ame      -7.815  11.286  79.079  0.00  0.00    -0.034 A 
ATOM     62  C30 non d ame      -8.800  11.071  80.037  0.00  0.00    -0.075 A 
ATOM     63  C31 non d ame      -8.451  10.939  81.380  0.00  0.00    -0.082 A 
ATOM     64  H49 non d ame      -9.845  11.006  79.736  0.00  0.00     0.084 H 
ATOM     65  C32 non d ame      -7.110  11.025  81.764  0.00  0.00    -0.083 A 
ATOM     66  H50 non d ame      -9.225  10.769  82.128  0.00  0.00     0.083 H 
ATOM     67  C33 non d ame      -6.130  11.243  80.805  0.00  0.00    -0.082 A 
ATOM     68  H51 non d ame      -6.828  10.923  82.812  0.00  0.00     0.083 H 
ATOM     69  C34 non d ame      -6.475  11.373  79.461  0.00  0.00    -0.075 A 
ATOM     70  H52 non d ame      -5.085  11.312  81.108  0.00  0.00     0.083 H 
ATOM     71  H53 non d ame      -5.699  11.543  78.713  0.00  0.00     0.084 H 
ENDBRANCH  58  61
ENDBRANCH  57  58
ENDBRANCH  55  57
ENDBRANCH  52  55
ENDBRANCH  49  52
ENDBRANCH  47  49
BRANCH  47  72
ATOM     72  C24 non d ame      -8.029  17.710  75.903  0.00  0.00    -0.039 C 
ATOM     73  H35 non d ame      -7.101  18.185  76.221  0.00  0.00     0.036 H 
ATOM     74  H36 non d ame      -8.699  18.229  75.217  0.00  0.00     0.036 H 
BRANCH  72  75
ATOM     75  C25 non d ame      -8.870  17.383  77.227  0.00  0.00    -0.001 C 
ATOM     76  C26 non d ame     -10.462  17.708  76.975  0.00  0.00    -0.035 C 
ATOM     77  C27 non d ame     -10.910  18.501  77.977  0.00  0.00     0.085 C 
ATOM     78  H38 non d ame     -10.580  18.329  76.087  0.00  0.00     0.036 H 
ATOM     79  H39 non d ame     -11.052  16.798  77.086  0.00  0.00     0.036 H 
ATOM     80  N5  non d ame      -9.695  19.013  78.712  0.00  0.00    -0.049 N 
ATOM     81  H40 non d ame     -11.408  19.338  77.487  0.00  0.00     0.075 H 
ATOM     82  H41 non d ame     -11.473  17.843  78.639  0.00  0.00     0.075 H 
ATOM     83  C28 non d ame      -8.461  18.091  78.227  0.00  0.00     0.193 C 
ATOM     84  H42 non d ame      -9.539  19.956  78.385  0.00  0.00     0.280 HD
ATOM     85  H43 non d ame      -9.859  18.840  79.693  0.00  0.00     0.280 HD
ATOM     86  H44 non d ame      -8.066  17.309  78.876  0.00  0.00     0.129 H 
ATOM     87  H37 non d ame      -8.623  16.406  77.642  0.00  0.00     0.046 H 
BRANCH  83  88
ATOM     88  O6  non d ame      -7.340  18.908  77.887  0.00  0.00    -0.369 OA
ATOM     89  H45 non d ame      -7.462  19.268  77.006  0.00  0.00     0.212 HD
ENDBRANCH  83  88
ENDBRANCH  72  75
ENDBRANCH  47  72
ENDBRANCH  45  47
ENDBRANCH   1  43
BRANCH   1  90
ATOM     90  C16 non d ame      -6.886  16.518  70.845  0.00  0.00    -0.035 C 
ATOM     91  H21 non d ame      -7.300  15.532  71.057  0.00  0.00     0.037 H 
ATOM     92  H22 non d ame      -7.466  17.412  71.071  0.00  0.00     0.037 H 
BRANCH  90  93
ATOM     93  C17 non d ame      -6.597  16.554  69.311  0.00  0.00    -0.059 C 
ATOM     94  H23 non d ame      -5.521  16.668  69.180  0.00  0.00     0.038 H 
BRANCH  93  95
ATOM     95  C18 non d ame      -7.027  15.233  68.598  0.00  0.00    -0.073 C 
ATOM     96  H24 non d ame      -7.004  14.410  69.313  0.00  0.00     0.028 H 
ATOM     97  H25 non d ame      -8.038  15.344  68.206  0.00  0.00     0.028 H 
ATOM     98  H26 non d ame      -6.341  15.022  67.778  0.00  0.00     0.028 H 
ENDBRANCH  93  95
BRANCH  93  99
ATOM     99  C19 non d ame      -7.264  17.768  68.658  0.00  0.00    -0.073 C 
ATOM    100  H27 non d ame      -8.289  17.856  69.018  0.00  0.00     0.028 H 
ATOM    101  H28 non d ame      -6.709  18.670  68.916  0.00  0.00     0.028 H 
ATOM    102  H29 non d ame      -7.269  17.641  67.576  0.00  0.00     0.028 H 
ENDBRANCH  93  99
ENDBRANCH  90  93
ENDBRANCH   1  90
TORSDOF 26
