MODEL 1
REMARK VINA RESULT:      -7.2      0.000      0.000
REMARK  26 active torsions:
REMARK  status: ('A' for Active; 'I' for Inactive)
REMARK    1  A    between atoms: C2_2  and  C3_3 
REMARK    2  A    between atoms: C4_6  and  C5_7 
REMARK       I    between atoms: C5_7  and  N2_9 
REMARK    3  A    between atoms: N2_9  and  C6_10 
REMARK    4  A    between atoms: C6_10  and  C7_11 
REMARK    5  A    between atoms: C6_10  and  C8_13 
REMARK       I    between atoms: C7_11  and  N3_14 
REMARK    6  A    between atoms: N3_14  and  C9_15 
REMARK    7  A    between atoms: C9_15  and  C10_16 
REMARK    8  A    between atoms: C9_15  and  C11_18 
REMARK       I    between atoms: C10_16  and  N4_21 
REMARK    9  A    between atoms: C11_18  and  C12_19 
REMARK   10  A    between atoms: C11_18  and  C13_20 
REMARK   11  A    between atoms: N4_21  and  C14_22 
REMARK   12  A    between atoms: C14_22  and  C15_23 
REMARK   13  A    between atoms: C14_22  and  C16_25 
REMARK       I    between atoms: C15_23  and  N6_40 
REMARK   14  A    between atoms: C16_25  and  C17_26 
REMARK   15  A    between atoms: C17_26  and  C18_27 
REMARK   16  A    between atoms: C17_26  and  C19_28 
REMARK   17  A    between atoms: C20_29  and  C21_30 
REMARK   18  A    between atoms: C20_29  and  C24_33 
REMARK   19  A    between atoms: C20_29  and  N6_40 
REMARK   20  A    between atoms: C21_30  and  C22_31 
REMARK   21  A    between atoms: C22_31  and  C23_32 
REMARK   22  A    between atoms: C23_32  and  O8_43 
REMARK   23  A    between atoms: C24_33  and  C25_34 
REMARK   24  A    between atoms: C28_38  and  O6_39 
REMARK   25  A    between atoms: C29_42  and  O8_43 
REMARK   26  A    between atoms: C29_42  and  C35_49 
ROOT
ATOM      1  C14 non d ame      -9.035   6.969  66.491  0.00  0.00     0.089 C 
ATOM      2  H20 non d ame      -9.396   6.499  65.576  0.00  0.00     0.087 H 
ENDROOT
BRANCH   1   3
ATOM      3  N4  non d ame      -8.689   8.346  66.170  0.00  0.00    -0.346 N 
ATOM      4  C10 non d ame      -8.235   8.712  64.779  0.00  0.00     0.241 C 
ATOM      5  O4  non d ame      -8.153   7.881  63.936  0.00  0.00    -0.271 OA
ATOM      6  H19 non d ame      -8.763   9.038  66.902  0.00  0.00     0.163 HD
BRANCH   4   7
ATOM      7  C9  non d ame      -7.885  10.142  64.462  0.00  0.00     0.092 C 
ATOM      8  H11 non d ame      -7.731  10.245  63.388  0.00  0.00     0.088 H 
BRANCH   7   9
ATOM      9  N3  non d ame      -9.010  11.011  64.821  0.00  0.00    -0.346 N 
ATOM     10  C7  non d ame     -10.083  11.229  63.883  0.00  0.00     0.240 C 
ATOM     11  O3  non d ame     -10.056  10.713  62.832  0.00  0.00    -0.271 OA
ATOM     12  H10 non d ame      -9.046  11.464  65.723  0.00  0.00     0.163 HD
BRANCH  10  13
ATOM     13  C6  non d ame     -11.275  12.158  64.270  0.00  0.00     0.086 C 
ATOM     14  H6  non d ame     -11.742  11.874  65.213  0.00  0.00     0.086 H 
BRANCH  13  15
ATOM     15  N2  non d ame     -10.779  13.513  64.442  0.00  0.00    -0.343 N 
ATOM     16  C5  non d ame     -11.524  14.452  65.284  0.00  0.00     0.273 C 
ATOM     17  O2  non d ame     -12.522  14.107  65.816  0.00  0.00    -0.266 OA
ATOM     18  H5  non d ame      -9.927  13.800  63.983  0.00  0.00     0.163 HD
BRANCH  16  19
ATOM     19  C4  non d ame     -11.011  15.887  65.477  0.00  0.00     0.154 A 
ATOM     20  C1  non d ame     -10.246  16.391  66.577  0.00  0.00    -0.017 A 
ATOM     21  C2  non d ame     -10.032  17.755  66.277  0.00  0.00     0.077 A 
ATOM     22  H1  non d ame      -9.899  15.850  67.458  0.00  0.00     0.091 H 
ATOM     23  O1  non d ame     -10.610  17.996  65.136  0.00  0.00    -0.218 OA
ATOM     24  N1  non d ame     -11.188  16.921  64.650  0.00  0.00    -0.123 NA
BRANCH  21  25
ATOM     25  C3  non d ame      -9.266  18.756  67.130  0.00  0.00    -0.029 C 
ATOM     26  H2  non d ame      -9.574  18.658  68.172  0.00  0.00     0.036 H 
ATOM     27  H3  non d ame      -8.197  18.561  67.047  0.00  0.00     0.036 H 
ATOM     28  H4  non d ame      -9.478  19.768  66.783  0.00  0.00     0.036 H 
ENDBRANCH  21  25
ENDBRANCH  16  19
ENDBRANCH  13  15
BRANCH  13  29
ATOM     29  C8  non d ame     -12.316  12.124  63.181  0.00  0.00    -0.049 C 
ATOM     30  H7  non d ame     -12.710  13.129  63.023  0.00  0.00     0.030 H 
ATOM     31  H8  non d ame     -11.864  11.762  62.257  0.00  0.00     0.030 H 
ATOM     32  H9  non d ame     -13.127  11.459  63.474  0.00  0.00     0.030 H 
ENDBRANCH  13  29
ENDBRANCH  10  13
ENDBRANCH   7   9
BRANCH   7  33
ATOM     33  C11 non d ame      -6.627  10.562  65.277  0.00  0.00    -0.033 C 
ATOM     34  H12 non d ame      -6.138  11.370  64.733  0.00  0.00     0.042 H 
BRANCH  33  35
ATOM     35  C12 non d ame      -7.019  11.115  66.683  0.00  0.00    -0.071 C 
ATOM     36  H13 non d ame      -6.151  11.078  67.342  0.00  0.00     0.028 H 
ATOM     37  H14 non d ame      -7.358  12.146  66.587  0.00  0.00     0.028 H 
ATOM     38  H15 non d ame      -7.820  10.506  67.101  0.00  0.00     0.028 H 
ENDBRANCH  33  35
BRANCH  33  39
ATOM     39  C13 non d ame      -5.617   9.377  65.396  0.00  0.00    -0.071 C 
ATOM     40  H16 non d ame      -6.008   8.634  66.090  0.00  0.00     0.028 H 
ATOM     41  H17 non d ame      -5.475   8.920  64.416  0.00  0.00     0.028 H 
ATOM     42  H18 non d ame      -4.661   9.751  65.764  0.00  0.00     0.028 H 
ENDBRANCH  33  39
ENDBRANCH   7  33
ENDBRANCH   4   7
ENDBRANCH   1   3
BRANCH   1  43
ATOM     43  C15 non d ame     -10.114   6.979  67.612  0.00  0.00     0.240 C 
ATOM     44  O5  non d ame     -11.144   6.406  67.446  0.00  0.00    -0.271 OA
ATOM     45  N6  non d ame      -9.862   7.693  68.895  0.00  0.00    -0.355 N 
ATOM     46  H46 non d ame      -8.990   8.179  69.049  0.00  0.00     0.162 HD
BRANCH  45  47
ATOM     47  C20 non d ame     -10.897   7.692  69.951  0.00  0.00     0.013 C 
ATOM     48  H30 non d ame     -11.804   7.259  69.530  0.00  0.00     0.072 H 
BRANCH  47  49
ATOM     49  C21 non d ame     -11.161   9.113  70.395  0.00  0.00    -0.038 C 
ATOM     50  H31 non d ame     -12.200   9.315  70.135  0.00  0.00     0.036 H 
ATOM     51  H32 non d ame     -10.840   9.160  71.436  0.00  0.00     0.036 H 
BRANCH  49  52
ATOM     52  C22 non d ame     -10.310  10.148  69.629  0.00  0.00     0.018 C 
ATOM     53  H33 non d ame     -10.141  10.968  70.328  0.00  0.00     0.048 H 
ATOM     54  H34 non d ame      -9.463   9.593  69.224  0.00  0.00     0.048 H 
BRANCH  52  55
ATOM     55  C23 non d ame     -11.036  10.774  68.406  0.00  0.00     0.259 C 
ATOM     56  O7  non d ame     -10.745  10.448  67.301  0.00  0.00    -0.265 OA
BRANCH  55  57
ATOM     57  O8  non d ame     -12.046  11.752  68.620  0.00  0.00    -0.317 OA
BRANCH  57  58
ATOM     58  C29 non d ame     -11.541  13.065  68.880  0.00  0.00     0.052 C 
ATOM     59  H47 non d ame     -10.489  12.932  69.132  0.00  0.00     0.082 H 
ATOM     60  H48 non d ame     -11.822  13.666  68.015  0.00  0.00     0.082 H 
BRANCH  58  61
ATOM     61  C35 non d ame     -12.278  13.624  70.126  0.00  0.00    -0.034 A 
ATOM     62  C30 non d ame     -12.406  14.997  70.301  0.00  0.00    -0.075 A 
ATOM     63  C31 non d ame     -13.069  15.499  71.420  0.00  0.00    -0.082 A 
ATOM     64  H49 non d ame     -11.988  15.680  69.563  0.00  0.00     0.084 H 
ATOM     65  C32 non d ame     -13.602  14.621  72.368  0.00  0.00    -0.083 A 
ATOM     66  H50 non d ame     -13.169  16.576  71.554  0.00  0.00     0.083 H 
ATOM     67  C33 non d ame     -13.469  13.251  72.190  0.00  0.00    -0.082 A 
ATOM     68  H51 non d ame     -14.122  15.005  73.246  0.00  0.00     0.083 H 
ATOM     69  C34 non d ame     -12.810  12.745  71.071  0.00  0.00    -0.075 A 
ATOM     70  H52 non d ame     -13.885  12.568  72.932  0.00  0.00     0.083 H 
ATOM     71  H53 non d ame     -12.711  11.667  70.939  0.00  0.00     0.084 H 
ENDBRANCH  58  61
ENDBRANCH  57  58
ENDBRANCH  55  57
ENDBRANCH  52  55
ENDBRANCH  49  52
ENDBRANCH  47  49
BRANCH  47  72
ATOM     72  C24 non d ame     -10.418   6.866  71.142  0.00  0.00    -0.039 C 
ATOM     73  H35 non d ame     -11.203   6.132  71.322  0.00  0.00     0.036 H 
ATOM     74  H36 non d ame      -9.412   6.535  70.881  0.00  0.00     0.036 H 
BRANCH  72  75
ATOM     75  C25 non d ame     -10.291   7.757  72.468  0.00  0.00    -0.001 C 
ATOM     76  C26 non d ame      -8.706   7.999  72.833  0.00  0.00    -0.035 C 
ATOM     77  C27 non d ame      -8.500   7.663  74.128  0.00  0.00     0.085 C 
ATOM     78  H38 non d ame      -8.085   7.291  72.284  0.00  0.00     0.036 H 
ATOM     79  H39 non d ame      -8.474   9.064  72.805  0.00  0.00     0.036 H 
ATOM     80  N5  non d ame      -9.723   6.907  74.589  0.00  0.00    -0.049 N 
ATOM     81  H40 non d ame      -7.645   6.986  74.122  0.00  0.00     0.075 H 
ATOM     82  H41 non d ame      -8.443   8.608  74.668  0.00  0.00     0.075 H 
ATOM     83  C28 non d ame     -10.859   7.180  73.475  0.00  0.00     0.193 C 
ATOM     84  H42 non d ame      -9.479   5.927  74.566  0.00  0.00     0.280 HD
ATOM     85  H43 non d ame     -10.014   7.335  75.456  0.00  0.00     0.280 HD
ATOM     86  H44 non d ame     -11.672   7.879  73.672  0.00  0.00     0.129 H 
ATOM     87  H37 non d ame     -10.933   8.637  72.436  0.00  0.00     0.046 H 
BRANCH  83  88
ATOM     88  O6  non d ame     -11.492   5.953  73.107  0.00  0.00    -0.369 OA
ATOM     89  H45 non d ame     -11.696   5.967  72.169  0.00  0.00     0.212 HD
ENDBRANCH  83  88
ENDBRANCH  72  75
ENDBRANCH  47  72
ENDBRANCH  45  47
ENDBRANCH   1  43
BRANCH   1  90
ATOM     90  C16 non d ame      -7.791   6.247  66.985  0.00  0.00    -0.035 C 
ATOM     91  H21 non d ame      -6.989   6.983  66.930  0.00  0.00     0.037 H 
ATOM     92  H22 non d ame      -8.071   5.816  67.946  0.00  0.00     0.037 H 
BRANCH  90  93
ATOM     93  C17 non d ame      -7.357   5.054  66.075  0.00  0.00    -0.059 C 
ATOM     94  H23 non d ame      -8.191   4.823  65.413  0.00  0.00     0.038 H 
BRANCH  93  95
ATOM     95  C18 non d ame      -6.124   5.408  65.185  0.00  0.00    -0.073 C 
ATOM     96  H24 non d ame      -6.460   5.937  64.293  0.00  0.00     0.028 H 
ATOM     97  H25 non d ame      -5.441   6.045  65.748  0.00  0.00     0.028 H 
ATOM     98  H26 non d ame      -5.610   4.493  64.894  0.00  0.00     0.028 H 
ENDBRANCH  93  95
BRANCH  93  99
ATOM     99  C19 non d ame      -7.084   3.801  66.912  0.00  0.00    -0.073 C 
ATOM    100  H27 non d ame      -7.683   3.834  67.822  0.00  0.00     0.028 H 
ATOM    101  H28 non d ame      -7.347   2.914  66.335  0.00  0.00     0.028 H 
ATOM    102  H29 non d ame      -6.027   3.763  67.175  0.00  0.00     0.028 H 
ENDBRANCH  93  99
ENDBRANCH  90  93
ENDBRANCH   1  90
TORSDOF 26
ENDMDL
MODEL 2
REMARK VINA RESULT:      -6.9      3.825      8.321
REMARK  26 active torsions:
REMARK  status: ('A' for Active; 'I' for Inactive)
REMARK    1  A    between atoms: C2_2  and  C3_3 
REMARK    2  A    between atoms: C4_6  and  C5_7 
REMARK       I    between atoms: C5_7  and  N2_9 
REMARK    3  A    between atoms: N2_9  and  C6_10 
REMARK    4  A    between atoms: C6_10  and  C7_11 
REMARK    5  A    between atoms: C6_10  and  C8_13 
REMARK       I    between atoms: C7_11  and  N3_14 
REMARK    6  A    between atoms: N3_14  and  C9_15 
REMARK    7  A    between atoms: C9_15  and  C10_16 
REMARK    8  A    between atoms: C9_15  and  C11_18 
REMARK       I    between atoms: C10_16  and  N4_21 
REMARK    9  A    between atoms: C11_18  and  C12_19 
REMARK   10  A    between atoms: C11_18  and  C13_20 
REMARK   11  A    between atoms: N4_21  and  C14_22 
REMARK   12  A    between atoms: C14_22  and  C15_23 
REMARK   13  A    between atoms: C14_22  and  C16_25 
REMARK       I    between atoms: C15_23  and  N6_40 
REMARK   14  A    between atoms: C16_25  and  C17_26 
REMARK   15  A    between atoms: C17_26  and  C18_27 
REMARK   16  A    between atoms: C17_26  and  C19_28 
REMARK   17  A    between atoms: C20_29  and  C21_30 
REMARK   18  A    between atoms: C20_29  and  C24_33 
REMARK   19  A    between atoms: C20_29  and  N6_40 
REMARK   20  A    between atoms: C21_30  and  C22_31 
REMARK   21  A    between atoms: C22_31  and  C23_32 
REMARK   22  A    between atoms: C23_32  and  O8_43 
REMARK   23  A    between atoms: C24_33  and  C25_34 
REMARK   24  A    between atoms: C28_38  and  O6_39 
REMARK   25  A    between atoms: C29_42  and  O8_43 
REMARK   26  A    between atoms: C29_42  and  C35_49 
ROOT
ATOM      1  C14 non d ame     -10.739  14.826  66.844  0.00  0.00     0.089 C 
ATOM      2  H20 non d ame     -11.733  15.228  66.649  0.00  0.00     0.087 H 
ENDROOT
BRANCH   1   3
ATOM      3  N4  non d ame      -9.835  15.954  67.009  0.00  0.00    -0.346 N 
ATOM      4  C10 non d ame     -10.181  17.076  67.956  0.00  0.00     0.241 C 
ATOM      5  O4  non d ame     -11.196  17.049  68.572  0.00  0.00    -0.271 OA
ATOM      6  H19 non d ame      -8.978  15.959  66.473  0.00  0.00     0.163 HD
BRANCH   4   7
ATOM      7  C9  non d ame      -9.231  18.233  68.119  0.00  0.00     0.092 C 
ATOM      8  H11 non d ame      -9.495  18.789  69.019  0.00  0.00     0.088 H 
BRANCH   7   9
ATOM      9  N3  non d ame      -7.869  17.725  68.308  0.00  0.00    -0.346 N 
ATOM     10  C7  non d ame      -6.917  18.482  69.082  0.00  0.00     0.240 C 
ATOM     11  O3  non d ame      -7.230  19.505  69.559  0.00  0.00    -0.271 OA
ATOM     12  H10 non d ame      -7.585  16.845  67.902  0.00  0.00     0.163 HD
BRANCH  10  13
ATOM     13  C6  non d ame      -5.469  17.937  69.277  0.00  0.00     0.086 C 
ATOM     14  H6  non d ame      -5.002  18.298  70.194  0.00  0.00     0.086 H 
BRANCH  13  15
ATOM     15  N2  non d ame      -5.520  16.488  69.378  0.00  0.00    -0.343 N 
ATOM     16  C5  non d ame      -5.242  15.845  70.664  0.00  0.00     0.273 C 
ATOM     17  O2  non d ame      -4.975  16.502  71.610  0.00  0.00    -0.266 OA
ATOM     18  H5  non d ame      -5.747  15.934  68.565  0.00  0.00     0.163 HD
BRANCH  16  19
ATOM     19  C4  non d ame      -5.295  14.314  70.787  0.00  0.00     0.154 A 
ATOM     20  C1  non d ame      -4.973  13.355  69.775  0.00  0.00    -0.017 A 
ATOM     21  C2  non d ame      -5.183  12.098  70.386  0.00  0.00     0.077 A 
ATOM     22  H1  non d ame      -4.638  13.541  68.754  0.00  0.00     0.091 H 
ATOM     23  O1  non d ame      -5.577  12.321  71.606  0.00  0.00    -0.218 OA
ATOM     24  N1  non d ame      -5.651  13.607  71.863  0.00  0.00    -0.123 NA
BRANCH  21  25
ATOM     25  C3  non d ame      -4.982  10.736  69.737  0.00  0.00    -0.029 C 
ATOM     26  H2  non d ame      -4.962  10.848  68.652  0.00  0.00     0.036 H 
ATOM     27  H3  non d ame      -4.038  10.308  70.075  0.00  0.00     0.036 H 
ATOM     28  H4  non d ame      -5.801  10.073  70.019  0.00  0.00     0.036 H 
ENDBRANCH  21  25
ENDBRANCH  16  19
ENDBRANCH  13  15
BRANCH  13  29
ATOM     29  C8  non d ame      -4.614  18.342  68.103  0.00  0.00    -0.049 C 
ATOM     30  H7  non d ame      -4.181  19.325  68.290  0.00  0.00     0.030 H 
ATOM     31  H8  non d ame      -3.814  17.613  67.968  0.00  0.00     0.030 H 
ATOM     32  H9  non d ame      -5.226  18.381  67.203  0.00  0.00     0.030 H 
ENDBRANCH  13  29
ENDBRANCH  10  13
ENDBRANCH   7   9
BRANCH   7  33
ATOM     33  C11 non d ame      -9.277  19.126  66.844  0.00  0.00    -0.033 C 
ATOM     34  H12 non d ame     -10.043  18.718  66.185  0.00  0.00     0.042 H 
BRANCH  33  35
ATOM     35  C12 non d ame      -9.688  20.591  67.191  0.00  0.00    -0.071 C 
ATOM     36  H13 non d ame      -9.160  20.914  68.088  0.00  0.00     0.028 H 
ATOM     37  H14 non d ame      -9.429  21.247  66.361  0.00  0.00     0.028 H 
ATOM     38  H15 non d ame     -10.763  20.634  67.365  0.00  0.00     0.028 H 
ENDBRANCH  33  35
BRANCH  33  39
ATOM     39  C13 non d ame      -7.913  19.085  66.084  0.00  0.00    -0.071 C 
ATOM     40  H16 non d ame      -7.361  20.005  66.278  0.00  0.00     0.028 H 
ATOM     41  H17 non d ame      -7.329  18.231  66.429  0.00  0.00     0.028 H 
ATOM     42  H18 non d ame      -8.097  18.991  65.014  0.00  0.00     0.028 H 
ENDBRANCH  33  39
ENDBRANCH   7  33
ENDBRANCH   4   7
ENDBRANCH   1   3
BRANCH   1  43
ATOM     43  C15 non d ame     -10.697  13.964  68.138  0.00  0.00     0.240 C 
ATOM     44  O5  non d ame      -9.678  13.447  68.471  0.00  0.00    -0.271 OA
ATOM     45  N6  non d ame     -11.922  13.788  68.968  0.00  0.00    -0.355 N 
ATOM     46  H46 non d ame     -12.792  14.225  68.697  0.00  0.00     0.162 HD
BRANCH  45  47
ATOM     47  C20 non d ame     -11.865  12.967  70.196  0.00  0.00     0.013 C 
ATOM     48  H30 non d ame     -10.879  13.099  70.641  0.00  0.00     0.072 H 
BRANCH  47  49
ATOM     49  C21 non d ame     -12.079  11.514  69.836  0.00  0.00    -0.038 C 
ATOM     50  H31 non d ame     -12.954  11.496  69.185  0.00  0.00     0.036 H 
ATOM     51  H32 non d ame     -11.116  11.158  69.466  0.00  0.00     0.036 H 
BRANCH  49  52
ATOM     52  C22 non d ame     -12.426  10.638  71.059  0.00  0.00     0.018 C 
ATOM     53  H33 non d ame     -12.389  11.305  71.921  0.00  0.00     0.048 H 
ATOM     54  H34 non d ame     -13.355  10.128  70.803  0.00  0.00     0.048 H 
BRANCH  52  55
ATOM     55  C23 non d ame     -11.386   9.518  71.341  0.00  0.00     0.259 C 
ATOM     56  O7  non d ame     -11.635   8.644  72.107  0.00  0.00    -0.265 OA
BRANCH  55  57
ATOM     57  O8  non d ame     -10.125   9.555  70.685  0.00  0.00    -0.317 OA
BRANCH  57  58
ATOM     58  C29 non d ame      -9.959   8.548  69.682  0.00  0.00     0.052 C 
ATOM     59  H47 non d ame      -9.105   7.951  70.001  0.00  0.00     0.082 H 
ATOM     60  H48 non d ame     -10.938   8.082  69.569  0.00  0.00     0.082 H 
BRANCH  58  61
ATOM     61  C35 non d ame      -9.595   9.255  68.349  0.00  0.00    -0.034 A 
ATOM     62  C30 non d ame     -10.394   9.076  67.225  0.00  0.00    -0.075 A 
ATOM     63  C31 non d ame     -10.068   9.710  66.028  0.00  0.00    -0.082 A 
ATOM     64  H49 non d ame     -11.276   8.439  67.282  0.00  0.00     0.084 H 
ATOM     65  C32 non d ame      -8.935  10.525  65.957  0.00  0.00    -0.083 A 
ATOM     66  H50 non d ame     -10.697   9.569  65.150  0.00  0.00     0.083 H 
ATOM     67  C33 non d ame      -8.138  10.699  67.080  0.00  0.00    -0.082 A 
ATOM     68  H51 non d ame      -8.672  11.025  65.025  0.00  0.00     0.083 H 
ATOM     69  C34 non d ame      -8.463  10.068  68.280  0.00  0.00    -0.075 A 
ATOM     70  H52 non d ame      -7.253  11.333  67.021  0.00  0.00     0.083 H 
ATOM     71  H53 non d ame      -7.832  10.210  69.159  0.00  0.00     0.084 H 
ENDBRANCH  58  61
ENDBRANCH  57  58
ENDBRANCH  55  57
ENDBRANCH  52  55
ENDBRANCH  49  52
ENDBRANCH  47  49
BRANCH  47  72
ATOM     72  C24 non d ame     -12.952  13.416  71.169  0.00  0.00    -0.039 C 
ATOM     73  H35 non d ame     -13.897  13.212  70.664  0.00  0.00     0.036 H 
ATOM     74  H36 non d ame     -12.721  12.921  72.112  0.00  0.00     0.036 H 
BRANCH  72  75
ATOM     75  C25 non d ame     -12.892  14.995  71.437  0.00  0.00    -0.001 C 
ATOM     76  C26 non d ame     -11.808  15.320  72.630  0.00  0.00    -0.035 C 
ATOM     77  C27 non d ame     -12.406  16.099  73.562  0.00  0.00     0.085 C 
ATOM     78  H38 non d ame     -11.570  14.407  73.177  0.00  0.00     0.036 H 
ATOM     79  H39 non d ame     -11.006  15.950  72.246  0.00  0.00     0.036 H 
ATOM     80  N5  non d ame     -13.888  16.067  73.281  0.00  0.00    -0.049 N 
ATOM     81  H40 non d ame     -12.215  15.610  74.518  0.00  0.00     0.075 H 
ATOM     82  H41 non d ame     -12.033  17.107  73.381  0.00  0.00     0.075 H 
ATOM     83  C28 non d ame     -14.045  15.452  71.796  0.00  0.00     0.193 C 
ATOM     84  H42 non d ame     -14.291  15.418  73.941  0.00  0.00     0.280 HD
ATOM     85  H43 non d ame     -14.198  17.028  73.265  0.00  0.00     0.280 HD
ATOM     86  H44 non d ame     -14.274  16.101  70.949  0.00  0.00     0.129 H 
ATOM     87  H37 non d ame     -12.799  15.567  70.514  0.00  0.00     0.046 H 
BRANCH  83  88
ATOM     88  O6  non d ame     -15.054  14.441  71.785  0.00  0.00    -0.369 OA
ATOM     89  H45 non d ame     -15.920  14.853  71.818  0.00  0.00     0.212 HD
ENDBRANCH  83  88
ENDBRANCH  72  75
ENDBRANCH  47  72
ENDBRANCH  45  47
ENDBRANCH   1  43
BRANCH   1  90
ATOM     90  C16 non d ame     -10.280  13.991  65.658  0.00  0.00    -0.035 C 
ATOM     91  H21 non d ame      -9.543  14.605  65.141  0.00  0.00     0.037 H 
ATOM     92  H22 non d ame      -9.989  13.029  66.078  0.00  0.00     0.037 H 
BRANCH  90  93
ATOM     93  C17 non d ame     -11.412  13.698  64.624  0.00  0.00    -0.059 C 
ATOM     94  H23 non d ame     -10.937  13.411  63.686  0.00  0.00     0.038 H 
BRANCH  93  95
ATOM     95  C18 non d ame     -12.331  12.518  65.073  0.00  0.00    -0.073 C 
ATOM     96  H24 non d ame     -12.566  12.623  66.133  0.00  0.00     0.028 H 
ATOM     97  H25 non d ame     -13.255  12.536  64.494  0.00  0.00     0.028 H 
ATOM     98  H26 non d ame     -11.817  11.572  64.906  0.00  0.00     0.028 H 
ENDBRANCH  93  95
BRANCH  93  99
ATOM     99  C19 non d ame     -12.238  14.957  64.346  0.00  0.00    -0.073 C 
ATOM    100  H27 non d ame     -12.615  14.926  63.324  0.00  0.00     0.028 H 
ATOM    101  H28 non d ame     -13.077  15.002  65.041  0.00  0.00     0.028 H 
ATOM    102  H29 non d ame     -11.611  15.838  64.475  0.00  0.00     0.028 H 
ENDBRANCH  93  99
ENDBRANCH  90  93
ENDBRANCH   1  90
TORSDOF 26
ENDMDL
MODEL 3
REMARK VINA RESULT:      -6.8      2.517      4.280
REMARK  26 active torsions:
REMARK  status: ('A' for Active; 'I' for Inactive)
REMARK    1  A    between atoms: C2_2  and  C3_3 
REMARK    2  A    between atoms: C4_6  and  C5_7 
REMARK       I    between atoms: C5_7  and  N2_9 
REMARK    3  A    between atoms: N2_9  and  C6_10 
REMARK    4  A    between atoms: C6_10  and  C7_11 
REMARK    5  A    between atoms: C6_10  and  C8_13 
REMARK       I    between atoms: C7_11  and  N3_14 
REMARK    6  A    between atoms: N3_14  and  C9_15 
REMARK    7  A    between atoms: C9_15  and  C10_16 
REMARK    8  A    between atoms: C9_15  and  C11_18 
REMARK       I    between atoms: C10_16  and  N4_21 
REMARK    9  A    between atoms: C11_18  and  C12_19 
REMARK   10  A    between atoms: C11_18  and  C13_20 
REMARK   11  A    between atoms: N4_21  and  C14_22 
REMARK   12  A    between atoms: C14_22  and  C15_23 
REMARK   13  A    between atoms: C14_22  and  C16_25 
REMARK       I    between atoms: C15_23  and  N6_40 
REMARK   14  A    between atoms: C16_25  and  C17_26 
REMARK   15  A    between atoms: C17_26  and  C18_27 
REMARK   16  A    between atoms: C17_26  and  C19_28 
REMARK   17  A    between atoms: C20_29  and  C21_30 
REMARK   18  A    between atoms: C20_29  and  C24_33 
REMARK   19  A    between atoms: C20_29  and  N6_40 
REMARK   20  A    between atoms: C21_30  and  C22_31 
REMARK   21  A    between atoms: C22_31  and  C23_32 
REMARK   22  A    between atoms: C23_32  and  O8_43 
REMARK   23  A    between atoms: C24_33  and  C25_34 
REMARK   24  A    between atoms: C28_38  and  O6_39 
REMARK   25  A    between atoms: C29_42  and  O8_43 
REMARK   26  A    between atoms: C29_42  and  C35_49 
ROOT
ATOM      1  C14 non d ame      -7.443   6.430  63.220  0.00  0.00     0.089 C 
ATOM      2  H20 non d ame      -7.743   6.652  62.196  0.00  0.00     0.087 H 
ENDROOT
BRANCH   1   3
ATOM      3  N4  non d ame      -7.408   7.688  63.950  0.00  0.00    -0.346 N 
ATOM      4  C10 non d ame      -8.162   8.888  63.435  0.00  0.00     0.241 C 
ATOM      5  O4  non d ame      -8.788   8.817  62.429  0.00  0.00    -0.271 OA
ATOM      6  H19 non d ame      -6.867   7.728  64.803  0.00  0.00     0.163 HD
BRANCH   4   7
ATOM      7  C9  non d ame      -8.119  10.181  64.206  0.00  0.00     0.092 C 
ATOM      8  H11 non d ame      -7.820  10.988  63.537  0.00  0.00     0.088 H 
BRANCH   7   9
ATOM      9  N3  non d ame      -9.463  10.503  64.697  0.00  0.00    -0.346 N 
ATOM     10  C7  non d ame     -10.252  11.510  64.032  0.00  0.00     0.240 C 
ATOM     11  O3  non d ame      -9.821  12.073  63.101  0.00  0.00    -0.271 OA
ATOM     12  H10 non d ame      -9.847  10.026  65.500  0.00  0.00     0.163 HD
BRANCH  10  13
ATOM     13  C6  non d ame     -11.680  11.849  64.562  0.00  0.00     0.086 C 
ATOM     14  H6  non d ame     -12.119  11.038  65.141  0.00  0.00     0.086 H 
BRANCH  13  15
ATOM     15  N2  non d ame     -11.591  12.995  65.451  0.00  0.00    -0.343 N 
ATOM     16  C5  non d ame     -11.792  12.808  66.890  0.00  0.00     0.273 C 
ATOM     17  O2  non d ame     -12.027  11.732  67.321  0.00  0.00    -0.266 OA
ATOM     18  H5  non d ame     -11.393  13.911  65.075  0.00  0.00     0.163 HD
BRANCH  16  19
ATOM     19  C4  non d ame     -11.700  14.010  67.843  0.00  0.00     0.154 A 
ATOM     20  C1  non d ame     -12.009  14.031  69.241  0.00  0.00    -0.017 A 
ATOM     21  C2  non d ame     -11.761  15.361  69.648  0.00  0.00     0.077 A 
ATOM     22  H1  non d ame     -12.359  13.207  69.864  0.00  0.00     0.091 H 
ATOM     23  O1  non d ame     -11.356  16.018  68.600  0.00  0.00    -0.218 OA
ATOM     24  N1  non d ame     -11.313  15.251  67.535  0.00  0.00    -0.123 NA
BRANCH  21  25
ATOM     25  C3  non d ame     -11.933  15.920  71.054  0.00  0.00    -0.029 C 
ATOM     26  H2  non d ame     -10.998  15.814  71.605  0.00  0.00     0.036 H 
ATOM     27  H3  non d ame     -12.202  16.974  70.994  0.00  0.00     0.036 H 
ATOM     28  H4  non d ame     -12.723  15.373  71.569  0.00  0.00     0.036 H 
ENDBRANCH  21  25
ENDBRANCH  16  19
ENDBRANCH  13  15
BRANCH  13  29
ATOM     29  C8  non d ame     -12.588  12.167  63.401  0.00  0.00    -0.049 C 
ATOM     30  H7  non d ame     -13.542  11.657  63.536  0.00  0.00     0.030 H 
ATOM     31  H8  non d ame     -12.754  13.244  63.354  0.00  0.00     0.030 H 
ATOM     32  H9  non d ame     -12.125  11.830  62.475  0.00  0.00     0.030 H 
ENDBRANCH  13  29
ENDBRANCH  10  13
ENDBRANCH   7   9
BRANCH   7  33
ATOM     33  C11 non d ame      -7.149  10.034  65.414  0.00  0.00    -0.033 C 
ATOM     34  H12 non d ame      -7.071   8.971  65.645  0.00  0.00     0.042 H 
BRANCH  33  35
ATOM     35  C12 non d ame      -5.717  10.542  65.060  0.00  0.00    -0.071 C 
ATOM     36  H13 non d ame      -5.233   9.829  64.393  0.00  0.00     0.028 H 
ATOM     37  H14 non d ame      -5.788  11.511  64.566  0.00  0.00     0.028 H 
ATOM     38  H15 non d ame      -5.132  10.643  65.973  0.00  0.00     0.028 H 
ENDBRANCH  33  35
BRANCH  33  39
ATOM     39  C13 non d ame      -7.713  10.762  66.676  0.00  0.00    -0.071 C 
ATOM     40  H16 non d ame      -8.128  10.027  67.365  0.00  0.00     0.028 H 
ATOM     41  H17 non d ame      -6.910  11.311  67.169  0.00  0.00     0.028 H 
ATOM     42  H18 non d ame      -8.496  11.458  66.373  0.00  0.00     0.028 H 
ENDBRANCH  33  39
ENDBRANCH   7  33
ENDBRANCH   4   7
ENDBRANCH   1   3
BRANCH   1  43
ATOM     43  C15 non d ame      -8.443   5.473  63.931  0.00  0.00     0.240 C 
ATOM     44  O5  non d ame      -9.029   4.653  63.298  0.00  0.00    -0.271 OA
ATOM     45  N6  non d ame      -8.664   5.571  65.402  0.00  0.00    -0.355 N 
ATOM     46  H46 non d ame      -8.170   6.260  65.950  0.00  0.00     0.162 HD
BRANCH  45  47
ATOM     47  C20 non d ame      -9.617   4.653  66.063  0.00  0.00     0.013 C 
ATOM     48  H30 non d ame      -9.809   3.823  65.383  0.00  0.00     0.072 H 
BRANCH  47  49
ATOM     49  C21 non d ame     -10.904   5.391  66.352  0.00  0.00    -0.038 C 
ATOM     50  H31 non d ame     -10.973   6.172  65.593  0.00  0.00     0.036 H 
ATOM     51  H32 non d ame     -11.676   4.623  66.416  0.00  0.00     0.036 H 
BRANCH  49  52
ATOM     52  C22 non d ame     -10.890   6.110  67.718  0.00  0.00     0.018 C 
ATOM     53  H33 non d ame     -11.936   6.239  67.996  0.00  0.00     0.048 H 
ATOM     54  H34 non d ame     -10.226   5.522  68.353  0.00  0.00     0.048 H 
BRANCH  52  55
ATOM     55  C23 non d ame     -10.281   7.539  67.667  0.00  0.00     0.259 C 
ATOM     56  O7  non d ame     -10.317   8.173  66.663  0.00  0.00    -0.265 OA
BRANCH  55  57
ATOM     57  O8  non d ame      -9.668   8.078  68.831  0.00  0.00    -0.317 OA
BRANCH  57  58
ATOM     58  C29 non d ame     -10.087   9.408  69.150  0.00  0.00     0.052 C 
ATOM     59  H47 non d ame      -9.201   9.914  69.531  0.00  0.00     0.082 H 
ATOM     60  H48 non d ame     -10.585   9.782  68.255  0.00  0.00     0.082 H 
BRANCH  58  61
ATOM     61  C35 non d ame     -11.133   9.320  70.293  0.00  0.00    -0.034 A 
ATOM     62  C30 non d ame     -12.085  10.322  70.444  0.00  0.00    -0.075 A 
ATOM     63  C31 non d ame     -13.025  10.244  71.470  0.00  0.00    -0.082 A 
ATOM     64  H49 non d ame     -12.095  11.169  69.759  0.00  0.00     0.084 H 
ATOM     65  C32 non d ame     -13.008   9.158  72.350  0.00  0.00    -0.083 A 
ATOM     66  H50 non d ame     -13.770  11.030  71.585  0.00  0.00     0.083 H 
ATOM     67  C33 non d ame     -12.054   8.161  72.197  0.00  0.00    -0.082 A 
ATOM     68  H51 non d ame     -13.739   9.088  73.155  0.00  0.00     0.083 H 
ATOM     69  C34 non d ame     -11.114   8.235  71.171  0.00  0.00    -0.075 A 
ATOM     70  H52 non d ame     -12.042   7.316  72.886  0.00  0.00     0.083 H 
ATOM     71  H53 non d ame     -10.368   7.447  71.056  0.00  0.00     0.084 H 
ENDBRANCH  58  61
ENDBRANCH  57  58
ENDBRANCH  55  57
ENDBRANCH  52  55
ENDBRANCH  49  52
ENDBRANCH  47  49
BRANCH  47  72
ATOM     72  C24 non d ame      -9.018   4.141  67.370  0.00  0.00    -0.039 C 
ATOM     73  H35 non d ame      -9.152   4.950  68.088  0.00  0.00     0.036 H 
ATOM     74  H36 non d ame      -9.488   3.173  67.546  0.00  0.00     0.036 H 
BRANCH  72  75
ATOM     75  C25 non d ame      -7.442   3.884  67.239  0.00  0.00    -0.001 C 
ATOM     76  C26 non d ame      -7.088   2.338  67.673  0.00  0.00    -0.035 C 
ATOM     77  C27 non d ame      -6.092   2.358  68.590  0.00  0.00     0.085 C 
ATOM     78  H38 non d ame      -7.926   1.902  68.217  0.00  0.00     0.036 H 
ATOM     79  H39 non d ame      -6.648   1.804  66.830  0.00  0.00     0.036 H 
ATOM     80  N5  non d ame      -5.956   3.785  69.063  0.00  0.00    -0.049 N 
ATOM     81  H40 non d ame      -6.443   1.741  69.417  0.00  0.00     0.075 H 
ATOM     82  H41 non d ame      -5.190   2.078  68.045  0.00  0.00     0.075 H 
ATOM     83  C28 non d ame      -6.772   4.685  67.999  0.00  0.00     0.193 C 
ATOM     84  H42 non d ame      -6.427   3.837  69.955  0.00  0.00     0.280 HD
ATOM     85  H43 non d ame      -4.976   4.018  68.996  0.00  0.00     0.280 HD
ATOM     86  H44 non d ame      -6.242   5.274  67.250  0.00  0.00     0.129 H 
ATOM     87  H37 non d ame      -7.044   4.235  66.287  0.00  0.00     0.046 H 
BRANCH  83  88
ATOM     88  O6  non d ame      -7.618   5.611  68.684  0.00  0.00    -0.369 OA
ATOM     89  H45 non d ame      -8.356   5.140  69.076  0.00  0.00     0.212 HD
ENDBRANCH  83  88
ENDBRANCH  72  75
ENDBRANCH  47  72
ENDBRANCH  45  47
ENDBRANCH   1  43
BRANCH   1  90
ATOM     90  C16 non d ame      -6.053   5.813  63.226  0.00  0.00    -0.035 C 
ATOM     91  H21 non d ame      -6.214   4.738  63.134  0.00  0.00     0.037 H 
ATOM     92  H22 non d ame      -5.496   6.348  62.458  0.00  0.00     0.037 H 
BRANCH  90  93
ATOM     93  C17 non d ame      -5.278   6.028  64.565  0.00  0.00    -0.059 C 
ATOM     94  H23 non d ame      -6.006   6.310  65.326  0.00  0.00     0.038 H 
BRANCH  93  95
ATOM     95  C18 non d ame      -4.562   4.728  65.048  0.00  0.00    -0.073 C 
ATOM     96  H24 non d ame      -3.602   4.987  65.497  0.00  0.00     0.028 H 
ATOM     97  H25 non d ame      -5.183   4.224  65.789  0.00  0.00     0.028 H 
ATOM     98  H26 non d ame      -4.399   4.064  64.199  0.00  0.00     0.028 H 
ENDBRANCH  93  95
BRANCH  93  99
ATOM     99  C19 non d ame      -4.282   7.185  64.439  0.00  0.00    -0.073 C 
ATOM    100  H27 non d ame      -4.064   7.585  65.430  0.00  0.00     0.028 H 
ATOM    101  H28 non d ame      -3.361   6.823  63.982  0.00  0.00     0.028 H 
ATOM    102  H29 non d ame      -4.714   7.969  63.818  0.00  0.00     0.028 H 
ENDBRANCH  93  99
ENDBRANCH  90  93
ENDBRANCH   1  90
TORSDOF 26
ENDMDL
MODEL 4
REMARK VINA RESULT:      -6.8      2.615      7.882
REMARK  26 active torsions:
REMARK  status: ('A' for Active; 'I' for Inactive)
REMARK    1  A    between atoms: C2_2  and  C3_3 
REMARK    2  A    between atoms: C4_6  and  C5_7 
REMARK       I    between atoms: C5_7  and  N2_9 
REMARK    3  A    between atoms: N2_9  and  C6_10 
REMARK    4  A    between atoms: C6_10  and  C7_11 
REMARK    5  A    between atoms: C6_10  and  C8_13 
REMARK       I    between atoms: C7_11  and  N3_14 
REMARK    6  A    between atoms: N3_14  and  C9_15 
REMARK    7  A    between atoms: C9_15  and  C10_16 
REMARK    8  A    between atoms: C9_15  and  C11_18 
REMARK       I    between atoms: C10_16  and  N4_21 
REMARK    9  A    between atoms: C11_18  and  C12_19 
REMARK   10  A    between atoms: C11_18  and  C13_20 
REMARK   11  A    between atoms: N4_21  and  C14_22 
REMARK   12  A    between atoms: C14_22  and  C15_23 
REMARK   13  A    between atoms: C14_22  and  C16_25 
REMARK       I    between atoms: C15_23  and  N6_40 
REMARK   14  A    between atoms: C16_25  and  C17_26 
REMARK   15  A    between atoms: C17_26  and  C18_27 
REMARK   16  A    between atoms: C17_26  and  C19_28 
REMARK   17  A    between atoms: C20_29  and  C21_30 
REMARK   18  A    between atoms: C20_29  and  C24_33 
REMARK   19  A    between atoms: C20_29  and  N6_40 
REMARK   20  A    between atoms: C21_30  and  C22_31 
REMARK   21  A    between atoms: C22_31  and  C23_32 
REMARK   22  A    between atoms: C23_32  and  O8_43 
REMARK   23  A    between atoms: C24_33  and  C25_34 
REMARK   24  A    between atoms: C28_38  and  O6_39 
REMARK   25  A    between atoms: C29_42  and  O8_43 
REMARK   26  A    between atoms: C29_42  and  C35_49 
ROOT
ATOM      1  C14 non d ame      -9.812  10.420  68.518  0.00  0.00     0.089 C 
ATOM      2  H20 non d ame      -9.154  10.476  69.385  0.00  0.00     0.087 H 
ENDROOT
BRANCH   1   3
ATOM      3  N4  non d ame     -10.458   9.117  68.540  0.00  0.00    -0.346 N 
ATOM      4  C10 non d ame      -9.955   8.033  69.461  0.00  0.00     0.241 C 
ATOM      5  O4  non d ame      -9.027   8.234  70.174  0.00  0.00    -0.271 OA
ATOM      6  H19 non d ame     -11.244   8.965  67.924  0.00  0.00     0.163 HD
BRANCH   4   7
ATOM      7  C9  non d ame     -10.639   6.692  69.476  0.00  0.00     0.092 C 
ATOM      8  H11 non d ame     -11.670   6.811  69.144  0.00  0.00     0.088 H 
BRANCH   7   9
ATOM      9  N3  non d ame      -9.979   5.796  68.522  0.00  0.00    -0.346 N 
ATOM     10  C7  non d ame     -10.332   5.843  67.124  0.00  0.00     0.240 C 
ATOM     11  O3  non d ame     -11.148   6.595  66.751  0.00  0.00    -0.271 OA
ATOM     12  H10 non d ame      -9.275   5.141  68.830  0.00  0.00     0.163 HD
BRANCH  10  13
ATOM     13  C6  non d ame      -9.629   4.885  66.115  0.00  0.00     0.086 C 
ATOM     14  H6  non d ame     -10.242   4.669  65.239  0.00  0.00     0.086 H 
BRANCH  13  15
ATOM     15  N2  non d ame      -8.417   5.522  65.627  0.00  0.00    -0.343 N 
ATOM     16  C5  non d ame      -8.127   5.516  64.191  0.00  0.00     0.273 C 
ATOM     17  O2  non d ame      -8.873   4.994  63.438  0.00  0.00    -0.266 OA
ATOM     18  H5  non d ame      -7.783   5.964  66.277  0.00  0.00     0.163 HD
BRANCH  16  19
ATOM     19  C4  non d ame      -6.851   6.188  63.660  0.00  0.00     0.154 A 
ATOM     20  C1  non d ame      -6.564   7.589  63.621  0.00  0.00    -0.017 A 
ATOM     21  C2  non d ame      -5.276   7.682  63.048  0.00  0.00     0.077 A 
ATOM     22  H1  non d ame      -7.194   8.414  63.956  0.00  0.00     0.091 H 
ATOM     23  O1  non d ame      -4.877   6.469  62.794  0.00  0.00    -0.218 OA
ATOM     24  N1  non d ame      -5.780   5.580  63.142  0.00  0.00    -0.123 NA
BRANCH  21  25
ATOM     25  C3  non d ame      -4.498   8.962  62.780  0.00  0.00    -0.029 C 
ATOM     26  H2  non d ame      -4.439   9.551  63.697  0.00  0.00     0.036 H 
ATOM     27  H3  non d ame      -3.492   8.712  62.444  0.00  0.00     0.036 H 
ATOM     28  H4  non d ame      -5.005   9.542  62.009  0.00  0.00     0.036 H 
ENDBRANCH  21  25
ENDBRANCH  16  19
ENDBRANCH  13  15
BRANCH  13  29
ATOM     29  C8  non d ame      -9.288   3.587  66.802  0.00  0.00    -0.049 C 
ATOM     30  H7  non d ame      -9.935   2.795  66.426  0.00  0.00     0.030 H 
ATOM     31  H8  non d ame      -8.246   3.332  66.600  0.00  0.00     0.030 H 
ATOM     32  H9  non d ame      -9.434   3.695  67.876  0.00  0.00     0.030 H 
ENDBRANCH  13  29
ENDBRANCH  10  13
ENDBRANCH   7   9
BRANCH   7  33
ATOM     33  C11 non d ame     -10.551   6.080  70.905  0.00  0.00    -0.033 C 
ATOM     34  H12 non d ame      -9.777   6.622  71.447  0.00  0.00     0.042 H 
BRANCH  33  35
ATOM     35  C12 non d ame     -11.889   6.265  71.686  0.00  0.00    -0.071 C 
ATOM     36  H13 non d ame     -11.991   7.308  71.989  0.00  0.00     0.028 H 
ATOM     37  H14 non d ame     -12.726   5.990  71.044  0.00  0.00     0.028 H 
ATOM     38  H15 non d ame     -11.885   5.628  72.570  0.00  0.00     0.028 H 
ENDBRANCH  33  35
BRANCH  33  39
ATOM     39  C13 non d ame     -10.135   4.575  70.843  0.00  0.00    -0.071 C 
ATOM     40  H16 non d ame      -9.179   4.483  70.329  0.00  0.00     0.028 H 
ATOM     41  H17 non d ame     -10.044   4.181  71.856  0.00  0.00     0.028 H 
ATOM     42  H18 non d ame     -10.894   4.011  70.302  0.00  0.00     0.028 H 
ENDBRANCH  33  39
ENDBRANCH   7  33
ENDBRANCH   4   7
ENDBRANCH   1   3
BRANCH   1  43
ATOM     43  C15 non d ame     -10.912  11.519  68.542  0.00  0.00     0.240 C 
ATOM     44  O5  non d ame     -11.835  11.449  67.794  0.00  0.00    -0.271 OA
ATOM     45  N6  non d ame     -10.823  12.654  69.504  0.00  0.00    -0.355 N 
ATOM     46  H46 non d ame     -10.047  12.722  70.147  0.00  0.00     0.162 HD
BRANCH  45  47
ATOM     47  C20 non d ame     -11.879  13.690  69.516  0.00  0.00     0.013 C 
ATOM     48  H30 non d ame     -12.616  13.425  68.758  0.00  0.00     0.072 H 
BRANCH  47  49
ATOM     49  C21 non d ame     -11.265  15.033  69.191  0.00  0.00    -0.038 C 
ATOM     50  H31 non d ame     -11.706  15.737  69.898  0.00  0.00     0.036 H 
ATOM     51  H32 non d ame     -10.187  14.870  69.185  0.00  0.00     0.036 H 
BRANCH  49  52
ATOM     52  C22 non d ame     -11.638  15.538  67.781  0.00  0.00     0.018 C 
ATOM     53  H33 non d ame     -11.956  14.655  67.225  0.00  0.00     0.048 H 
ATOM     54  H34 non d ame     -12.333  16.363  67.936  0.00  0.00     0.048 H 
BRANCH  52  55
ATOM     55  C23 non d ame     -10.438  16.130  66.991  0.00  0.00     0.259 C 
ATOM     56  O7  non d ame      -9.933  17.148  67.337  0.00  0.00    -0.265 OA
BRANCH  55  57
ATOM     57  O8  non d ame      -9.957  15.449  65.839  0.00  0.00    -0.317 OA
BRANCH  57  58
ATOM     58  C29 non d ame      -9.694  14.059  66.050  0.00  0.00     0.052 C 
ATOM     59  H47 non d ame      -8.638  13.920  65.821  0.00  0.00     0.082 H 
ATOM     60  H48 non d ame     -10.069  13.837  67.049  0.00  0.00     0.082 H 
BRANCH  58  61
ATOM     61  C35 non d ame     -10.531  13.252  65.022  0.00  0.00    -0.034 A 
ATOM     62  C30 non d ame     -11.769  13.727  64.605  0.00  0.00    -0.075 A 
ATOM     63  C31 non d ame     -12.521  13.003  63.682  0.00  0.00    -0.082 A 
ATOM     64  H49 non d ame     -12.151  14.668  65.001  0.00  0.00     0.084 H 
ATOM     65  C32 non d ame     -12.030  11.796  63.176  0.00  0.00    -0.083 A 
ATOM     66  H50 non d ame     -13.490  13.379  63.356  0.00  0.00     0.083 H 
ATOM     67  C33 non d ame     -10.794  11.323  63.598  0.00  0.00    -0.082 A 
ATOM     68  H51 non d ame     -12.611  11.222  62.454  0.00  0.00     0.083 H 
ATOM     69  C34 non d ame     -10.039  12.046  64.519  0.00  0.00    -0.075 A 
ATOM     70  H52 non d ame     -10.415  10.379  63.203  0.00  0.00     0.083 H 
ATOM     71  H53 non d ame      -9.068  11.668  64.844  0.00  0.00     0.084 H 
ENDBRANCH  58  61
ENDBRANCH  57  58
ENDBRANCH  55  57
ENDBRANCH  52  55
ENDBRANCH  49  52
ENDBRANCH  47  49
BRANCH  47  72
ATOM     72  C24 non d ame     -12.531  13.747  70.895  0.00  0.00    -0.039 C 
ATOM     73  H35 non d ame     -13.518  13.303  70.768  0.00  0.00     0.036 H 
ATOM     74  H36 non d ame     -11.812  13.290  71.576  0.00  0.00     0.036 H 
BRANCH  72  75
ATOM     75  C25 non d ame     -12.751  15.256  71.385  0.00  0.00    -0.001 C 
ATOM     76  C26 non d ame     -11.723  15.601  72.620  0.00  0.00    -0.035 C 
ATOM     77  C27 non d ame     -12.434  16.120  73.649  0.00  0.00     0.085 C 
ATOM     78  H38 non d ame     -11.314  14.679  73.034  0.00  0.00     0.036 H 
ATOM     79  H39 non d ame     -11.055  16.414  72.335  0.00  0.00     0.036 H 
ATOM     80  N5  non d ame     -13.891  15.860  73.354  0.00  0.00    -0.049 N 
ATOM     81  H40 non d ame     -12.141  15.545  74.527  0.00  0.00     0.075 H 
ATOM     82  H41 non d ame     -12.252  17.195  73.615  0.00  0.00     0.075 H 
ATOM     83  C28 non d ame     -13.961  15.442  71.795  0.00  0.00     0.193 C 
ATOM     84  H42 non d ame     -14.158  15.062  73.913  0.00  0.00     0.280 HD
ATOM     85  H43 non d ame     -14.370  16.741  73.472  0.00  0.00     0.280 HD
ATOM     86  H44 non d ame     -14.319  16.151  71.048  0.00  0.00     0.129 H 
ATOM     87  H37 non d ame     -12.780  15.960  70.553  0.00  0.00     0.046 H 
BRANCH  83  88
ATOM     88  O6  non d ame     -14.771  14.277  71.634  0.00  0.00    -0.369 OA
ATOM     89  H45 non d ame     -14.482  13.792  70.858  0.00  0.00     0.212 HD
ENDBRANCH  83  88
ENDBRANCH  72  75
ENDBRANCH  47  72
ENDBRANCH  45  47
ENDBRANCH   1  43
BRANCH   1  90
ATOM     90  C16 non d ame      -8.992  10.547  67.242  0.00  0.00    -0.035 C 
ATOM     91  H21 non d ame      -8.994   9.551  66.799  0.00  0.00     0.037 H 
ATOM     92  H22 non d ame      -9.429  11.384  66.701  0.00  0.00     0.037 H 
BRANCH  90  93
ATOM     93  C17 non d ame      -7.496  10.915  67.494  0.00  0.00    -0.059 C 
ATOM     94  H23 non d ame      -6.969  10.822  66.544  0.00  0.00     0.038 H 
BRANCH  93  95
ATOM     95  C18 non d ame      -7.325  12.384  67.993  0.00  0.00    -0.073 C 
ATOM     96  H24 non d ame      -6.659  12.400  68.856  0.00  0.00     0.028 H 
ATOM     97  H25 non d ame      -6.897  12.992  67.195  0.00  0.00     0.028 H 
ATOM     98  H26 non d ame      -8.297  12.788  68.276  0.00  0.00     0.028 H 
ENDBRANCH  93  95
BRANCH  93  99
ATOM     99  C19 non d ame      -6.847   9.929  68.469  0.00  0.00    -0.073 C 
ATOM    100  H27 non d ame      -5.962  10.385  68.912  0.00  0.00     0.028 H 
ATOM    101  H28 non d ame      -7.558   9.676  69.257  0.00  0.00     0.028 H 
ATOM    102  H29 non d ame      -6.560   9.024  67.934  0.00  0.00     0.028 H 
ENDBRANCH  93  99
ENDBRANCH  90  93
ENDBRANCH   1  90
TORSDOF 26
ENDMDL
MODEL 5
REMARK VINA RESULT:      -6.8      3.032      6.959
REMARK  26 active torsions:
REMARK  status: ('A' for Active; 'I' for Inactive)
REMARK    1  A    between atoms: C2_2  and  C3_3 
REMARK    2  A    between atoms: C4_6  and  C5_7 
REMARK       I    between atoms: C5_7  and  N2_9 
REMARK    3  A    between atoms: N2_9  and  C6_10 
REMARK    4  A    between atoms: C6_10  and  C7_11 
REMARK    5  A    between atoms: C6_10  and  C8_13 
REMARK       I    between atoms: C7_11  and  N3_14 
REMARK    6  A    between atoms: N3_14  and  C9_15 
REMARK    7  A    between atoms: C9_15  and  C10_16 
REMARK    8  A    between atoms: C9_15  and  C11_18 
REMARK       I    between atoms: C10_16  and  N4_21 
REMARK    9  A    between atoms: C11_18  and  C12_19 
REMARK   10  A    between atoms: C11_18  and  C13_20 
REMARK   11  A    between atoms: N4_21  and  C14_22 
REMARK   12  A    between atoms: C14_22  and  C15_23 
REMARK   13  A    between atoms: C14_22  and  C16_25 
REMARK       I    between atoms: C15_23  and  N6_40 
REMARK   14  A    between atoms: C16_25  and  C17_26 
REMARK   15  A    between atoms: C17_26  and  C18_27 
REMARK   16  A    between atoms: C17_26  and  C19_28 
REMARK   17  A    between atoms: C20_29  and  C21_30 
REMARK   18  A    between atoms: C20_29  and  C24_33 
REMARK   19  A    between atoms: C20_29  and  N6_40 
REMARK   20  A    between atoms: C21_30  and  C22_31 
REMARK   21  A    between atoms: C22_31  and  C23_32 
REMARK   22  A    between atoms: C23_32  and  O8_43 
REMARK   23  A    between atoms: C24_33  and  C25_34 
REMARK   24  A    between atoms: C28_38  and  O6_39 
REMARK   25  A    between atoms: C29_42  and  O8_43 
REMARK   26  A    between atoms: C29_42  and  C35_49 
ROOT
ATOM      1  C14 non d ame      -7.144  12.675  68.196  0.00  0.00     0.089 C 
ATOM      2  H20 non d ame      -6.381  12.524  67.433  0.00  0.00     0.087 H 
ENDROOT
BRANCH   1   3
ATOM      3  N4  non d ame      -7.348  14.109  68.335  0.00  0.00    -0.346 N 
ATOM      4  C10 non d ame      -6.320  15.079  67.810  0.00  0.00     0.241 C 
ATOM      5  O4  non d ame      -5.333  14.681  67.282  0.00  0.00    -0.271 OA
ATOM      6  H19 non d ame      -8.193  14.427  68.789  0.00  0.00     0.163 HD
BRANCH   4   7
ATOM      7  C9  non d ame      -6.549  16.560  67.957  0.00  0.00     0.092 C 
ATOM      8  H11 non d ame      -6.255  17.062  67.035  0.00  0.00     0.088 H 
BRANCH   7   9
ATOM      9  N3  non d ame      -7.980  16.816  68.150  0.00  0.00    -0.346 N 
ATOM     10  C7  non d ame      -8.794  17.239  67.037  0.00  0.00     0.240 C 
ATOM     11  O3  non d ame      -8.313  17.380  65.979  0.00  0.00    -0.271 OA
ATOM     12  H10 non d ame      -8.408  16.701  69.057  0.00  0.00     0.163 HD
BRANCH  10  13
ATOM     13  C6  non d ame     -10.315  17.513  67.250  0.00  0.00     0.086 C 
ATOM     14  H6  non d ame     -10.943  16.987  66.532  0.00  0.00     0.086 H 
BRANCH  13  15
ATOM     15  N2  non d ame     -10.699  17.035  68.568  0.00  0.00    -0.343 N 
ATOM     16  C5  non d ame     -11.431  15.772  68.691  0.00  0.00     0.273 C 
ATOM     17  O2  non d ame     -11.707  15.151  67.725  0.00  0.00    -0.266 OA
ATOM     18  H5  non d ame     -10.462  17.574  69.388  0.00  0.00     0.163 HD
BRANCH  16  19
ATOM     19  C4  non d ame     -11.843  15.253  70.078  0.00  0.00     0.154 A 
ATOM     20  C1  non d ame     -11.798  15.969  71.317  0.00  0.00    -0.017 A 
ATOM     21  C2  non d ame     -12.277  15.055  72.282  0.00  0.00     0.077 A 
ATOM     22  H1  non d ame     -11.468  16.994  71.489  0.00  0.00     0.091 H 
ATOM     23  O1  non d ame     -12.563  13.948  71.659  0.00  0.00    -0.218 OA
ATOM     24  N1  non d ame     -12.316  14.040  70.372  0.00  0.00    -0.123 NA
BRANCH  21  25
ATOM     25  C3  non d ame     -12.433  15.318  73.773  0.00  0.00    -0.029 C 
ATOM     26  H2  non d ame     -11.760  14.666  74.331  0.00  0.00     0.036 H 
ATOM     27  H3  non d ame     -12.189  16.359  73.986  0.00  0.00     0.036 H 
ATOM     28  H4  non d ame     -13.463  15.119  74.073  0.00  0.00     0.036 H 
ENDBRANCH  21  25
ENDBRANCH  16  19
ENDBRANCH  13  15
BRANCH  13  29
ATOM     29  C8  non d ame     -10.582  18.993  67.140  0.00  0.00    -0.049 C 
ATOM     30  H7  non d ame     -10.244  19.492  68.048  0.00  0.00     0.030 H 
ATOM     31  H8  non d ame     -10.044  19.396  66.281  0.00  0.00     0.030 H 
ATOM     32  H9  non d ame     -11.651  19.160  67.011  0.00  0.00     0.030 H 
ENDBRANCH  13  29
ENDBRANCH  10  13
ENDBRANCH   7   9
BRANCH   7  33
ATOM     33  C11 non d ame      -5.759  17.089  69.190  0.00  0.00    -0.033 C 
ATOM     34  H12 non d ame      -6.356  17.878  69.648  0.00  0.00     0.042 H 
BRANCH  33  35
ATOM     35  C12 non d ame      -5.559  15.970  70.259  0.00  0.00    -0.071 C 
ATOM     36  H13 non d ame      -5.054  15.118  69.803  0.00  0.00     0.028 H 
ATOM     37  H14 non d ame      -4.953  16.355  71.079  0.00  0.00     0.028 H 
ATOM     38  H15 non d ame      -6.530  15.656  70.641  0.00  0.00     0.028 H 
ENDBRANCH  33  35
BRANCH  33  39
ATOM     39  C13 non d ame      -4.392  17.707  68.754  0.00  0.00    -0.071 C 
ATOM     40  H16 non d ame      -3.671  17.602  69.564  0.00  0.00     0.028 H 
ATOM     41  H17 non d ame      -4.023  17.188  67.869  0.00  0.00     0.028 H 
ATOM     42  H18 non d ame      -4.529  18.764  68.524  0.00  0.00     0.028 H 
ENDBRANCH  33  39
ENDBRANCH   7  33
ENDBRANCH   4   7
ENDBRANCH   1   3
BRANCH   1  43
ATOM     43  C15 non d ame      -8.500  12.017  67.812  0.00  0.00     0.240 C 
ATOM     44  O5  non d ame      -9.521  12.516  68.164  0.00  0.00    -0.271 OA
ATOM     45  N6  non d ame      -8.528  10.769  66.997  0.00  0.00    -0.355 N 
ATOM     46  H46 non d ame      -7.668  10.338  66.688  0.00  0.00     0.162 HD
BRANCH  45  47
ATOM     47  C20 non d ame      -9.825  10.156  66.638  0.00  0.00     0.013 C 
ATOM     48  H30 non d ame     -10.605  10.673  67.197  0.00  0.00     0.072 H 
BRANCH  47  49
ATOM     49  C21 non d ame      -9.807   8.691  67.012  0.00  0.00    -0.038 C 
ATOM     50  H31 non d ame     -10.678   8.539  67.649  0.00  0.00     0.036 H 
ATOM     51  H32 non d ame      -9.717   8.149  66.070  0.00  0.00     0.036 H 
BRANCH  49  52
ATOM     52  C22 non d ame      -8.574   8.304  67.857  0.00  0.00     0.018 C 
ATOM     53  H33 non d ame      -7.946   7.698  67.204  0.00  0.00     0.048 H 
ATOM     54  H34 non d ame      -8.192   9.239  68.268  0.00  0.00     0.048 H 
BRANCH  52  55
ATOM     55  C23 non d ame      -8.911   7.404  69.079  0.00  0.00     0.259 C 
ATOM     56  O7  non d ame      -9.434   6.349  68.924  0.00  0.00    -0.265 OA
BRANCH  55  57
ATOM     57  O8  non d ame      -8.601   7.863  70.389  0.00  0.00    -0.317 OA
BRANCH  57  58
ATOM     58  C29 non d ame      -8.895   9.245  70.609  0.00  0.00     0.052 C 
ATOM     59  H47 non d ame      -8.316   9.535  71.485  0.00  0.00     0.082 H 
ATOM     60  H48 non d ame      -8.719   9.739  69.653  0.00  0.00     0.082 H 
BRANCH  58  61
ATOM     61  C35 non d ame     -10.403   9.365  70.954  0.00  0.00    -0.034 A 
ATOM     62  C30 non d ame     -11.199  10.289  70.285  0.00  0.00    -0.075 A 
ATOM     63  C31 non d ame     -12.554  10.397  70.594  0.00  0.00    -0.082 A 
ATOM     64  H49 non d ame     -10.762  10.927  69.518  0.00  0.00     0.084 H 
ATOM     65  C32 non d ame     -13.111   9.578  71.580  0.00  0.00    -0.083 A 
ATOM     66  H50 non d ame     -13.175  11.120  70.067  0.00  0.00     0.083 H 
ATOM     67  C33 non d ame     -12.312   8.660  72.248  0.00  0.00    -0.082 A 
ATOM     68  H51 non d ame     -14.170   9.656  71.829  0.00  0.00     0.083 H 
ATOM     69  C34 non d ame     -10.958   8.547  71.939  0.00  0.00    -0.075 A 
ATOM     70  H52 non d ame     -12.750   8.024  73.019  0.00  0.00     0.083 H 
ATOM     71  H53 non d ame     -10.337   7.823  72.468  0.00  0.00     0.084 H 
ENDBRANCH  58  61
ENDBRANCH  57  58
ENDBRANCH  55  57
ENDBRANCH  52  55
ENDBRANCH  49  52
ENDBRANCH  47  49
BRANCH  47  72
ATOM     72  C24 non d ame     -10.065  10.297  65.137  0.00  0.00    -0.039 C 
ATOM     73  H35 non d ame      -9.116  10.041  64.666  0.00  0.00     0.036 H 
ATOM     74  H36 non d ame     -10.954   9.702  64.928  0.00  0.00     0.036 H 
BRANCH  72  75
ATOM     75  C25 non d ame     -10.403  11.809  64.730  0.00  0.00    -0.001 C 
ATOM     76  C26 non d ame     -11.755  12.313  65.517  0.00  0.00    -0.035 C 
ATOM     77  C27 non d ame     -12.619  12.832  64.612  0.00  0.00     0.085 C 
ATOM     78  H38 non d ame     -12.294  11.456  65.920  0.00  0.00     0.036 H 
ATOM     79  H39 non d ame     -11.520  13.161  66.160  0.00  0.00     0.036 H 
ATOM     80  N5  non d ame     -12.120  12.432  63.245  0.00  0.00    -0.049 N 
ATOM     81  H40 non d ame     -13.572  12.337  64.801  0.00  0.00     0.075 H 
ATOM     82  H41 non d ame     -12.536  13.913  64.717  0.00  0.00     0.075 H 
ATOM     83  C28 non d ame     -10.605  11.917  63.459  0.00  0.00     0.193 C 
ATOM     84  H42 non d ame     -12.687  11.649  62.951  0.00  0.00     0.280 HD
ATOM     85  H43 non d ame     -12.097  13.275  62.690  0.00  0.00     0.280 HD
ATOM     86  H44 non d ame      -9.761  12.546  63.176  0.00  0.00     0.129 H 
ATOM     87  H37 non d ame      -9.527  12.456  64.784  0.00  0.00     0.046 H 
BRANCH  83  88
ATOM     88  O6  non d ame     -10.404  10.679  62.774  0.00  0.00    -0.369 OA
ATOM     89  H45 non d ame     -10.762   9.961  63.300  0.00  0.00     0.212 HD
ENDBRANCH  83  88
ENDBRANCH  72  75
ENDBRANCH  47  72
ENDBRANCH  45  47
ENDBRANCH   1  43
BRANCH   1  90
ATOM     90  C16 non d ame      -6.661  12.112  69.524  0.00  0.00    -0.035 C 
ATOM     91  H21 non d ame      -7.001  12.821  70.279  0.00  0.00     0.037 H 
ATOM     92  H22 non d ame      -7.015  11.082  69.546  0.00  0.00     0.037 H 
BRANCH  90  93
ATOM     93  C17 non d ame      -5.106  12.048  69.649  0.00  0.00    -0.059 C 
ATOM     94  H23 non d ame      -4.692  12.845  69.031  0.00  0.00     0.038 H 
BRANCH  93  95
ATOM     95  C18 non d ame      -4.621  12.280  71.114  0.00  0.00    -0.073 C 
ATOM     96  H24 non d ame      -4.345  11.324  71.562  0.00  0.00     0.028 H 
ATOM     97  H25 non d ame      -3.754  12.941  71.110  0.00  0.00     0.028 H 
ATOM     98  H26 non d ame      -5.422  12.736  71.695  0.00  0.00     0.028 H 
ENDBRANCH  93  95
BRANCH  93  99
ATOM     99  C19 non d ame      -4.568  10.723  69.099  0.00  0.00    -0.073 C 
ATOM    100  H27 non d ame      -3.498  10.657  69.295  0.00  0.00     0.028 H 
ATOM    101  H28 non d ame      -5.080   9.893  69.588  0.00  0.00     0.028 H 
ATOM    102  H29 non d ame      -4.744  10.677  68.025  0.00  0.00     0.028 H 
ENDBRANCH  93  99
ENDBRANCH  90  93
ENDBRANCH   1  90
TORSDOF 26
ENDMDL
MODEL 6
REMARK VINA RESULT:      -6.7      2.379      6.733
REMARK  26 active torsions:
REMARK  status: ('A' for Active; 'I' for Inactive)
REMARK    1  A    between atoms: C2_2  and  C3_3 
REMARK    2  A    between atoms: C4_6  and  C5_7 
REMARK       I    between atoms: C5_7  and  N2_9 
REMARK    3  A    between atoms: N2_9  and  C6_10 
REMARK    4  A    between atoms: C6_10  and  C7_11 
REMARK    5  A    between atoms: C6_10  and  C8_13 
REMARK       I    between atoms: C7_11  and  N3_14 
REMARK    6  A    between atoms: N3_14  and  C9_15 
REMARK    7  A    between atoms: C9_15  and  C10_16 
REMARK    8  A    between atoms: C9_15  and  C11_18 
REMARK       I    between atoms: C10_16  and  N4_21 
REMARK    9  A    between atoms: C11_18  and  C12_19 
REMARK   10  A    between atoms: C11_18  and  C13_20 
REMARK   11  A    between atoms: N4_21  and  C14_22 
REMARK   12  A    between atoms: C14_22  and  C15_23 
REMARK   13  A    between atoms: C14_22  and  C16_25 
REMARK       I    between atoms: C15_23  and  N6_40 
REMARK   14  A    between atoms: C16_25  and  C17_26 
REMARK   15  A    between atoms: C17_26  and  C18_27 
REMARK   16  A    between atoms: C17_26  and  C19_28 
REMARK   17  A    between atoms: C20_29  and  C21_30 
REMARK   18  A    between atoms: C20_29  and  C24_33 
REMARK   19  A    between atoms: C20_29  and  N6_40 
REMARK   20  A    between atoms: C21_30  and  C22_31 
REMARK   21  A    between atoms: C22_31  and  C23_32 
REMARK   22  A    between atoms: C23_32  and  O8_43 
REMARK   23  A    between atoms: C24_33  and  C25_34 
REMARK   24  A    between atoms: C28_38  and  O6_39 
REMARK   25  A    between atoms: C29_42  and  O8_43 
REMARK   26  A    between atoms: C29_42  and  C35_49 
ROOT
ATOM      1  C14 non d ame     -10.918   9.056  69.676  0.00  0.00     0.089 C 
ATOM      2  H20 non d ame     -11.874   8.650  70.005  0.00  0.00     0.087 H 
ENDROOT
BRANCH   1   3
ATOM      3  N4  non d ame     -10.263   8.037  68.869  0.00  0.00    -0.346 N 
ATOM      4  C10 non d ame     -10.725   6.603  68.931  0.00  0.00     0.241 C 
ATOM      5  O4  non d ame     -11.625   6.293  69.640  0.00  0.00    -0.271 OA
ATOM      6  H19 non d ame      -9.497   8.322  68.274  0.00  0.00     0.163 HD
BRANCH   4   7
ATOM      7  C9  non d ame     -10.040   5.563  68.085  0.00  0.00     0.092 C 
ATOM      8  H11 non d ame     -10.761   5.135  67.389  0.00  0.00     0.088 H 
BRANCH   7   9
ATOM      9  N3  non d ame      -8.990   6.198  67.283  0.00  0.00    -0.346 N 
ATOM     10  C7  non d ame      -8.851   5.870  65.886  0.00  0.00     0.240 C 
ATOM     11  O3  non d ame      -9.575   5.095  65.391  0.00  0.00    -0.271 OA
ATOM     12  H10 non d ame      -8.357   6.867  67.698  0.00  0.00     0.163 HD
BRANCH  10  13
ATOM     13  C6  non d ame      -7.729   6.547  65.040  0.00  0.00     0.086 C 
ATOM     14  H6  non d ame      -7.274   5.866  64.321  0.00  0.00     0.086 H 
BRANCH  13  15
ATOM     15  N2  non d ame      -8.311   7.635  64.271  0.00  0.00    -0.343 N 
ATOM     16  C5  non d ame      -8.916   8.770  64.972  0.00  0.00     0.273 C 
ATOM     17  O2  non d ame      -8.931   8.797  66.154  0.00  0.00    -0.266 OA
ATOM     18  H5  non d ame      -8.296   7.603  63.262  0.00  0.00     0.163 HD
BRANCH  16  19
ATOM     19  C4  non d ame      -9.533   9.929  64.173  0.00  0.00     0.154 A 
ATOM     20  C1  non d ame     -10.566  10.821  64.602  0.00  0.00    -0.017 A 
ATOM     21  C2  non d ame     -10.770  11.694  63.510  0.00  0.00     0.077 A 
ATOM     22  H1  non d ame     -11.088  10.834  65.559  0.00  0.00     0.091 H 
ATOM     23  O1  non d ame      -9.943  11.337  62.569  0.00  0.00    -0.218 OA
ATOM     24  N1  non d ame      -9.212  10.308  62.933  0.00  0.00    -0.123 NA
BRANCH  21  25
ATOM     25  C3  non d ame     -11.768  12.841  63.446  0.00  0.00    -0.029 C 
ATOM     26  H2  non d ame     -11.993  13.185  64.457  0.00  0.00     0.036 H 
ATOM     27  H3  non d ame     -11.342  13.662  62.870  0.00  0.00     0.036 H 
ATOM     28  H4  non d ame     -12.686  12.499  62.967  0.00  0.00     0.036 H 
ENDBRANCH  21  25
ENDBRANCH  16  19
ENDBRANCH  13  15
BRANCH  13  29
ATOM     29  C8  non d ame      -6.656   7.079  65.955  0.00  0.00    -0.049 C 
ATOM     30  H7  non d ame      -7.090   7.313  66.927  0.00  0.00     0.030 H 
ATOM     31  H8  non d ame      -5.877   6.325  66.077  0.00  0.00     0.030 H 
ATOM     32  H9  non d ame      -6.225   7.981  65.524  0.00  0.00     0.030 H 
ENDBRANCH  13  29
ENDBRANCH  10  13
ENDBRANCH   7   9
BRANCH   7  33
ATOM     33  C11 non d ame      -9.404   4.481  69.007  0.00  0.00    -0.033 C 
ATOM     34  H12 non d ame     -10.031   4.396  69.894  0.00  0.00     0.042 H 
BRANCH  33  35
ATOM     35  C12 non d ame      -9.381   3.084  68.312  0.00  0.00    -0.071 C 
ATOM     36  H13 non d ame      -9.587   2.309  69.050  0.00  0.00     0.028 H 
ATOM     37  H14 non d ame     -10.141   3.054  67.532  0.00  0.00     0.028 H 
ATOM     38  H15 non d ame      -8.400   2.915  67.869  0.00  0.00     0.028 H 
ENDBRANCH  33  35
BRANCH  33  39
ATOM     39  C13 non d ame      -7.973   4.910  69.465  0.00  0.00    -0.071 C 
ATOM     40  H16 non d ame      -7.530   5.561  68.712  0.00  0.00     0.028 H 
ATOM     41  H17 non d ame      -8.039   5.443  70.414  0.00  0.00     0.028 H 
ATOM     42  H18 non d ame      -7.352   4.023  69.589  0.00  0.00     0.028 H 
ENDBRANCH  33  39
ENDBRANCH   7  33
ENDBRANCH   4   7
ENDBRANCH   1   3
BRANCH   1  43
ATOM     43  C15 non d ame     -11.090  10.338  68.811  0.00  0.00     0.240 C 
ATOM     44  O5  non d ame     -11.625  10.268  67.751  0.00  0.00    -0.271 OA
ATOM     45  N6  non d ame     -10.597  11.654  69.307  0.00  0.00    -0.355 N 
ATOM     46  H46 non d ame     -10.145  11.726  70.207  0.00  0.00     0.162 HD
BRANCH  45  47
ATOM     47  C20 non d ame     -10.769  12.863  68.473  0.00  0.00     0.013 C 
ATOM     48  H30 non d ame     -10.843  12.545  67.433  0.00  0.00     0.072 H 
BRANCH  47  49
ATOM     49  C21 non d ame      -9.572  13.769  68.652  0.00  0.00    -0.038 C 
ATOM     50  H31 non d ame      -9.896  14.755  68.317  0.00  0.00     0.036 H 
ATOM     51  H32 non d ame      -9.245  13.624  69.683  0.00  0.00     0.036 H 
BRANCH  49  52
ATOM     52  C22 non d ame      -8.380  13.372  67.756  0.00  0.00     0.018 C 
ATOM     53  H33 non d ame      -7.998  12.437  68.169  0.00  0.00     0.048 H 
ATOM     54  H34 non d ame      -8.756  13.402  66.733  0.00  0.00     0.048 H 
BRANCH  52  55
ATOM     55  C23 non d ame      -7.196  14.377  67.808  0.00  0.00     0.259 C 
ATOM     56  O7  non d ame      -6.167  14.124  67.270  0.00  0.00    -0.265 OA
BRANCH  55  57
ATOM     57  O8  non d ame      -7.350  15.600  68.518  0.00  0.00    -0.317 OA
BRANCH  57  58
ATOM     58  C29 non d ame      -7.001  16.762  67.760  0.00  0.00     0.052 C 
ATOM     59  H47 non d ame      -6.306  17.324  68.383  0.00  0.00     0.082 H 
ATOM     60  H48 non d ame      -6.683  16.394  66.785  0.00  0.00     0.082 H 
BRANCH  58  61
ATOM     61  C35 non d ame      -8.286  17.612  67.568  0.00  0.00    -0.034 A 
ATOM     62  C30 non d ame      -8.565  18.658  68.440  0.00  0.00    -0.075 A 
ATOM     63  C31 non d ame      -9.719  19.422  68.269  0.00  0.00    -0.082 A 
ATOM     64  H49 non d ame      -7.881  18.881  69.258  0.00  0.00     0.084 H 
ATOM     65  C32 non d ame     -10.596  19.133  67.220  0.00  0.00    -0.083 A 
ATOM     66  H50 non d ame      -9.934  20.242  68.953  0.00  0.00     0.083 H 
ATOM     67  C33 non d ame     -10.316  18.085  66.353  0.00  0.00    -0.082 A 
ATOM     68  H51 non d ame     -11.501  19.724  67.078  0.00  0.00     0.083 H 
ATOM     69  C34 non d ame      -9.162  17.321  66.521  0.00  0.00    -0.075 A 
ATOM     70  H52 non d ame     -11.003  17.861  65.538  0.00  0.00     0.083 H 
ATOM     71  H53 non d ame      -8.947  16.500  65.835  0.00  0.00     0.084 H 
ENDBRANCH  58  61
ENDBRANCH  57  58
ENDBRANCH  55  57
ENDBRANCH  52  55
ENDBRANCH  49  52
ENDBRANCH  47  49
BRANCH  47  72
ATOM     72  C24 non d ame     -12.037  13.603  68.893  0.00  0.00    -0.039 C 
ATOM     73  H35 non d ame     -12.111  14.458  68.221  0.00  0.00     0.036 H 
ATOM     74  H36 non d ame     -12.824  12.849  68.903  0.00  0.00     0.036 H 
BRANCH  72  75
ATOM     75  C25 non d ame     -11.919  14.181  70.383  0.00  0.00    -0.001 C 
ATOM     76  C26 non d ame     -12.949  13.376  71.380  0.00  0.00    -0.035 C 
ATOM     77  C27 non d ame     -13.696  14.278  72.058  0.00  0.00     0.085 C 
ATOM     78  H38 non d ame     -13.684  12.826  70.793  0.00  0.00     0.036 H 
ATOM     79  H39 non d ame     -12.388  12.867  72.165  0.00  0.00     0.036 H 
ATOM     80  N5  non d ame     -13.501  15.612  71.380  0.00  0.00    -0.049 N 
ATOM     81  H40 non d ame     -14.731  13.960  71.925  0.00  0.00     0.075 H 
ATOM     82  H41 non d ame     -13.263  14.322  73.058  0.00  0.00     0.075 H 
ATOM     83  C28 non d ame     -12.213  15.439  70.420  0.00  0.00     0.193 C 
ATOM     84  H42 non d ame     -14.315  15.761  70.801  0.00  0.00     0.280 HD
ATOM     85  H43 non d ame     -13.272  16.274  72.107  0.00  0.00     0.280 HD
ATOM     86  H44 non d ame     -11.249  15.860  70.706  0.00  0.00     0.129 H 
ATOM     87  H37 non d ame     -10.884  14.274  70.709  0.00  0.00     0.046 H 
BRANCH  83  88
ATOM     88  O6  non d ame     -12.492  15.967  69.123  0.00  0.00    -0.369 OA
ATOM     89  H45 non d ame     -13.363  16.368  69.121  0.00  0.00     0.212 HD
ENDBRANCH  83  88
ENDBRANCH  72  75
ENDBRANCH  47  72
ENDBRANCH  45  47
ENDBRANCH   1  43
BRANCH   1  90
ATOM     90  C16 non d ame     -10.048   9.368  70.884  0.00  0.00    -0.035 C 
ATOM     91  H21 non d ame      -9.076   8.929  70.660  0.00  0.00     0.037 H 
ATOM     92  H22 non d ame     -10.138  10.443  71.034  0.00  0.00     0.037 H 
BRANCH  90  93
ATOM     93  C17 non d ame     -10.543   8.694  72.202  0.00  0.00    -0.059 C 
ATOM     94  H23 non d ame     -10.291   9.360  73.028  0.00  0.00     0.038 H 
BRANCH  93  95
ATOM     95  C18 non d ame     -12.090   8.484  72.214  0.00  0.00    -0.073 C 
ATOM     96  H24 non d ame     -12.515   8.864  71.284  0.00  0.00     0.028 H 
ATOM     97  H25 non d ame     -12.311   7.420  72.305  0.00  0.00     0.028 H 
ATOM     98  H26 non d ame     -12.524   9.019  73.058  0.00  0.00     0.028 H 
ENDBRANCH  93  95
BRANCH  93  99
ATOM     99  C19 non d ame      -9.811   7.372  72.448  0.00  0.00    -0.073 C 
ATOM    100  H27 non d ame     -10.058   6.999  73.442  0.00  0.00     0.028 H 
ATOM    101  H28 non d ame     -10.118   6.642  71.699  0.00  0.00     0.028 H 
ATOM    102  H29 non d ame      -8.736   7.534  72.378  0.00  0.00     0.028 H 
ENDBRANCH  93  99
ENDBRANCH  90  93
ENDBRANCH   1  90
TORSDOF 26
ENDMDL
MODEL 7
REMARK VINA RESULT:      -6.7      2.534      6.228
REMARK  26 active torsions:
REMARK  status: ('A' for Active; 'I' for Inactive)
REMARK    1  A    between atoms: C2_2  and  C3_3 
REMARK    2  A    between atoms: C4_6  and  C5_7 
REMARK       I    between atoms: C5_7  and  N2_9 
REMARK    3  A    between atoms: N2_9  and  C6_10 
REMARK    4  A    between atoms: C6_10  and  C7_11 
REMARK    5  A    between atoms: C6_10  and  C8_13 
REMARK       I    between atoms: C7_11  and  N3_14 
REMARK    6  A    between atoms: N3_14  and  C9_15 
REMARK    7  A    between atoms: C9_15  and  C10_16 
REMARK    8  A    between atoms: C9_15  and  C11_18 
REMARK       I    between atoms: C10_16  and  N4_21 
REMARK    9  A    between atoms: C11_18  and  C12_19 
REMARK   10  A    between atoms: C11_18  and  C13_20 
REMARK   11  A    between atoms: N4_21  and  C14_22 
REMARK   12  A    between atoms: C14_22  and  C15_23 
REMARK   13  A    between atoms: C14_22  and  C16_25 
REMARK       I    between atoms: C15_23  and  N6_40 
REMARK   14  A    between atoms: C16_25  and  C17_26 
REMARK   15  A    between atoms: C17_26  and  C18_27 
REMARK   16  A    between atoms: C17_26  and  C19_28 
REMARK   17  A    between atoms: C20_29  and  C21_30 
REMARK   18  A    between atoms: C20_29  and  C24_33 
REMARK   19  A    between atoms: C20_29  and  N6_40 
REMARK   20  A    between atoms: C21_30  and  C22_31 
REMARK   21  A    between atoms: C22_31  and  C23_32 
REMARK   22  A    between atoms: C23_32  and  O8_43 
REMARK   23  A    between atoms: C24_33  and  C25_34 
REMARK   24  A    between atoms: C28_38  and  O6_39 
REMARK   25  A    between atoms: C29_42  and  O8_43 
REMARK   26  A    between atoms: C29_42  and  C35_49 
ROOT
ATOM      1  C14 non d ame     -10.621   9.152  70.554  0.00  0.00     0.089 C 
ATOM      2  H20 non d ame     -10.814   8.342  69.851  0.00  0.00     0.087 H 
ENDROOT
BRANCH   1   3
ATOM      3  N4  non d ame      -9.310   9.701  70.243  0.00  0.00    -0.346 N 
ATOM      4  C10 non d ame      -8.273   8.851  69.551  0.00  0.00     0.241 C 
ATOM      5  O4  non d ame      -8.518   7.727  69.257  0.00  0.00    -0.271 OA
ATOM      6  H19 non d ame      -9.121  10.659  70.504  0.00  0.00     0.163 HD
BRANCH   4   7
ATOM      7  C9  non d ame      -6.923   9.436  69.232  0.00  0.00     0.092 C 
ATOM      8  H11 non d ame      -6.173   8.646  69.264  0.00  0.00     0.088 H 
BRANCH   7   9
ATOM      9  N3  non d ame      -6.931   9.969  67.866  0.00  0.00    -0.346 N 
ATOM     10  C7  non d ame      -6.347   9.207  66.791  0.00  0.00     0.240 C 
ATOM     11  O3  non d ame      -5.863   8.163  67.007  0.00  0.00    -0.271 OA
ATOM     12  H10 non d ame      -7.343  10.869  67.665  0.00  0.00     0.163 HD
BRANCH  10  13
ATOM     13  C6  non d ame      -6.356   9.781  65.340  0.00  0.00     0.086 C 
ATOM     14  H6  non d ame      -6.410   9.003  64.578  0.00  0.00     0.086 H 
BRANCH  13  15
ATOM     15  N2  non d ame      -7.536  10.612  65.170  0.00  0.00    -0.343 N 
ATOM     16  C5  non d ame      -8.709  10.065  64.483  0.00  0.00     0.273 C 
ATOM     17  O2  non d ame      -8.692   8.958  64.070  0.00  0.00    -0.266 OA
ATOM     18  H5  non d ame      -7.542  11.557  65.524  0.00  0.00     0.163 HD
BRANCH  16  19
ATOM     19  C4  non d ame      -9.965  10.931  64.298  0.00  0.00     0.154 A 
ATOM     20  C1  non d ame     -10.601  11.753  65.282  0.00  0.00    -0.017 A 
ATOM     21  C2  non d ame     -11.703  12.333  64.614  0.00  0.00     0.077 A 
ATOM     22  H1  non d ame     -10.308  11.906  66.321  0.00  0.00     0.091 H 
ATOM     23  O1  non d ame     -11.692  11.890  63.390  0.00  0.00    -0.218 OA
ATOM     24  N1  non d ame     -10.687  11.070  63.183  0.00  0.00    -0.123 NA
BRANCH  21  25
ATOM     25  C3  non d ame     -12.715  13.299  65.215  0.00  0.00    -0.029 C 
ATOM     26  H2  non d ame     -13.725  12.928  65.034  0.00  0.00     0.036 H 
ATOM     27  H3  non d ame     -12.546  13.380  66.289  0.00  0.00     0.036 H 
ATOM     28  H4  non d ame     -12.600  14.280  64.755  0.00  0.00     0.036 H 
ENDBRANCH  21  25
ENDBRANCH  16  19
ENDBRANCH  13  15
BRANCH  13  29
ATOM     29  C8  non d ame      -5.111  10.601  65.113  0.00  0.00    -0.049 C 
ATOM     30  H7  non d ame      -4.485  10.112  64.367  0.00  0.00     0.030 H 
ATOM     31  H8  non d ame      -5.391  11.594  64.758  0.00  0.00     0.030 H 
ATOM     32  H9  non d ame      -4.559  10.691  66.047  0.00  0.00     0.030 H 
ENDBRANCH  13  29
ENDBRANCH  10  13
ENDBRANCH   7   9
BRANCH   7  33
ATOM     33  C11 non d ame      -6.605  10.586  70.233  0.00  0.00    -0.033 C 
ATOM     34  H12 non d ame      -7.468  10.696  70.890  0.00  0.00     0.042 H 
BRANCH  33  35
ATOM     35  C12 non d ame      -5.375  10.237  71.127  0.00  0.00    -0.071 C 
ATOM     36  H13 non d ame      -4.475  10.215  70.513  0.00  0.00     0.028 H 
ATOM     37  H14 non d ame      -5.266  10.992  71.905  0.00  0.00     0.028 H 
ATOM     38  H15 non d ame      -5.527   9.261  71.588  0.00  0.00     0.028 H 
ENDBRANCH  33  35
BRANCH  33  39
ATOM     39  C13 non d ame      -6.394  11.939  69.481  0.00  0.00    -0.071 C 
ATOM     40  H16 non d ame      -6.237  11.744  68.420  0.00  0.00     0.028 H 
ATOM     41  H17 non d ame      -7.275  12.568  69.609  0.00  0.00     0.028 H 
ATOM     42  H18 non d ame      -5.521  12.448  69.889  0.00  0.00     0.028 H 
ENDBRANCH  33  39
ENDBRANCH   7  33
ENDBRANCH   4   7
ENDBRANCH   1   3
BRANCH   1  43
ATOM     43  C15 non d ame     -11.674  10.292  70.440  0.00  0.00     0.240 C 
ATOM     44  O5  non d ame     -12.825  10.055  70.627  0.00  0.00    -0.271 OA
ATOM     45  N6  non d ame     -11.248  11.681  70.107  0.00  0.00    -0.355 N 
ATOM     46  H46 non d ame     -10.274  11.896  69.951  0.00  0.00     0.162 HD
BRANCH  45  47
ATOM     47  C20 non d ame     -12.262  12.753  70.004  0.00  0.00     0.013 C 
ATOM     48  H30 non d ame     -13.135  12.341  69.499  0.00  0.00     0.072 H 
BRANCH  47  49
ATOM     49  C21 non d ame     -11.695  13.901  69.199  0.00  0.00    -0.038 C 
ATOM     50  H31 non d ame     -12.324  13.979  68.313  0.00  0.00     0.036 H 
ATOM     51  H32 non d ame     -11.624  14.740  69.894  0.00  0.00     0.036 H 
BRANCH  49  52
ATOM     52  C22 non d ame     -10.261  13.630  68.695  0.00  0.00     0.018 C 
ATOM     53  H33 non d ame      -9.599  13.941  69.505  0.00  0.00     0.048 H 
ATOM     54  H34 non d ame     -10.258  12.594  68.357  0.00  0.00     0.048 H 
BRANCH  52  55
ATOM     55  C23 non d ame      -9.859  14.486  67.462  0.00  0.00     0.259 C 
ATOM     56  O7  non d ame      -8.804  14.330  66.939  0.00  0.00    -0.265 OA
BRANCH  55  57
ATOM     57  O8  non d ame     -10.762  15.469  66.971  0.00  0.00    -0.317 OA
BRANCH  57  58
ATOM     58  C29 non d ame     -10.179  16.380  66.035  0.00  0.00     0.052 C 
ATOM     59  H47 non d ame      -9.172  16.008  65.848  0.00  0.00     0.082 H 
ATOM     60  H48 non d ame     -10.893  16.455  65.214  0.00  0.00     0.082 H 
BRANCH  58  61
ATOM     61  C35 non d ame     -10.071  17.768  66.720  0.00  0.00    -0.034 A 
ATOM     62  C30 non d ame     -10.404  18.920  66.016  0.00  0.00    -0.075 A 
ATOM     63  C31 non d ame     -10.307  20.167  66.631  0.00  0.00    -0.082 A 
ATOM     64  H49 non d ame     -10.741  18.847  64.983  0.00  0.00     0.084 H 
ATOM     65  C32 non d ame      -9.873  20.259  67.956  0.00  0.00    -0.083 A 
ATOM     66  H50 non d ame     -10.571  21.068  66.078  0.00  0.00     0.083 H 
ATOM     67  C33 non d ame      -9.538  19.107  68.655  0.00  0.00    -0.082 A 
ATOM     68  H51 non d ame      -9.794  21.230  68.446  0.00  0.00     0.083 H 
ATOM     69  C34 non d ame      -9.636  17.858  68.044  0.00  0.00    -0.075 A 
ATOM     70  H52 non d ame      -9.197  19.182  69.688  0.00  0.00     0.083 H 
ATOM     71  H53 non d ame      -9.372  16.957  68.599  0.00  0.00     0.084 H 
ENDBRANCH  58  61
ENDBRANCH  57  58
ENDBRANCH  55  57
ENDBRANCH  52  55
ENDBRANCH  49  52
ENDBRANCH  47  49
BRANCH  47  72
ATOM     72  C24 non d ame     -12.637  13.245  71.400  0.00  0.00    -0.039 C 
ATOM     73  H35 non d ame     -13.596  12.778  71.624  0.00  0.00     0.036 H 
ATOM     74  H36 non d ame     -11.769  13.035  72.025  0.00  0.00     0.036 H 
BRANCH  72  75
ATOM     75  C25 non d ame     -12.866  14.831  71.428  0.00  0.00    -0.001 C 
ATOM     76  C26 non d ame     -11.722  15.546  72.369  0.00  0.00    -0.035 C 
ATOM     77  C27 non d ame     -12.337  16.352  73.266  0.00  0.00     0.085 C 
ATOM     78  H38 non d ame     -11.231  14.799  72.992  0.00  0.00     0.036 H 
ATOM     79  H39 non d ame     -11.125  16.236  71.772  0.00  0.00     0.036 H 
ATOM     80  N5  non d ame     -13.805  16.004  73.240  0.00  0.00    -0.049 N 
ATOM     81  H40 non d ame     -11.924  16.077  74.237  0.00  0.00     0.075 H 
ATOM     82  H41 non d ame     -12.206  17.365  72.885  0.00  0.00     0.075 H 
ATOM     83  C28 non d ame     -14.030  15.126  71.903  0.00  0.00     0.193 C 
ATOM     84  H42 non d ame     -13.975  15.415  74.043  0.00  0.00     0.280 HD
ATOM     85  H43 non d ame     -14.305  16.876  73.139  0.00  0.00     0.280 HD
ATOM     86  H44 non d ame     -14.498  15.568  71.023  0.00  0.00     0.129 H 
ATOM     87  H37 non d ame     -13.017  15.243  70.431  0.00  0.00     0.046 H 
BRANCH  83  88
ATOM     88  O6  non d ame     -14.802  13.962  72.203  0.00  0.00    -0.369 OA
ATOM     89  H45 non d ame     -15.736  14.181  72.170  0.00  0.00     0.212 HD
ENDBRANCH  83  88
ENDBRANCH  72  75
ENDBRANCH  47  72
ENDBRANCH  45  47
ENDBRANCH   1  43
BRANCH   1  90
ATOM     90  C16 non d ame     -10.608   8.609  71.974  0.00  0.00    -0.035 C 
ATOM     91  H21 non d ame      -9.699   9.006  72.427  0.00  0.00     0.037 H 
ATOM     92  H22 non d ame     -11.581   8.867  72.391  0.00  0.00     0.037 H 
BRANCH  90  93
ATOM     93  C17 non d ame     -10.494   7.053  72.049  0.00  0.00    -0.059 C 
ATOM     94  H23 non d ame      -9.491   6.780  71.721  0.00  0.00     0.038 H 
BRANCH  93  95
ATOM     95  C18 non d ame     -10.684   6.516  73.502  0.00  0.00    -0.073 C 
ATOM     96  H24 non d ame     -11.688   6.760  73.851  0.00  0.00     0.028 H 
ATOM     97  H25 non d ame     -10.551   5.434  73.510  0.00  0.00     0.028 H 
ATOM     98  H26 non d ame      -9.948   6.977  74.160  0.00  0.00     0.028 H 
ENDBRANCH  93  95
BRANCH  93  99
ATOM     99  C19 non d ame     -11.481   6.387  71.087  0.00  0.00    -0.073 C 
ATOM    100  H27 non d ame     -10.972   5.597  70.534  0.00  0.00     0.028 H 
ATOM    101  H28 non d ame     -12.308   5.959  71.654  0.00  0.00     0.028 H 
ATOM    102  H29 non d ame     -11.865   7.129  70.389  0.00  0.00     0.028 H 
ENDBRANCH  93  99
ENDBRANCH  90  93
ENDBRANCH   1  90
TORSDOF 26
ENDMDL
MODEL 8
REMARK VINA RESULT:      -6.7      2.478     10.280
REMARK  26 active torsions:
REMARK  status: ('A' for Active; 'I' for Inactive)
REMARK    1  A    between atoms: C2_2  and  C3_3 
REMARK    2  A    between atoms: C4_6  and  C5_7 
REMARK       I    between atoms: C5_7  and  N2_9 
REMARK    3  A    between atoms: N2_9  and  C6_10 
REMARK    4  A    between atoms: C6_10  and  C7_11 
REMARK    5  A    between atoms: C6_10  and  C8_13 
REMARK       I    between atoms: C7_11  and  N3_14 
REMARK    6  A    between atoms: N3_14  and  C9_15 
REMARK    7  A    between atoms: C9_15  and  C10_16 
REMARK    8  A    between atoms: C9_15  and  C11_18 
REMARK       I    between atoms: C10_16  and  N4_21 
REMARK    9  A    between atoms: C11_18  and  C12_19 
REMARK   10  A    between atoms: C11_18  and  C13_20 
REMARK   11  A    between atoms: N4_21  and  C14_22 
REMARK   12  A    between atoms: C14_22  and  C15_23 
REMARK   13  A    between atoms: C14_22  and  C16_25 
REMARK       I    between atoms: C15_23  and  N6_40 
REMARK   14  A    between atoms: C16_25  and  C17_26 
REMARK   15  A    between atoms: C17_26  and  C18_27 
REMARK   16  A    between atoms: C17_26  and  C19_28 
REMARK   17  A    between atoms: C20_29  and  C21_30 
REMARK   18  A    between atoms: C20_29  and  C24_33 
REMARK   19  A    between atoms: C20_29  and  N6_40 
REMARK   20  A    between atoms: C21_30  and  C22_31 
REMARK   21  A    between atoms: C22_31  and  C23_32 
REMARK   22  A    between atoms: C23_32  and  O8_43 
REMARK   23  A    between atoms: C24_33  and  C25_34 
REMARK   24  A    between atoms: C28_38  and  O6_39 
REMARK   25  A    between atoms: C29_42  and  O8_43 
REMARK   26  A    between atoms: C29_42  and  C35_49 
ROOT
ATOM      1  C14 non d ame     -11.982  13.894  69.741  0.00  0.00     0.089 C 
ATOM      2  H20 non d ame     -13.005  13.526  69.664  0.00  0.00     0.087 H 
ENDROOT
BRANCH   1   3
ATOM      3  N4  non d ame     -11.101  12.736  69.779  0.00  0.00    -0.346 N 
ATOM      4  C10 non d ame     -11.292  11.601  68.805  0.00  0.00     0.241 C 
ATOM      5  O4  non d ame     -12.164  11.640  68.001  0.00  0.00    -0.271 OA
ATOM      6  H19 non d ame     -10.366  12.721  70.473  0.00  0.00     0.163 HD
BRANCH   4   7
ATOM      7  C9  non d ame     -10.368  10.413  68.856  0.00  0.00     0.092 C 
ATOM      8  H11 non d ame      -9.652  10.549  69.666  0.00  0.00     0.088 H 
BRANCH   7   9
ATOM      9  N3  non d ame     -11.140   9.205  69.161  0.00  0.00    -0.346 N 
ATOM     10  C7  non d ame     -11.176   8.692  70.508  0.00  0.00     0.240 C 
ATOM     11  O3  non d ame     -10.587   9.239  71.359  0.00  0.00    -0.271 OA
ATOM     12  H10 non d ame     -11.652   8.722  68.436  0.00  0.00     0.163 HD
BRANCH  10  13
ATOM     13  C6  non d ame     -11.997   7.404  70.825  0.00  0.00     0.086 C 
ATOM     14  H6  non d ame     -12.803   7.231  70.112  0.00  0.00     0.086 H 
BRANCH  13  15
ATOM     15  N2  non d ame     -11.115   6.252  70.743  0.00  0.00    -0.343 N 
ATOM     16  C5  non d ame     -10.783   5.690  69.432  0.00  0.00     0.273 C 
ATOM     17  O2  non d ame     -11.232   6.171  68.450  0.00  0.00    -0.266 OA
ATOM     18  H5  non d ame     -10.738   5.845  71.587  0.00  0.00     0.163 HD
BRANCH  16  19
ATOM     19  C4  non d ame      -9.851   4.473  69.329  0.00  0.00     0.154 A 
ATOM     20  C1  non d ame      -9.186   3.989  68.158  0.00  0.00    -0.017 A 
ATOM     21  C2  non d ame      -8.458   2.859  68.593  0.00  0.00     0.077 A 
ATOM     22  H1  non d ame      -9.225   4.395  67.147  0.00  0.00     0.091 H 
ATOM     23  O1  non d ame      -8.683   2.720  69.867  0.00  0.00    -0.218 OA
ATOM     24  N1  non d ame      -9.494   3.650  70.319  0.00  0.00    -0.123 NA
BRANCH  21  25
ATOM     25  C3  non d ame      -7.572   1.971  67.731  0.00  0.00    -0.029 C 
ATOM     26  H2  non d ame      -6.524   2.192  67.937  0.00  0.00     0.036 H 
ATOM     27  H3  non d ame      -7.773   0.925  67.960  0.00  0.00     0.036 H 
ATOM     28  H4  non d ame      -7.782   2.159  66.677  0.00  0.00     0.036 H 
ENDBRANCH  21  25
ENDBRANCH  16  19
ENDBRANCH  13  15
BRANCH  13  29
ATOM     29  C8  non d ame     -12.584   7.507  72.210  0.00  0.00    -0.049 C 
ATOM     30  H7  non d ame     -13.471   6.877  72.277  0.00  0.00     0.030 H 
ATOM     31  H8  non d ame     -11.847   7.175  72.942  0.00  0.00     0.030 H 
ATOM     32  H9  non d ame     -12.858   8.541  72.413  0.00  0.00     0.030 H 
ENDBRANCH  13  29
ENDBRANCH  10  13
ENDBRANCH   7   9
BRANCH   7  33
ATOM     33  C11 non d ame      -9.666  10.242  67.476  0.00  0.00    -0.033 C 
ATOM     34  H12 non d ame     -10.434  10.315  66.706  0.00  0.00     0.042 H 
BRANCH  33  35
ATOM     35  C12 non d ame      -8.634  11.384  67.219  0.00  0.00    -0.071 C 
ATOM     36  H13 non d ame      -7.922  11.423  68.044  0.00  0.00     0.028 H 
ATOM     37  H14 non d ame      -8.100  11.189  66.289  0.00  0.00     0.028 H 
ATOM     38  H15 non d ame      -9.158  12.336  67.144  0.00  0.00     0.028 H 
ENDBRANCH  33  35
BRANCH  33  39
ATOM     39  C13 non d ame      -8.996   8.836  67.360  0.00  0.00    -0.071 C 
ATOM     40  H16 non d ame      -9.472   8.272  66.558  0.00  0.00     0.028 H 
ATOM     41  H17 non d ame      -7.935   8.955  67.142  0.00  0.00     0.028 H 
ATOM     42  H18 non d ame      -9.115   8.299  68.301  0.00  0.00     0.028 H 
ENDBRANCH  33  39
ENDBRANCH   7  33
ENDBRANCH   4   7
ENDBRANCH   1   3
BRANCH   1  43
ATOM     43  C15 non d ame     -11.583  14.779  68.525  0.00  0.00     0.240 C 
ATOM     44  O5  non d ame     -12.429  15.266  67.845  0.00  0.00    -0.271 OA
ATOM     45  N6  non d ame     -10.147  15.028  68.213  0.00  0.00    -0.355 N 
ATOM     46  H46 non d ame      -9.420  14.624  68.785  0.00  0.00     0.162 HD
BRANCH  45  47
ATOM     47  C20 non d ame      -9.785  15.873  67.055  0.00  0.00     0.013 C 
ATOM     48  H30 non d ame     -10.616  16.551  66.861  0.00  0.00     0.072 H 
BRANCH  47  49
ATOM     49  C21 non d ame      -9.546  14.993  65.849  0.00  0.00    -0.038 C 
ATOM     50  H31 non d ame      -8.747  15.476  65.285  0.00  0.00     0.036 H 
ATOM     51  H32 non d ame      -9.404  13.986  66.243  0.00  0.00     0.036 H 
BRANCH  49  52
ATOM     52  C22 non d ame     -10.766  14.924  64.905  0.00  0.00     0.018 C 
ATOM     53  H33 non d ame     -11.584  15.404  65.444  0.00  0.00     0.048 H 
ATOM     54  H34 non d ame     -10.426  15.332  63.953  0.00  0.00     0.048 H 
BRANCH  52  55
ATOM     55  C23 non d ame     -11.243  13.476  64.606  0.00  0.00     0.259 C 
ATOM     56  O7  non d ame     -12.260  13.069  65.067  0.00  0.00    -0.265 OA
BRANCH  55  57
ATOM     57  O8  non d ame     -10.444  12.634  63.784  0.00  0.00    -0.317 OA
BRANCH  57  58
ATOM     58  C29 non d ame     -10.555  11.241  64.094  0.00  0.00     0.052 C 
ATOM     59  H47 non d ame     -10.376  11.161  65.165  0.00  0.00     0.082 H 
ATOM     60  H48 non d ame     -11.510  10.922  63.675  0.00  0.00     0.082 H 
BRANCH  58  61
ATOM     61  C35 non d ame      -9.418  10.493  63.348  0.00  0.00    -0.034 A 
ATOM     62  C30 non d ame      -8.833  11.061  62.221  0.00  0.00    -0.075 A 
ATOM     63  C31 non d ame      -7.812  10.389  61.552  0.00  0.00    -0.082 A 
ATOM     64  H49 non d ame      -9.174  12.031  61.863  0.00  0.00     0.084 H 
ATOM     65  C32 non d ame      -7.378   9.143  62.012  0.00  0.00    -0.083 A 
ATOM     66  H50 non d ame      -7.354  10.837  60.670  0.00  0.00     0.083 H 
ATOM     67  C33 non d ame      -7.967   8.578  63.135  0.00  0.00    -0.082 A 
ATOM     68  H51 non d ame      -6.580   8.610  61.494  0.00  0.00     0.083 H 
ATOM     69  C34 non d ame      -8.986   9.248  63.808  0.00  0.00    -0.075 A 
ATOM     70  H52 non d ame      -7.628   7.604  63.490  0.00  0.00     0.083 H 
ATOM     71  H53 non d ame      -9.444   8.798  64.691  0.00  0.00     0.084 H 
ENDBRANCH  58  61
ENDBRANCH  57  58
ENDBRANCH  55  57
ENDBRANCH  52  55
ENDBRANCH  49  52
ENDBRANCH  47  49
BRANCH  47  72
ATOM     72  C24 non d ame      -8.517  16.664  67.369  0.00  0.00    -0.039 C 
ATOM     73  H35 non d ame      -8.135  16.243  68.299  0.00  0.00     0.036 H 
ATOM     74  H36 non d ame      -7.914  16.618  66.462  0.00  0.00     0.036 H 
BRANCH  72  75
ATOM     75  C25 non d ame      -8.836  18.209  67.646  0.00  0.00    -0.001 C 
ATOM     76  C26 non d ame     -10.462  18.455  67.649  0.00  0.00    -0.035 C 
ATOM     77  C27 non d ame     -10.751  19.480  66.813  0.00  0.00     0.085 C 
ATOM     78  H38 non d ame     -10.969  17.604  67.193  0.00  0.00     0.036 H 
ATOM     79  H39 non d ame     -10.784  18.822  68.624  0.00  0.00     0.036 H 
ATOM     80  N5  non d ame      -9.511  19.743  65.993  0.00  0.00    -0.049 N 
ATOM     81  H40 non d ame     -11.539  19.109  66.157  0.00  0.00     0.075 H 
ATOM     82  H41 non d ame     -10.937  20.338  67.458  0.00  0.00     0.075 H 
ATOM     83  C28 non d ame      -8.310  18.965  66.741  0.00  0.00     0.193 C 
ATOM     84  H42 non d ame      -9.664  19.308  65.094  0.00  0.00     0.280 HD
ATOM     85  H43 non d ame      -9.335  20.736  66.049  0.00  0.00     0.280 HD
ATOM     86  H44 non d ame      -7.582  19.514  67.339  0.00  0.00     0.129 H 
ATOM     87  H37 non d ame      -8.274  18.601  68.494  0.00  0.00     0.046 H 
BRANCH  83  88
ATOM     88  O6  non d ame      -7.542  18.219  65.795  0.00  0.00    -0.369 OA
ATOM     89  H45 non d ame      -6.950  18.811  65.326  0.00  0.00     0.212 HD
ENDBRANCH  83  88
ENDBRANCH  72  75
ENDBRANCH  47  72
ENDBRANCH  45  47
ENDBRANCH   1  43
BRANCH   1  90
ATOM     90  C16 non d ame     -11.815  14.688  71.028  0.00  0.00    -0.035 C 
ATOM     91  H21 non d ame     -11.228  14.048  71.687  0.00  0.00     0.037 H 
ATOM     92  H22 non d ame     -11.425  15.657  70.720  0.00  0.00     0.037 H 
BRANCH  90  93
ATOM     93  C17 non d ame     -13.161  14.968  71.769  0.00  0.00    -0.059 C 
ATOM     94  H23 non d ame     -13.819  15.490  71.074  0.00  0.00     0.038 H 
BRANCH  93  95
ATOM     95  C18 non d ame     -13.878  13.652  72.208  0.00  0.00    -0.073 C 
ATOM     96  H24 non d ame     -14.035  13.016  71.336  0.00  0.00     0.028 H 
ATOM     97  H25 non d ame     -13.259  13.125  72.934  0.00  0.00     0.028 H 
ATOM     98  H26 non d ame     -14.840  13.895  72.659  0.00  0.00     0.028 H 
ENDBRANCH  93  95
BRANCH  93  99
ATOM     99  C19 non d ame     -12.941  15.895  72.968  0.00  0.00    -0.073 C 
ATOM    100  H27 non d ame     -12.324  16.740  72.664  0.00  0.00     0.028 H 
ATOM    101  H28 non d ame     -13.904  16.258  73.328  0.00  0.00     0.028 H 
ATOM    102  H29 non d ame     -12.439  15.346  73.764  0.00  0.00     0.028 H 
ENDBRANCH  93  99
ENDBRANCH  90  93
ENDBRANCH   1  90
TORSDOF 26
ENDMDL
MODEL 9
REMARK VINA RESULT:      -6.7      2.689      7.690
REMARK  26 active torsions:
REMARK  status: ('A' for Active; 'I' for Inactive)
REMARK    1  A    between atoms: C2_2  and  C3_3 
REMARK    2  A    between atoms: C4_6  and  C5_7 
REMARK       I    between atoms: C5_7  and  N2_9 
REMARK    3  A    between atoms: N2_9  and  C6_10 
REMARK    4  A    between atoms: C6_10  and  C7_11 
REMARK    5  A    between atoms: C6_10  and  C8_13 
REMARK       I    between atoms: C7_11  and  N3_14 
REMARK    6  A    between atoms: N3_14  and  C9_15 
REMARK    7  A    between atoms: C9_15  and  C10_16 
REMARK    8  A    between atoms: C9_15  and  C11_18 
REMARK       I    between atoms: C10_16  and  N4_21 
REMARK    9  A    between atoms: C11_18  and  C12_19 
REMARK   10  A    between atoms: C11_18  and  C13_20 
REMARK   11  A    between atoms: N4_21  and  C14_22 
REMARK   12  A    between atoms: C14_22  and  C15_23 
REMARK   13  A    between atoms: C14_22  and  C16_25 
REMARK       I    between atoms: C15_23  and  N6_40 
REMARK   14  A    between atoms: C16_25  and  C17_26 
REMARK   15  A    between atoms: C17_26  and  C18_27 
REMARK   16  A    between atoms: C17_26  and  C19_28 
REMARK   17  A    between atoms: C20_29  and  C21_30 
REMARK   18  A    between atoms: C20_29  and  C24_33 
REMARK   19  A    between atoms: C20_29  and  N6_40 
REMARK   20  A    between atoms: C21_30  and  C22_31 
REMARK   21  A    between atoms: C22_31  and  C23_32 
REMARK   22  A    between atoms: C23_32  and  O8_43 
REMARK   23  A    between atoms: C24_33  and  C25_34 
REMARK   24  A    between atoms: C28_38  and  O6_39 
REMARK   25  A    between atoms: C29_42  and  O8_43 
REMARK   26  A    between atoms: C29_42  and  C35_49 
ROOT
ATOM      1  C14 non d ame      -7.707  10.014  69.266  0.00  0.00     0.089 C 
ATOM      2  H20 non d ame      -7.632  10.512  70.232  0.00  0.00     0.087 H 
ENDROOT
BRANCH   1   3
ATOM      3  N4  non d ame      -8.599   8.875  69.428  0.00  0.00    -0.346 N 
ATOM      4  C10 non d ame      -9.095   8.485  70.797  0.00  0.00     0.241 C 
ATOM      5  O4  non d ame      -8.760   9.101  71.755  0.00  0.00    -0.271 OA
ATOM      6  H19 non d ame      -8.869   8.363  68.600  0.00  0.00     0.163 HD
BRANCH   4   7
ATOM      7  C9  non d ame     -10.022   7.307  70.946  0.00  0.00     0.092 C 
ATOM      8  H11 non d ame      -9.801   6.792  71.880  0.00  0.00     0.088 H 
BRANCH   7   9
ATOM      9  N3  non d ame     -11.406   7.782  71.031  0.00  0.00    -0.346 N 
ATOM     10  C7  non d ame     -12.023   7.980  72.319  0.00  0.00     0.240 C 
ATOM     11  O3  non d ame     -11.420   7.760  73.298  0.00  0.00    -0.271 OA
ATOM     12  H10 non d ame     -11.939   7.974  70.195  0.00  0.00     0.163 HD
BRANCH  10  13
ATOM     13  C6  non d ame     -13.498   8.483  72.403  0.00  0.00     0.086 C 
ATOM     14  H6  non d ame     -14.033   8.079  73.262  0.00  0.00     0.086 H 
BRANCH  13  15
ATOM     15  N2  non d ame     -13.495   9.928  72.556  0.00  0.00    -0.343 N 
ATOM     16  C5  non d ame     -13.045  10.770  71.446  0.00  0.00     0.273 C 
ATOM     17  O2  non d ame     -12.685  10.275  70.435  0.00  0.00    -0.266 OA
ATOM     18  H5  non d ame     -13.801  10.343  73.424  0.00  0.00     0.163 HD
BRANCH  16  19
ATOM     19  C4  non d ame     -13.038  12.300  71.593  0.00  0.00     0.154 A 
ATOM     20  C1  non d ame     -12.297  13.241  70.810  0.00  0.00    -0.017 A 
ATOM     21  C2  non d ame     -12.637  14.505  71.342  0.00  0.00     0.077 A 
ATOM     22  H1  non d ame     -11.616  13.038  69.982  0.00  0.00     0.091 H 
ATOM     23  O1  non d ame     -13.477  14.302  72.315  0.00  0.00    -0.218 OA
ATOM     24  N1  non d ame     -13.726  13.023  72.481  0.00  0.00    -0.123 NA
BRANCH  21  25
ATOM     25  C3  non d ame     -12.118  15.853  70.862  0.00  0.00    -0.029 C 
ATOM     26  H2  non d ame     -12.960  16.492  70.590  0.00  0.00     0.036 H 
ATOM     27  H3  non d ame     -11.547  16.327  71.660  0.00  0.00     0.036 H 
ATOM     28  H4  non d ame     -11.477  15.709  69.993  0.00  0.00     0.036 H 
ENDBRANCH  21  25
ENDBRANCH  16  19
ENDBRANCH  13  15
BRANCH  13  29
ATOM     29  C8  non d ame     -14.235   8.100  71.145  0.00  0.00    -0.049 C 
ATOM     30  H7  non d ame     -13.859   8.690  70.309  0.00  0.00     0.030 H 
ATOM     31  H8  non d ame     -14.077   7.039  70.940  0.00  0.00     0.030 H 
ATOM     32  H9  non d ame     -15.299   8.291  71.275  0.00  0.00     0.030 H 
ENDBRANCH  13  29
ENDBRANCH  10  13
ENDBRANCH   7   9
BRANCH   7  33
ATOM     33  C11 non d ame      -9.872   6.370  69.711  0.00  0.00    -0.033 C 
ATOM     34  H12 non d ame      -9.087   6.783  69.078  0.00  0.00     0.042 H 
BRANCH  33  35
ATOM     35  C12 non d ame      -9.426   4.937  70.137  0.00  0.00    -0.071 C 
ATOM     36  H13 non d ame      -9.065   4.394  69.263  0.00  0.00     0.028 H 
ATOM     37  H14 non d ame      -8.627   5.009  70.875  0.00  0.00     0.028 H 
ATOM     38  H15 non d ame     -10.274   4.407  70.571  0.00  0.00     0.028 H 
ENDBRANCH  33  35
BRANCH  33  39
ATOM     39  C13 non d ame     -11.193   6.328  68.878  0.00  0.00    -0.071 C 
ATOM     40  H16 non d ame     -10.998   5.869  67.910  0.00  0.00     0.028 H 
ATOM     41  H17 non d ame     -11.943   5.745  69.413  0.00  0.00     0.028 H 
ATOM     42  H18 non d ame     -11.561   7.344  68.731  0.00  0.00     0.028 H 
ENDBRANCH  33  39
ENDBRANCH   7  33
ENDBRANCH   4   7
ENDBRANCH   1   3
BRANCH   1  43
ATOM     43  C15 non d ame      -8.289  10.947  68.166  0.00  0.00     0.240 C 
ATOM     44  O5  non d ame      -7.894  10.861  67.048  0.00  0.00    -0.271 OA
ATOM     45  N6  non d ame      -9.345  11.943  68.504  0.00  0.00    -0.355 N 
ATOM     46  H46 non d ame      -9.692  12.022  69.450  0.00  0.00     0.162 HD
BRANCH  45  47
ATOM     47  C20 non d ame      -9.890  12.822  67.447  0.00  0.00     0.013 C 
ATOM     48  H30 non d ame      -9.410  12.551  66.507  0.00  0.00     0.072 H 
BRANCH  47  49
ATOM     49  C21 non d ame      -9.583  14.263  67.787  0.00  0.00    -0.038 C 
ATOM     50  H31 non d ame     -10.535  14.705  68.081  0.00  0.00     0.036 H 
ATOM     51  H32 non d ame      -8.755  14.227  68.497  0.00  0.00     0.036 H 
BRANCH  49  52
ATOM     52  C22 non d ame      -9.080  15.072  66.572  0.00  0.00     0.018 C 
ATOM     53  H33 non d ame      -8.188  15.597  66.915  0.00  0.00     0.048 H 
ATOM     54  H34 non d ame      -9.011  14.358  65.751  0.00  0.00     0.048 H 
BRANCH  52  55
ATOM     55  C23 non d ame     -10.071  16.173  66.101  0.00  0.00     0.259 C 
ATOM     56  O7  non d ame     -10.475  16.182  64.984  0.00  0.00    -0.265 OA
BRANCH  55  57
ATOM     57  O8  non d ame     -10.479  17.181  67.017  0.00  0.00    -0.317 OA
BRANCH  57  58
ATOM     58  C29 non d ame     -10.319  18.515  66.526  0.00  0.00     0.052 C 
ATOM     59  H47 non d ame     -10.208  18.421  65.447  0.00  0.00     0.082 H 
ATOM     60  H48 non d ame     -11.153  19.083  66.940  0.00  0.00     0.082 H 
BRANCH  58  61
ATOM     61  C35 non d ame      -8.999  19.085  67.109  0.00  0.00    -0.034 A 
ATOM     62  C30 non d ame      -8.592  18.728  68.390  0.00  0.00    -0.075 A 
ATOM     63  C31 non d ame      -7.407  19.240  68.915  0.00  0.00    -0.082 A 
ATOM     64  H49 non d ame      -9.202  18.047  68.984  0.00  0.00     0.084 H 
ATOM     65  C32 non d ame      -6.627  20.115  68.153  0.00  0.00    -0.083 A 
ATOM     66  H50 non d ame      -7.090  18.957  69.918  0.00  0.00     0.083 H 
ATOM     67  C33 non d ame      -7.039  20.472  66.876  0.00  0.00    -0.082 A 
ATOM     68  H51 non d ame      -5.699  20.520  68.555  0.00  0.00     0.083 H 
ATOM     69  C34 non d ame      -8.222  19.960  66.347  0.00  0.00    -0.075 A 
ATOM     70  H52 non d ame      -6.430  21.156  66.285  0.00  0.00     0.083 H 
ATOM     71  H53 non d ame      -8.538  20.244  65.342  0.00  0.00     0.084 H 
ENDBRANCH  58  61
ENDBRANCH  57  58
ENDBRANCH  55  57
ENDBRANCH  52  55
ENDBRANCH  49  52
ENDBRANCH  47  49
BRANCH  47  72
ATOM     72  C24 non d ame     -11.401  12.632  67.346  0.00  0.00    -0.039 C 
ATOM     73  H35 non d ame     -11.633  11.791  67.999  0.00  0.00     0.036 H 
ATOM     74  H36 non d ame     -11.831  13.614  67.547  0.00  0.00     0.036 H 
BRANCH  72  75
ATOM     75  C25 non d ame     -11.848  12.216  65.864  0.00  0.00    -0.001 C 
ATOM     76  C26 non d ame     -10.521  11.911  64.943  0.00  0.00    -0.035 C 
ATOM     77  C27 non d ame     -10.612  12.624  63.795  0.00  0.00     0.085 C 
ATOM     78  H38 non d ame      -9.631  12.316  65.424  0.00  0.00     0.036 H 
ATOM     79  H39 non d ame     -10.533  10.875  64.602  0.00  0.00     0.036 H 
ATOM     80  N5  non d ame     -11.716  13.635  63.990  0.00  0.00    -0.049 N 
ATOM     81  H40 non d ame      -9.662  13.149  63.701  0.00  0.00     0.075 H 
ATOM     82  H41 non d ame     -10.919  11.909  63.032  0.00  0.00     0.075 H 
ATOM     83  C28 non d ame     -12.530  13.158  65.301  0.00  0.00     0.193 C 
ATOM     84  H42 non d ame     -11.264  14.515  64.196  0.00  0.00     0.280 HD
ATOM     85  H43 non d ame     -12.323  13.556  63.188  0.00  0.00     0.280 HD
ATOM     86  H44 non d ame     -13.500  12.669  65.202  0.00  0.00     0.129 H 
ATOM     87  H37 non d ame     -12.635  11.462  65.867  0.00  0.00     0.046 H 
BRANCH  83  88
ATOM     88  O6  non d ame     -12.747  14.265  66.176  0.00  0.00    -0.369 OA
ATOM     89  H45 non d ame     -13.547  14.727  65.915  0.00  0.00     0.212 HD
ENDBRANCH  83  88
ENDBRANCH  72  75
ENDBRANCH  47  72
ENDBRANCH  45  47
ENDBRANCH   1  43
BRANCH   1  90
ATOM     90  C16 non d ame      -6.335   9.514  68.839  0.00  0.00    -0.035 C 
ATOM     91  H21 non d ame      -6.490   8.480  68.526  0.00  0.00     0.037 H 
ATOM     92  H22 non d ame      -5.970  10.250  68.123  0.00  0.00     0.037 H 
BRANCH  90  93
ATOM     93  C17 non d ame      -5.293   9.472  70.001  0.00  0.00    -0.059 C 
ATOM     94  H23 non d ame      -4.300   9.511  69.555  0.00  0.00     0.038 H 
BRANCH  93  95
ATOM     95  C18 non d ame      -5.433  10.693  70.963  0.00  0.00    -0.073 C 
ATOM     96  H24 non d ame      -4.442  11.068  71.222  0.00  0.00     0.028 H 
ATOM     97  H25 non d ame      -6.001  11.482  70.470  0.00  0.00     0.028 H 
ATOM     98  H26 non d ame      -5.954  10.385  71.870  0.00  0.00     0.028 H 
ENDBRANCH  93  95
BRANCH  93  99
ATOM     99  C19 non d ame      -5.391   8.154  70.775  0.00  0.00    -0.073 C 
ATOM    100  H27 non d ame      -4.728   7.417  70.322  0.00  0.00     0.028 H 
ATOM    101  H28 non d ame      -5.098   8.319  71.812  0.00  0.00     0.028 H 
ATOM    102  H29 non d ame      -6.417   7.788  70.740  0.00  0.00     0.028 H 
ENDBRANCH  93  99
ENDBRANCH  90  93
ENDBRANCH   1  90
TORSDOF 26
ENDMDL
MODEL 10
REMARK VINA RESULT:      -6.6      2.739     10.361
REMARK  26 active torsions:
REMARK  status: ('A' for Active; 'I' for Inactive)
REMARK    1  A    between atoms: C2_2  and  C3_3 
REMARK    2  A    between atoms: C4_6  and  C5_7 
REMARK       I    between atoms: C5_7  and  N2_9 
REMARK    3  A    between atoms: N2_9  and  C6_10 
REMARK    4  A    between atoms: C6_10  and  C7_11 
REMARK    5  A    between atoms: C6_10  and  C8_13 
REMARK       I    between atoms: C7_11  and  N3_14 
REMARK    6  A    between atoms: N3_14  and  C9_15 
REMARK    7  A    between atoms: C9_15  and  C10_16 
REMARK    8  A    between atoms: C9_15  and  C11_18 
REMARK       I    between atoms: C10_16  and  N4_21 
REMARK    9  A    between atoms: C11_18  and  C12_19 
REMARK   10  A    between atoms: C11_18  and  C13_20 
REMARK   11  A    between atoms: N4_21  and  C14_22 
REMARK   12  A    between atoms: C14_22  and  C15_23 
REMARK   13  A    between atoms: C14_22  and  C16_25 
REMARK       I    between atoms: C15_23  and  N6_40 
REMARK   14  A    between atoms: C16_25  and  C17_26 
REMARK   15  A    between atoms: C17_26  and  C18_27 
REMARK   16  A    between atoms: C17_26  and  C19_28 
REMARK   17  A    between atoms: C20_29  and  C21_30 
REMARK   18  A    between atoms: C20_29  and  C24_33 
REMARK   19  A    between atoms: C20_29  and  N6_40 
REMARK   20  A    between atoms: C21_30  and  C22_31 
REMARK   21  A    between atoms: C22_31  and  C23_32 
REMARK   22  A    between atoms: C23_32  and  O8_43 
REMARK   23  A    between atoms: C24_33  and  C25_34 
REMARK   24  A    between atoms: C28_38  and  O6_39 
REMARK   25  A    between atoms: C29_42  and  O8_43 
REMARK   26  A    between atoms: C29_42  and  C35_49 
ROOT
ATOM      1  C14 non d ame     -12.132  13.630  69.477  0.00  0.00     0.089 C 
ATOM      2  H20 non d ame     -13.060  13.280  69.026  0.00  0.00     0.087 H 
ENDROOT
BRANCH   1   3
ATOM      3  N4  non d ame     -11.445  12.471  70.026  0.00  0.00    -0.346 N 
ATOM      4  C10 non d ame     -11.396  11.178  69.251  0.00  0.00     0.241 C 
ATOM      5  O4  non d ame     -11.919  11.094  68.188  0.00  0.00    -0.271 OA
ATOM      6  H19 non d ame     -11.008  12.562  70.932  0.00  0.00     0.163 HD
BRANCH   4   7
ATOM      7  C9  non d ame     -10.676   9.989  69.831  0.00  0.00     0.092 C 
ATOM      8  H11 non d ame     -10.318  10.239  70.830  0.00  0.00     0.088 H 
BRANCH   7   9
ATOM      9  N3  non d ame     -11.613   8.871  69.974  0.00  0.00    -0.346 N 
ATOM     10  C7  non d ame     -12.263   8.632  71.238  0.00  0.00     0.240 C 
ATOM     11  O3  non d ame     -12.042   9.329  72.153  0.00  0.00    -0.271 OA
ATOM     12  H10 non d ame     -11.812   8.261  69.194  0.00  0.00     0.163 HD
BRANCH  10  13
ATOM     13  C6  non d ame     -13.257   7.439  71.385  0.00  0.00     0.086 C 
ATOM     14  H6  non d ame     -13.368   6.866  70.464  0.00  0.00     0.086 H 
BRANCH  13  15
ATOM     15  N2  non d ame     -12.745   6.519  72.387  0.00  0.00    -0.343 N 
ATOM     16  C5  non d ame     -11.504   5.786  72.124  0.00  0.00     0.273 C 
ATOM     17  O2  non d ame     -10.928   5.941  71.104  0.00  0.00    -0.266 OA
ATOM     18  H5  non d ame     -13.244   6.390  73.255  0.00  0.00     0.163 HD
BRANCH  16  19
ATOM     19  C4  non d ame     -10.949   4.812  73.176  0.00  0.00     0.154 A 
ATOM     20  C1  non d ame     -10.435   3.495  72.948  0.00  0.00    -0.017 A 
ATOM     21  C2  non d ame     -10.057   3.026  74.226  0.00  0.00     0.077 A 
ATOM     22  H1  non d ame     -10.350   2.961  72.001  0.00  0.00     0.091 H 
ATOM     23  O1  non d ame     -10.325   3.971  75.080  0.00  0.00    -0.218 OA
ATOM     24  N1  non d ame     -10.846   5.023  74.491  0.00  0.00    -0.123 NA
BRANCH  21  25
ATOM     25  C3  non d ame      -9.448   1.668  74.544  0.00  0.00    -0.029 C 
ATOM     26  H2  non d ame     -10.050   0.882  74.087  0.00  0.00     0.036 H 
ATOM     27  H3  non d ame      -8.433   1.624  74.149  0.00  0.00     0.036 H 
ATOM     28  H4  non d ame      -9.422   1.524  75.625  0.00  0.00     0.036 H 
ENDBRANCH  21  25
ENDBRANCH  16  19
ENDBRANCH  13  15
BRANCH  13  29
ATOM     29  C8  non d ame     -14.610   7.955  71.803  0.00  0.00    -0.049 C 
ATOM     30  H7  non d ame     -14.519   8.487  72.751  0.00  0.00     0.030 H 
ATOM     31  H8  non d ame     -14.991   8.635  71.040  0.00  0.00     0.030 H 
ATOM     32  H9  non d ame     -15.298   7.119  71.922  0.00  0.00     0.030 H 
ENDBRANCH  13  29
ENDBRANCH  10  13
ENDBRANCH   7   9
BRANCH   7  33
ATOM     33  C11 non d ame      -9.515   9.571  68.881  0.00  0.00    -0.033 C 
ATOM     34  H12 non d ame      -9.393  10.364  68.143  0.00  0.00     0.042 H 
BRANCH  33  35
ATOM     35  C12 non d ame      -8.166   9.440  69.656  0.00  0.00    -0.071 C 
ATOM     36  H13 non d ame      -8.170   8.518  70.238  0.00  0.00     0.028 H 
ATOM     37  H14 non d ame      -7.340   9.417  68.945  0.00  0.00     0.028 H 
ATOM     38  H15 non d ame      -8.047  10.292  70.324  0.00  0.00     0.028 H 
ENDBRANCH  33  35
BRANCH  33  39
ATOM     39  C13 non d ame      -9.862   8.252  68.121  0.00  0.00    -0.071 C 
ATOM     40  H16 non d ame     -10.075   7.463  68.841  0.00  0.00     0.028 H 
ATOM     41  H17 non d ame     -10.736   8.415  67.490  0.00  0.00     0.028 H 
ATOM     42  H18 non d ame      -9.016   7.958  67.500  0.00  0.00     0.028 H 
ENDBRANCH  33  39
ENDBRANCH   7  33
ENDBRANCH   4   7
ENDBRANCH   1   3
BRANCH   1  43
ATOM     43  C15 non d ame     -11.196  14.316  68.440  0.00  0.00     0.240 C 
ATOM     44  O5  non d ame     -10.257  14.943  68.814  0.00  0.00    -0.271 OA
ATOM     45  N6  non d ame     -11.465  14.184  66.980  0.00  0.00    -0.355 N 
ATOM     46  H46 non d ame     -12.256  13.651  66.650  0.00  0.00     0.162 HD
BRANCH  45  47
ATOM     47  C20 non d ame     -10.565  14.840  66.007  0.00  0.00     0.013 C 
ATOM     48  H30 non d ame      -9.566  14.869  66.441  0.00  0.00     0.072 H 
BRANCH  47  49
ATOM     49  C21 non d ame     -11.054  16.247  65.744  0.00  0.00    -0.038 C 
ATOM     50  H31 non d ame     -11.334  16.269  64.690  0.00  0.00     0.036 H 
ATOM     51  H32 non d ame     -11.802  16.446  66.512  0.00  0.00     0.036 H 
BRANCH  49  52
ATOM     52  C22 non d ame      -9.948  17.309  65.925  0.00  0.00     0.018 C 
ATOM     53  H33 non d ame      -9.011  16.755  65.978  0.00  0.00     0.048 H 
ATOM     54  H34 non d ame     -10.106  18.039  65.131  0.00  0.00     0.048 H 
BRANCH  52  55
ATOM     55  C23 non d ame     -10.053  18.099  67.260  0.00  0.00     0.259 C 
ATOM     56  O7  non d ame     -11.114  18.420  67.688  0.00  0.00    -0.265 OA
BRANCH  55  57
ATOM     57  O8  non d ame      -8.865  18.447  67.959  0.00  0.00    -0.317 OA
BRANCH  57  58
ATOM     58  C29 non d ame      -8.642  19.856  68.066  0.00  0.00     0.052 C 
ATOM     59  H47 non d ame      -9.514  20.328  67.615  0.00  0.00     0.082 H 
ATOM     60  H48 non d ame      -8.406  20.038  69.115  0.00  0.00     0.082 H 
BRANCH  58  61
ATOM     61  C35 non d ame      -7.395  20.210  67.214  0.00  0.00    -0.034 A 
ATOM     62  C30 non d ame      -6.290  20.806  67.811  0.00  0.00    -0.075 A 
ATOM     63  C31 non d ame      -5.169  21.125  67.046  0.00  0.00    -0.082 A 
ATOM     64  H49 non d ame      -6.301  21.025  68.878  0.00  0.00     0.084 H 
ATOM     65  C32 non d ame      -5.158  20.846  65.676  0.00  0.00    -0.083 A 
ATOM     66  H50 non d ame      -4.304  21.591  67.517  0.00  0.00     0.083 H 
ATOM     67  C33 non d ame      -6.264  20.253  65.083  0.00  0.00    -0.082 A 
ATOM     68  H51 non d ame      -4.286  21.091  65.070  0.00  0.00     0.083 H 
ATOM     69  C34 non d ame      -7.385  19.931  65.846  0.00  0.00    -0.075 A 
ATOM     70  H52 non d ame      -6.253  20.039  64.014  0.00  0.00     0.083 H 
ATOM     71  H53 non d ame      -8.251  19.465  65.373  0.00  0.00     0.084 H 
ENDBRANCH  58  61
ENDBRANCH  57  58
ENDBRANCH  55  57
ENDBRANCH  52  55
ENDBRANCH  49  52
ENDBRANCH  47  49
BRANCH  47  72
ATOM     72  C24 non d ame     -10.554  14.051  64.700  0.00  0.00    -0.039 C 
ATOM     73  H35 non d ame     -11.226  14.588  64.031  0.00  0.00     0.036 H 
ATOM     74  H36 non d ame      -9.502  13.936  64.439  0.00  0.00     0.036 H 
BRANCH  72  75
ATOM     75  C25 non d ame     -11.156  12.578  64.892  0.00  0.00    -0.001 C 
ATOM     76  C26 non d ame      -9.934  11.491  65.065  0.00  0.00    -0.035 C 
ATOM     77  C27 non d ame     -10.126  10.475  64.191  0.00  0.00     0.085 C 
ATOM     78  H38 non d ame      -8.993  11.933  64.739  0.00  0.00     0.036 H 
ATOM     79  H39 non d ame     -10.000  11.006  66.040  0.00  0.00     0.036 H 
ATOM     80  N5  non d ame     -11.185  10.927  63.215  0.00  0.00    -0.049 N 
ATOM     81  H40 non d ame      -9.180  10.361  63.662  0.00  0.00     0.075 H 
ATOM     82  H41 non d ame     -10.521   9.651  64.786  0.00  0.00     0.075 H 
ATOM     83  C28 non d ame     -11.872  12.230  63.876  0.00  0.00     0.193 C 
ATOM     84  H42 non d ame     -10.698  11.211  62.376  0.00  0.00     0.280 HD
ATOM     85  H43 non d ame     -11.871  10.188  63.173  0.00  0.00     0.280 HD
ATOM     86  H44 non d ame     -12.856  12.161  64.340  0.00  0.00     0.129 H 
ATOM     87  H37 non d ame     -11.952  12.552  65.636  0.00  0.00     0.046 H 
BRANCH  83  88
ATOM     88  O6  non d ame     -11.979  13.275  62.908  0.00  0.00    -0.369 OA
ATOM     89  H45 non d ame     -12.813  13.194  62.440  0.00  0.00     0.212 HD
ENDBRANCH  83  88
ENDBRANCH  72  75
ENDBRANCH  47  72
ENDBRANCH  45  47
ENDBRANCH   1  43
BRANCH   1  90
ATOM     90  C16 non d ame     -12.444  14.602  70.605  0.00  0.00    -0.035 C 
ATOM     91  H21 non d ame     -11.555  14.605  71.237  0.00  0.00     0.037 H 
ATOM     92  H22 non d ame     -12.765  15.520  70.114  0.00  0.00     0.037 H 
BRANCH  90  93
ATOM     93  C17 non d ame     -13.629  14.148  71.513  0.00  0.00    -0.059 C 
ATOM     94  H23 non d ame     -13.998  13.198  71.125  0.00  0.00     0.038 H 
BRANCH  93  95
ATOM     95  C18 non d ame     -13.185  13.918  72.993  0.00  0.00    -0.073 C 
ATOM     96  H24 non d ame     -12.441  14.666  73.269  0.00  0.00     0.028 H 
ATOM     97  H25 non d ame     -14.050  14.008  73.650  0.00  0.00     0.028 H 
ATOM     98  H26 non d ame     -12.755  12.922  73.093  0.00  0.00     0.028 H 
ENDBRANCH  93  95
BRANCH  93  99
ATOM     99  C19 non d ame     -14.787  15.147  71.441  0.00  0.00    -0.073 C 
ATOM    100  H27 non d ame     -14.893  15.506  70.417  0.00  0.00     0.028 H 
ATOM    101  H28 non d ame     -15.710  14.657  71.752  0.00  0.00     0.028 H 
ATOM    102  H29 non d ame     -14.582  15.989  72.101  0.00  0.00     0.028 H 
ENDBRANCH  93  99
ENDBRANCH  90  93
ENDBRANCH   1  90
TORSDOF 26
ENDMDL
MODEL 11
REMARK VINA RESULT:      -6.5      2.152      8.039
REMARK  26 active torsions:
REMARK  status: ('A' for Active; 'I' for Inactive)
REMARK    1  A    between atoms: C2_2  and  C3_3 
REMARK    2  A    between atoms: C4_6  and  C5_7 
REMARK       I    between atoms: C5_7  and  N2_9 
REMARK    3  A    between atoms: N2_9  and  C6_10 
REMARK    4  A    between atoms: C6_10  and  C7_11 
REMARK    5  A    between atoms: C6_10  and  C8_13 
REMARK       I    between atoms: C7_11  and  N3_14 
REMARK    6  A    between atoms: N3_14  and  C9_15 
REMARK    7  A    between atoms: C9_15  and  C10_16 
REMARK    8  A    between atoms: C9_15  and  C11_18 
REMARK       I    between atoms: C10_16  and  N4_21 
REMARK    9  A    between atoms: C11_18  and  C12_19 
REMARK   10  A    between atoms: C11_18  and  C13_20 
REMARK   11  A    between atoms: N4_21  and  C14_22 
REMARK   12  A    between atoms: C14_22  and  C15_23 
REMARK   13  A    between atoms: C14_22  and  C16_25 
REMARK       I    between atoms: C15_23  and  N6_40 
REMARK   14  A    between atoms: C16_25  and  C17_26 
REMARK   15  A    between atoms: C17_26  and  C18_27 
REMARK   16  A    between atoms: C17_26  and  C19_28 
REMARK   17  A    between atoms: C20_29  and  C21_30 
REMARK   18  A    between atoms: C20_29  and  C24_33 
REMARK   19  A    between atoms: C20_29  and  N6_40 
REMARK   20  A    between atoms: C21_30  and  C22_31 
REMARK   21  A    between atoms: C22_31  and  C23_32 
REMARK   22  A    between atoms: C23_32  and  O8_43 
REMARK   23  A    between atoms: C24_33  and  C25_34 
REMARK   24  A    between atoms: C28_38  and  O6_39 
REMARK   25  A    between atoms: C29_42  and  O8_43 
REMARK   26  A    between atoms: C29_42  and  C35_49 
ROOT
ATOM      1  C14 non d ame      -9.123  10.882  65.500  0.00  0.00     0.089 C 
ATOM      2  H20 non d ame      -8.486  10.868  64.616  0.00  0.00     0.087 H 
ENDROOT
BRANCH   1   3
ATOM      3  N4  non d ame      -8.848   9.672  66.259  0.00  0.00    -0.346 N 
ATOM      4  C10 non d ame      -8.517   8.385  65.547  0.00  0.00     0.241 C 
ATOM      5  O4  non d ame      -8.481   8.347  64.361  0.00  0.00    -0.271 OA
ATOM      6  H19 non d ame      -8.886   9.725  67.268  0.00  0.00     0.163 HD
BRANCH   4   7
ATOM      7  C9  non d ame      -8.229   7.143  66.349  0.00  0.00     0.092 C 
ATOM      8  H11 non d ame      -7.168   6.903  66.271  0.00  0.00     0.088 H 
BRANCH   7   9
ATOM      9  N3  non d ame      -8.511   7.398  67.764  0.00  0.00    -0.346 N 
ATOM     10  C7  non d ame      -7.606   6.917  68.779  0.00  0.00     0.240 C 
ATOM     11  O3  non d ame      -6.646   6.321  68.473  0.00  0.00    -0.271 OA
ATOM     12  H10 non d ame      -9.336   7.909  68.043  0.00  0.00     0.163 HD
BRANCH  10  13
ATOM     13  C6  non d ame      -7.914   7.189  70.284  0.00  0.00     0.086 C 
ATOM     14  H6  non d ame      -7.488   8.128  70.639  0.00  0.00     0.086 H 
BRANCH  13  15
ATOM     15  N2  non d ame      -9.353   7.294  70.458  0.00  0.00    -0.343 N 
ATOM     16  C5  non d ame      -9.896   8.287  71.388  0.00  0.00     0.273 C 
ATOM     17  O2  non d ame      -9.167   8.994  71.992  0.00  0.00    -0.266 OA
ATOM     18  H5  non d ame      -9.969   6.684  69.940  0.00  0.00     0.163 HD
BRANCH  16  19
ATOM     19  C4  non d ame     -11.416   8.410  71.582  0.00  0.00     0.154 A 
ATOM     20  C1  non d ame     -12.381   7.355  71.537  0.00  0.00    -0.017 A 
ATOM     21  C2  non d ame     -13.622   7.987  71.773  0.00  0.00     0.077 A 
ATOM     22  H1  non d ame     -12.208   6.293  71.360  0.00  0.00     0.091 H 
ATOM     23  O1  non d ame     -13.386   9.257  71.935  0.00  0.00    -0.218 OA
ATOM     24  N1  non d ame     -12.105   9.528  71.827  0.00  0.00    -0.123 NA
BRANCH  21  25
ATOM     25  C3  non d ame     -14.983   7.308  71.831  0.00  0.00    -0.029 C 
ATOM     26  H2  non d ame     -15.757   8.056  72.005  0.00  0.00     0.036 H 
ATOM     27  H3  non d ame     -15.176   6.800  70.886  0.00  0.00     0.036 H 
ATOM     28  H4  non d ame     -14.994   6.579  72.642  0.00  0.00     0.036 H 
ENDBRANCH  21  25
ENDBRANCH  16  19
ENDBRANCH  13  15
BRANCH  13  29
ATOM     29  C8  non d ame      -7.373   6.060  71.123  0.00  0.00    -0.049 C 
ATOM     30  H7  non d ame      -7.022   5.259  70.472  0.00  0.00     0.030 H 
ATOM     31  H8  non d ame      -6.544   6.424  71.731  0.00  0.00     0.030 H 
ATOM     32  H9  non d ame      -8.161   5.681  71.772  0.00  0.00     0.030 H 
ENDBRANCH  13  29
ENDBRANCH  10  13
ENDBRANCH   7   9
BRANCH   7  33
ATOM     33  C11 non d ame      -9.130   5.978  65.844  0.00  0.00    -0.033 C 
ATOM     34  H12 non d ame      -9.387   6.188  64.805  0.00  0.00     0.042 H 
BRANCH  33  35
ATOM     35  C12 non d ame      -8.369   4.616  65.873  0.00  0.00    -0.071 C 
ATOM     36  H13 non d ame      -7.851   4.470  64.926  0.00  0.00     0.028 H 
ATOM     37  H14 non d ame      -7.644   4.623  66.687  0.00  0.00     0.028 H 
ATOM     38  H15 non d ame      -9.081   3.806  66.028  0.00  0.00     0.028 H 
ENDBRANCH  33  35
BRANCH  33  39
ATOM     39  C13 non d ame     -10.458   5.903  66.665  0.00  0.00    -0.071 C 
ATOM     40  H16 non d ame     -10.240   5.567  67.678  0.00  0.00     0.028 H 
ATOM     41  H17 non d ame     -10.920   6.890  66.700  0.00  0.00     0.028 H 
ATOM     42  H18 non d ame     -11.139   5.200  66.187  0.00  0.00     0.028 H 
ENDBRANCH  33  39
ENDBRANCH   7  33
ENDBRANCH   4   7
ENDBRANCH   1   3
BRANCH   1  43
ATOM     43  C15 non d ame      -8.839  12.113  66.409  0.00  0.00     0.240 C 
ATOM     44  O5  non d ame      -8.191  11.981  67.397  0.00  0.00    -0.271 OA
ATOM     45  N6  non d ame      -9.367  13.458  66.043  0.00  0.00    -0.355 N 
ATOM     46  H46 non d ame      -9.915  13.583  65.204  0.00  0.00     0.162 HD
BRANCH  45  47
ATOM     47  C20 non d ame      -9.087  14.618  66.917  0.00  0.00     0.013 C 
ATOM     48  H30 non d ame      -8.066  14.519  67.288  0.00  0.00     0.072 H 
BRANCH  47  49
ATOM     49  C21 non d ame     -10.059  14.618  68.075  0.00  0.00    -0.038 C 
ATOM     50  H31 non d ame      -9.594  14.009  68.850  0.00  0.00     0.036 H 
ATOM     51  H32 non d ame     -10.286  15.668  68.267  0.00  0.00     0.036 H 
BRANCH  49  52
ATOM     52  C22 non d ame     -11.402  13.939  67.730  0.00  0.00     0.018 C 
ATOM     53  H33 non d ame     -12.176  14.646  68.028  0.00  0.00     0.048 H 
ATOM     54  H34 non d ame     -11.317  13.629  66.688  0.00  0.00     0.048 H 
BRANCH  52  55
ATOM     55  C23 non d ame     -11.673  12.642  68.542  0.00  0.00     0.259 C 
ATOM     56  O7  non d ame     -12.026  11.649  67.992  0.00  0.00    -0.265 OA
BRANCH  55  57
ATOM     57  O8  non d ame     -11.508  12.656  69.955  0.00  0.00    -0.317 OA
BRANCH  57  58
ATOM     58  C29 non d ame     -12.731  12.804  70.683  0.00  0.00     0.052 C 
ATOM     59  H47 non d ame     -13.497  13.006  69.936  0.00  0.00     0.082 H 
ATOM     60  H48 non d ame     -12.806  11.919  71.315  0.00  0.00     0.082 H 
BRANCH  58  61
ATOM     61  C35 non d ame     -12.595  14.050  71.598  0.00  0.00    -0.034 A 
ATOM     62  C30 non d ame     -13.132  14.034  72.881  0.00  0.00    -0.075 A 
ATOM     63  C31 non d ame     -13.011  15.154  73.702  0.00  0.00    -0.082 A 
ATOM     64  H49 non d ame     -13.647  13.145  73.242  0.00  0.00     0.084 H 
ATOM     65  C32 non d ame     -12.351  16.294  73.235  0.00  0.00    -0.083 A 
ATOM     66  H50 non d ame     -13.431  15.137  74.708  0.00  0.00     0.083 H 
ATOM     67  C33 non d ame     -11.820  16.307  71.952  0.00  0.00    -0.082 A 
ATOM     68  H51 non d ame     -12.252  17.174  73.871  0.00  0.00     0.083 H 
ATOM     69  C34 non d ame     -11.937  15.189  71.129  0.00  0.00    -0.075 A 
ATOM     70  H52 non d ame     -11.308  17.199  71.590  0.00  0.00     0.083 H 
ATOM     71  H53 non d ame     -11.516  15.206  70.123  0.00  0.00     0.084 H 
ENDBRANCH  58  61
ENDBRANCH  57  58
ENDBRANCH  55  57
ENDBRANCH  52  55
ENDBRANCH  49  52
ENDBRANCH  47  49
BRANCH  47  72
ATOM     72  C24 non d ame      -9.239  15.912  66.121  0.00  0.00    -0.039 C 
ATOM     73  H35 non d ame      -8.410  15.918  65.414  0.00  0.00     0.036 H 
ATOM     74  H36 non d ame     -10.267  15.909  65.756  0.00  0.00     0.036 H 
BRANCH  72  75
ATOM     75  C25 non d ame      -9.074  17.204  67.054  0.00  0.00    -0.001 C 
ATOM     76  C26 non d ame     -10.486  18.046  67.103  0.00  0.00    -0.035 C 
ATOM     77  C27 non d ame     -10.231  19.343  66.809  0.00  0.00     0.085 C 
ATOM     78  H38 non d ame     -11.139  17.725  66.292  0.00  0.00     0.036 H 
ATOM     79  H39 non d ame     -10.864  18.084  68.125  0.00  0.00     0.036 H 
ATOM     80  N5  non d ame      -8.831  19.402  66.247  0.00  0.00    -0.049 N 
ATOM     81  H40 non d ame     -10.940  19.610  66.026  0.00  0.00     0.075 H 
ATOM     82  H41 non d ame     -10.251  19.866  67.765  0.00  0.00     0.075 H 
ATOM     83  C28 non d ame      -8.146  17.985  66.610  0.00  0.00     0.193 C 
ATOM     84  H42 non d ame      -8.928  19.464  65.244  0.00  0.00     0.280 HD
ATOM     85  H43 non d ame      -8.350  20.131  66.753  0.00  0.00     0.280 HD
ATOM     86  H44 non d ame      -7.420  17.913  67.420  0.00  0.00     0.129 H 
ATOM     87  H37 non d ame      -8.605  16.966  68.009  0.00  0.00     0.046 H 
BRANCH  83  88
ATOM     88  O6  non d ame      -7.492  17.446  65.461  0.00  0.00    -0.369 OA
ATOM     89  H45 non d ame      -8.149  17.147  64.829  0.00  0.00     0.212 HD
ENDBRANCH  83  88
ENDBRANCH  72  75
ENDBRANCH  47  72
ENDBRANCH  45  47
ENDBRANCH   1  43
BRANCH   1  90
ATOM     90  C16 non d ame     -10.585  10.884  65.081  0.00  0.00    -0.035 C 
ATOM     91  H21 non d ame     -10.921   9.853  65.201  0.00  0.00     0.037 H 
ATOM     92  H22 non d ame     -11.051  11.679  65.662  0.00  0.00     0.037 H 
BRANCH  90  93
ATOM     93  C17 non d ame     -10.806  11.246  63.578  0.00  0.00    -0.059 C 
ATOM     94  H23 non d ame     -11.328  10.411  63.110  0.00  0.00     0.038 H 
BRANCH  93  95
ATOM     95  C18 non d ame     -11.689  12.521  63.401  0.00  0.00    -0.073 C 
ATOM     96  H24 non d ame     -12.259  12.443  62.475  0.00  0.00     0.028 H 
ATOM     97  H25 non d ame     -12.376  12.607  64.243  0.00  0.00     0.028 H 
ATOM     98  H26 non d ame     -11.051  13.403  63.362  0.00  0.00     0.028 H 
ENDBRANCH  93  95
BRANCH  93  99
ATOM     99  C19 non d ame      -9.467  11.405  62.853  0.00  0.00    -0.073 C 
ATOM    100  H27 non d ame      -9.609  12.009  61.957  0.00  0.00     0.028 H 
ATOM    101  H28 non d ame      -8.752  11.897  63.513  0.00  0.00     0.028 H 
ATOM    102  H29 non d ame      -9.086  10.423  62.572  0.00  0.00     0.028 H 
ENDBRANCH  93  99
ENDBRANCH  90  93
ENDBRANCH   1  90
TORSDOF 26
ENDMDL
MODEL 12
REMARK VINA RESULT:      -6.5      2.159      9.173
REMARK  26 active torsions:
REMARK  status: ('A' for Active; 'I' for Inactive)
REMARK    1  A    between atoms: C2_2  and  C3_3 
REMARK    2  A    between atoms: C4_6  and  C5_7 
REMARK       I    between atoms: C5_7  and  N2_9 
REMARK    3  A    between atoms: N2_9  and  C6_10 
REMARK    4  A    between atoms: C6_10  and  C7_11 
REMARK    5  A    between atoms: C6_10  and  C8_13 
REMARK       I    between atoms: C7_11  and  N3_14 
REMARK    6  A    between atoms: N3_14  and  C9_15 
REMARK    7  A    between atoms: C9_15  and  C10_16 
REMARK    8  A    between atoms: C9_15  and  C11_18 
REMARK       I    between atoms: C10_16  and  N4_21 
REMARK    9  A    between atoms: C11_18  and  C12_19 
REMARK   10  A    between atoms: C11_18  and  C13_20 
REMARK   11  A    between atoms: N4_21  and  C14_22 
REMARK   12  A    between atoms: C14_22  and  C15_23 
REMARK   13  A    between atoms: C14_22  and  C16_25 
REMARK       I    between atoms: C15_23  and  N6_40 
REMARK   14  A    between atoms: C16_25  and  C17_26 
REMARK   15  A    between atoms: C17_26  and  C18_27 
REMARK   16  A    between atoms: C17_26  and  C19_28 
REMARK   17  A    between atoms: C20_29  and  C21_30 
REMARK   18  A    between atoms: C20_29  and  C24_33 
REMARK   19  A    between atoms: C20_29  and  N6_40 
REMARK   20  A    between atoms: C21_30  and  C22_31 
REMARK   21  A    between atoms: C22_31  and  C23_32 
REMARK   22  A    between atoms: C23_32  and  O8_43 
REMARK   23  A    between atoms: C24_33  and  C25_34 
REMARK   24  A    between atoms: C28_38  and  O6_39 
REMARK   25  A    between atoms: C29_42  and  O8_43 
REMARK   26  A    between atoms: C29_42  and  C35_49 
ROOT
ATOM      1  C14 non d ame     -12.044  13.320  69.888  0.00  0.00     0.089 C 
ATOM      2  H20 non d ame     -13.120  13.366  69.721  0.00  0.00     0.087 H 
ENDROOT
BRANCH   1   3
ATOM      3  N4  non d ame     -11.744  12.012  70.451  0.00  0.00    -0.346 N 
ATOM      4  C10 non d ame     -11.948  10.764  69.630  0.00  0.00     0.241 C 
ATOM      5  O4  non d ame     -12.358  10.838  68.518  0.00  0.00    -0.271 OA
ATOM      6  H19 non d ame     -11.398  11.971  71.400  0.00  0.00     0.163 HD
BRANCH   4   7
ATOM      7  C9  non d ame     -11.627   9.419  70.226  0.00  0.00     0.092 C 
ATOM      8  H11 non d ame     -12.214   8.653  69.720  0.00  0.00     0.088 H 
BRANCH   7   9
ATOM      9  N3  non d ame     -10.214   9.105  69.993  0.00  0.00    -0.346 N 
ATOM     10  C7  non d ame      -9.834   8.273  68.879  0.00  0.00     0.240 C 
ATOM     11  O3  non d ame     -10.653   7.844  68.161  0.00  0.00    -0.271 OA
ATOM     12  H10 non d ame      -9.497   9.466  70.606  0.00  0.00     0.163 HD
BRANCH  10  13
ATOM     13  C6  non d ame      -8.329   7.940  68.639  0.00  0.00     0.086 C 
ATOM     14  H6  non d ame      -8.019   7.013  69.121  0.00  0.00     0.086 H 
BRANCH  13  15
ATOM     15  N2  non d ame      -8.108   7.762  67.213  0.00  0.00    -0.343 N 
ATOM     16  C5  non d ame      -7.815   6.425  66.691  0.00  0.00     0.273 C 
ATOM     17  O2  non d ame      -7.758   5.501  67.426  0.00  0.00    -0.266 OA
ATOM     18  H5  non d ame      -8.156   8.556  66.593  0.00  0.00     0.163 HD
BRANCH  16  19
ATOM     19  C4  non d ame      -7.582   6.220  65.186  0.00  0.00     0.154 A 
ATOM     20  C1  non d ame      -8.409   5.491  64.274  0.00  0.00    -0.017 A 
ATOM     21  C2  non d ame      -7.761   5.605  63.024  0.00  0.00     0.077 A 
ATOM     22  H1  non d ame      -9.338   4.960  64.486  0.00  0.00     0.091 H 
ATOM     23  O1  non d ame      -6.689   6.320  63.207  0.00  0.00    -0.218 OA
ATOM     24  N1  non d ame      -6.562   6.690  64.461  0.00  0.00    -0.123 NA
BRANCH  21  25
ATOM     25  C3  non d ame      -8.232   5.005  61.706  0.00  0.00    -0.029 C 
ATOM     26  H2  non d ame      -8.777   5.760  61.137  0.00  0.00     0.036 H 
ATOM     27  H3  non d ame      -7.369   4.670  61.131  0.00  0.00     0.036 H 
ATOM     28  H4  non d ame      -8.887   4.157  61.905  0.00  0.00     0.036 H 
ENDBRANCH  21  25
ENDBRANCH  16  19
ENDBRANCH  13  15
BRANCH  13  29
ATOM     29  C8  non d ame      -7.472   9.068  69.156  0.00  0.00    -0.049 C 
ATOM     30  H7  non d ame      -8.110   9.894  69.472  0.00  0.00     0.030 H 
ATOM     31  H8  non d ame      -6.885   8.717  70.006  0.00  0.00     0.030 H 
ATOM     32  H9  non d ame      -6.803   9.407  68.367  0.00  0.00     0.030 H 
ENDBRANCH  13  29
ENDBRANCH  10  13
ENDBRANCH   7   9
BRANCH   7  33
ATOM     33  C11 non d ame     -11.903   9.451  71.758  0.00  0.00    -0.033 C 
ATOM     34  H12 non d ame     -11.470  10.371  72.151  0.00  0.00     0.042 H 
BRANCH  33  35
ATOM     35  C12 non d ame     -13.434   9.487  72.059  0.00  0.00    -0.071 C 
ATOM     36  H13 non d ame     -13.662  10.354  72.678  0.00  0.00     0.028 H 
ATOM     37  H14 non d ame     -13.987   9.554  71.123  0.00  0.00     0.028 H 
ATOM     38  H15 non d ame     -13.721   8.577  72.586  0.00  0.00     0.028 H 
ENDBRANCH  33  35
BRANCH  33  39
ATOM     39  C13 non d ame     -11.212   8.247  72.476  0.00  0.00    -0.071 C 
ATOM     40  H16 non d ame     -11.141   7.406  71.787  0.00  0.00     0.028 H 
ATOM     41  H17 non d ame     -10.213   8.540  72.798  0.00  0.00     0.028 H 
ATOM     42  H18 non d ame     -11.803   7.956  73.344  0.00  0.00     0.028 H 
ENDBRANCH  33  39
ENDBRANCH   7  33
ENDBRANCH   4   7
ENDBRANCH   1   3
BRANCH   1  43
ATOM     43  C15 non d ame     -11.236  13.489  68.570  0.00  0.00     0.240 C 
ATOM     44  O5  non d ame     -10.071  13.721  68.616  0.00  0.00    -0.271 OA
ATOM     45  N6  non d ame     -11.913  13.353  67.249  0.00  0.00    -0.355 N 
ATOM     46  H46 non d ame     -12.901  13.152  67.196  0.00  0.00     0.162 HD
BRANCH  45  47
ATOM     47  C20 non d ame     -11.130  13.515  66.004  0.00  0.00     0.013 C 
ATOM     48  H30 non d ame     -10.098  13.239  66.219  0.00  0.00     0.072 H 
BRANCH  47  49
ATOM     49  C21 non d ame     -11.197  14.957  65.556  0.00  0.00    -0.038 C 
ATOM     50  H31 non d ame     -11.418  14.924  64.488  0.00  0.00     0.036 H 
ATOM     51  H32 non d ame     -11.890  15.446  66.242  0.00  0.00     0.036 H 
BRANCH  49  52
ATOM     52  C22 non d ame      -9.848  15.693  65.700  0.00  0.00     0.018 C 
ATOM     53  H33 non d ame      -9.299  15.156  66.475  0.00  0.00     0.048 H 
ATOM     54  H34 non d ame      -9.439  15.762  64.692  0.00  0.00     0.048 H 
BRANCH  52  55
ATOM     55  C23 non d ame      -9.984  17.155  66.209  0.00  0.00     0.259 C 
ATOM     56  O7  non d ame     -10.482  17.987  65.524  0.00  0.00    -0.265 OA
BRANCH  55  57
ATOM     57  O8  non d ame      -9.493  17.493  67.501  0.00  0.00    -0.317 OA
BRANCH  57  58
ATOM     58  C29 non d ame      -9.701  18.860  67.865  0.00  0.00     0.052 C 
ATOM     59  H47 non d ame     -10.204  19.319  67.015  0.00  0.00     0.082 H 
ATOM     60  H48 non d ame     -10.192  18.834  68.839  0.00  0.00     0.082 H 
BRANCH  58  61
ATOM     61  C35 non d ame      -8.311  19.528  68.033  0.00  0.00    -0.034 A 
ATOM     62  C30 non d ame      -7.558  19.291  69.179  0.00  0.00    -0.075 A 
ATOM     63  C31 non d ame      -6.309  19.891  69.330  0.00  0.00    -0.082 A 
ATOM     64  H49 non d ame      -7.947  18.636  69.958  0.00  0.00     0.084 H 
ATOM     65  C32 non d ame      -5.814  20.733  68.331  0.00  0.00    -0.083 A 
ATOM     66  H50 non d ame      -5.722  19.702  70.228  0.00  0.00     0.083 H 
ATOM     67  C33 non d ame      -6.570  20.969  67.190  0.00  0.00    -0.082 A 
ATOM     68  H51 non d ame      -4.838  21.206  68.441  0.00  0.00     0.083 H 
ATOM     69  C34 non d ame      -7.818  20.369  67.034  0.00  0.00    -0.075 A 
ATOM     70  H52 non d ame      -6.181  21.628  66.413  0.00  0.00     0.083 H 
ATOM     71  H53 non d ame      -8.405  20.559  66.134  0.00  0.00     0.084 H 
ENDBRANCH  58  61
ENDBRANCH  57  58
ENDBRANCH  55  57
ENDBRANCH  52  55
ENDBRANCH  49  52
ENDBRANCH  47  49
BRANCH  47  72
ATOM     72  C24 non d ame     -11.704  12.614  64.913  0.00  0.00    -0.039 C 
ATOM     73  H35 non d ame     -12.718  12.376  65.235  0.00  0.00     0.036 H 
ATOM     74  H36 non d ame     -11.542  13.151  63.978  0.00  0.00     0.036 H 
BRANCH  72  75
ATOM     75  C25 non d ame     -10.905  11.229  64.807  0.00  0.00    -0.001 C 
ATOM     76  C26 non d ame      -9.803  11.123  66.023  0.00  0.00    -0.035 C 
ATOM     77  C27 non d ame      -8.595  10.818  65.492  0.00  0.00     0.085 C 
ATOM     78  H38 non d ame      -9.644  12.105  66.469  0.00  0.00     0.036 H 
ATOM     79  H39 non d ame     -10.027  10.265  66.657  0.00  0.00     0.036 H 
ATOM     80  N5  non d ame      -8.702  11.026  64.001  0.00  0.00    -0.049 N 
ATOM     81  H40 non d ame      -7.901  11.550  65.905  0.00  0.00     0.075 H 
ATOM     82  H41 non d ame      -8.450   9.756  65.692  0.00  0.00     0.075 H 
ATOM     83  C28 non d ame     -10.281  11.135  63.680  0.00  0.00     0.193 C 
ATOM     84  H42 non d ame      -8.272  11.919  63.805  0.00  0.00     0.280 HD
ATOM     85  H43 non d ame      -8.343  10.188  63.567  0.00  0.00     0.280 HD
ATOM     86  H44 non d ame     -10.813  10.298  63.228  0.00  0.00     0.129 H 
ATOM     87  H37 non d ame     -11.571  10.378  64.665  0.00  0.00     0.046 H 
BRANCH  83  88
ATOM     88  O6  non d ame     -10.534  12.253  62.828  0.00  0.00    -0.369 OA
ATOM     89  H45 non d ame     -11.314  12.081  62.297  0.00  0.00     0.212 HD
ENDBRANCH  83  88
ENDBRANCH  72  75
ENDBRANCH  47  72
ENDBRANCH  45  47
ENDBRANCH   1  43
BRANCH   1  90
ATOM     90  C16 non d ame     -11.632  14.395  70.882  0.00  0.00    -0.035 C 
ATOM     91  H21 non d ame     -11.054  13.875  71.646  0.00  0.00     0.037 H 
ATOM     92  H22 non d ame     -11.164  15.176  70.283  0.00  0.00     0.037 H 
BRANCH  90  93
ATOM     93  C17 non d ame     -12.836  15.063  71.618  0.00  0.00    -0.059 C 
ATOM     94  H23 non d ame     -13.365  15.681  70.893  0.00  0.00     0.038 H 
BRANCH  93  95
ATOM     95  C18 non d ame     -13.846  14.010  72.174  0.00  0.00    -0.073 C 
ATOM     96  H24 non d ame     -14.752  14.020  71.567  0.00  0.00     0.028 H 
ATOM     97  H25 non d ame     -13.395  13.018  72.135  0.00  0.00     0.028 H 
ATOM     98  H26 non d ame     -14.096  14.255  73.206  0.00  0.00     0.028 H 
ENDBRANCH  93  95
BRANCH  93  99
ATOM     99  C19 non d ame     -12.347  15.992  72.733  0.00  0.00    -0.073 C 
ATOM    100  H27 non d ame     -11.281  16.181  72.606  0.00  0.00     0.028 H 
ATOM    101  H28 non d ame     -12.892  16.934  72.686  0.00  0.00     0.028 H 
ATOM    102  H29 non d ame     -12.519  15.520  73.700  0.00  0.00     0.028 H 
ENDBRANCH  93  99
ENDBRANCH  90  93
ENDBRANCH   1  90
TORSDOF 26
ENDMDL
MODEL 13
REMARK VINA RESULT:      -6.5      2.924      6.964
REMARK  26 active torsions:
REMARK  status: ('A' for Active; 'I' for Inactive)
REMARK    1  A    between atoms: C2_2  and  C3_3 
REMARK    2  A    between atoms: C4_6  and  C5_7 
REMARK       I    between atoms: C5_7  and  N2_9 
REMARK    3  A    between atoms: N2_9  and  C6_10 
REMARK    4  A    between atoms: C6_10  and  C7_11 
REMARK    5  A    between atoms: C6_10  and  C8_13 
REMARK       I    between atoms: C7_11  and  N3_14 
REMARK    6  A    between atoms: N3_14  and  C9_15 
REMARK    7  A    between atoms: C9_15  and  C10_16 
REMARK    8  A    between atoms: C9_15  and  C11_18 
REMARK       I    between atoms: C10_16  and  N4_21 
REMARK    9  A    between atoms: C11_18  and  C12_19 
REMARK   10  A    between atoms: C11_18  and  C13_20 
REMARK   11  A    between atoms: N4_21  and  C14_22 
REMARK   12  A    between atoms: C14_22  and  C15_23 
REMARK   13  A    between atoms: C14_22  and  C16_25 
REMARK       I    between atoms: C15_23  and  N6_40 
REMARK   14  A    between atoms: C16_25  and  C17_26 
REMARK   15  A    between atoms: C17_26  and  C18_27 
REMARK   16  A    between atoms: C17_26  and  C19_28 
REMARK   17  A    between atoms: C20_29  and  C21_30 
REMARK   18  A    between atoms: C20_29  and  C24_33 
REMARK   19  A    between atoms: C20_29  and  N6_40 
REMARK   20  A    between atoms: C21_30  and  C22_31 
REMARK   21  A    between atoms: C22_31  and  C23_32 
REMARK   22  A    between atoms: C23_32  and  O8_43 
REMARK   23  A    between atoms: C24_33  and  C25_34 
REMARK   24  A    between atoms: C28_38  and  O6_39 
REMARK   25  A    between atoms: C29_42  and  O8_43 
REMARK   26  A    between atoms: C29_42  and  C35_49 
ROOT
ATOM      1  C14 non d ame     -11.261   7.978  70.355  0.00  0.00     0.089 C 
ATOM      2  H20 non d ame     -12.225   7.729  69.912  0.00  0.00     0.087 H 
ENDROOT
BRANCH   1   3
ATOM      3  N4  non d ame     -10.415   6.798  70.256  0.00  0.00    -0.346 N 
ATOM      4  C10 non d ame     -10.486   5.909  69.040  0.00  0.00     0.241 C 
ATOM      5  O4  non d ame     -11.235   6.162  68.154  0.00  0.00    -0.271 OA
ATOM      6  H19 non d ame      -9.786   6.599  71.022  0.00  0.00     0.163 HD
BRANCH   4   7
ATOM      7  C9  non d ame      -9.599   4.695  68.952  0.00  0.00     0.092 C 
ATOM      8  H11 non d ame     -10.170   3.862  68.543  0.00  0.00     0.088 H 
BRANCH   7   9
ATOM      9  N3  non d ame      -8.497   4.961  68.022  0.00  0.00    -0.346 N 
ATOM     10  C7  non d ame      -8.537   4.425  66.684  0.00  0.00     0.240 C 
ATOM     11  O3  non d ame      -9.448   3.775  66.339  0.00  0.00    -0.271 OA
ATOM     12  H10 non d ame      -7.704   5.518  68.306  0.00  0.00     0.163 HD
BRANCH  10  13
ATOM     13  C6  non d ame      -7.360   4.709  65.701  0.00  0.00     0.086 C 
ATOM     14  H6  non d ame      -7.341   4.021  64.855  0.00  0.00     0.086 H 
BRANCH  13  15
ATOM     15  N2  non d ame      -7.519   6.043  65.148  0.00  0.00    -0.343 N 
ATOM     16  C5  non d ame      -6.933   6.358  63.843  0.00  0.00     0.273 C 
ATOM     17  O2  non d ame      -6.333   5.531  63.248  0.00  0.00    -0.266 OA
ATOM     18  H5  non d ame      -8.031   6.744  65.664  0.00  0.00     0.163 HD
BRANCH  16  19
ATOM     19  C4  non d ame      -7.095   7.764  63.245  0.00  0.00     0.154 A 
ATOM     20  C1  non d ame      -8.231   8.627  63.362  0.00  0.00    -0.017 A 
ATOM     21  C2  non d ame      -7.880   9.790  62.641  0.00  0.00     0.077 A 
ATOM     22  H1  non d ame      -9.167   8.439  63.889  0.00  0.00     0.091 H 
ATOM     23  O1  non d ame      -6.680   9.607  62.170  0.00  0.00    -0.218 OA
ATOM     24  N1  non d ame      -6.202   8.432  62.509  0.00  0.00    -0.123 NA
BRANCH  21  25
ATOM     25  C3  non d ame      -8.744  11.029  62.452  0.00  0.00    -0.029 C 
ATOM     26  H2  non d ame      -8.193  11.773  61.875  0.00  0.00     0.036 H 
ATOM     27  H3  non d ame      -9.655  10.758  61.918  0.00  0.00     0.036 H 
ATOM     28  H4  non d ame      -9.004  11.444  63.426  0.00  0.00     0.036 H 
ENDBRANCH  21  25
ENDBRANCH  16  19
ENDBRANCH  13  15
BRANCH  13  29
ATOM     29  C8  non d ame      -6.049   4.609  66.439  0.00  0.00    -0.049 C 
ATOM     30  H7  non d ame      -6.111   5.175  67.369  0.00  0.00     0.030 H 
ATOM     31  H8  non d ame      -5.837   3.563  66.663  0.00  0.00     0.030 H 
ATOM     32  H9  non d ame      -5.251   5.017  65.819  0.00  0.00     0.030 H 
ENDBRANCH  13  29
ENDBRANCH  10  13
ENDBRANCH   7   9
BRANCH   7  33
ATOM     33  C11 non d ame      -9.019   4.373  70.361  0.00  0.00    -0.033 C 
ATOM     34  H12 non d ame      -9.222   5.230  71.003  0.00  0.00     0.042 H 
BRANCH  33  35
ATOM     35  C12 non d ame      -9.725   3.134  70.995  0.00  0.00    -0.071 C 
ATOM     36  H13 non d ame      -8.990   2.533  71.531  0.00  0.00     0.028 H 
ATOM     37  H14 non d ame     -10.495   3.470  71.689  0.00  0.00     0.028 H 
ATOM     38  H15 non d ame     -10.181   2.534  70.208  0.00  0.00     0.028 H 
ENDBRANCH  33  35
BRANCH  33  39
ATOM     39  C13 non d ame      -7.471   4.172  70.295  0.00  0.00    -0.071 C 
ATOM     40  H16 non d ame      -7.240   3.348  69.621  0.00  0.00     0.028 H 
ATOM     41  H17 non d ame      -7.001   5.085  69.930  0.00  0.00     0.028 H 
ATOM     42  H18 non d ame      -7.094   3.942  71.292  0.00  0.00     0.028 H 
ENDBRANCH  33  39
ENDBRANCH   7  33
ENDBRANCH   4   7
ENDBRANCH   1   3
BRANCH   1  43
ATOM     43  C15 non d ame     -10.560   9.153  69.615  0.00  0.00     0.240 C 
ATOM     44  O5  non d ame      -9.756   9.817  70.187  0.00  0.00    -0.271 OA
ATOM     45  N6  non d ame     -10.885   9.447  68.190  0.00  0.00    -0.355 N 
ATOM     46  H46 non d ame     -11.563   8.889  67.692  0.00  0.00     0.162 HD
BRANCH  45  47
ATOM     47  C20 non d ame     -10.209  10.568  67.500  0.00  0.00     0.013 C 
ATOM     48  H30 non d ame      -9.733  11.189  68.259  0.00  0.00     0.072 H 
BRANCH  47  49
ATOM     49  C21 non d ame     -11.234  11.377  66.738  0.00  0.00    -0.038 C 
ATOM     50  H31 non d ame     -10.933  11.323  65.692  0.00  0.00     0.036 H 
ATOM     51  H32 non d ame     -12.205  10.988  67.047  0.00  0.00     0.036 H 
BRANCH  49  52
ATOM     52  C22 non d ame     -11.222  12.873  67.121  0.00  0.00     0.018 C 
ATOM     53  H33 non d ame     -10.215  13.228  66.895  0.00  0.00     0.048 H 
ATOM     54  H34 non d ame     -12.081  13.314  66.615  0.00  0.00     0.048 H 
BRANCH  52  55
ATOM     55  C23 non d ame     -11.436  13.132  68.638  0.00  0.00     0.259 C 
ATOM     56  O7  non d ame     -12.013  12.340  69.309  0.00  0.00    -0.265 OA
BRANCH  55  57
ATOM     57  O8  non d ame     -10.946  14.336  69.215  0.00  0.00    -0.317 OA
BRANCH  57  58
ATOM     58  C29 non d ame     -11.903  15.398  69.249  0.00  0.00     0.052 C 
ATOM     59  H47 non d ame     -11.351  16.302  68.996  0.00  0.00     0.082 H 
ATOM     60  H48 non d ame     -12.730  15.070  68.619  0.00  0.00     0.082 H 
BRANCH  58  61
ATOM     61  C35 non d ame     -12.421  15.530  70.707  0.00  0.00    -0.034 A 
ATOM     62  C30 non d ame     -13.697  15.087  71.035  0.00  0.00    -0.075 A 
ATOM     63  C31 non d ame     -14.162  15.206  72.344  0.00  0.00    -0.082 A 
ATOM     64  H49 non d ame     -14.334  14.648  70.268  0.00  0.00     0.084 H 
ATOM     65  C32 non d ame     -13.345  15.772  73.326  0.00  0.00    -0.083 A 
ATOM     66  H50 non d ame     -15.162  14.856  72.599  0.00  0.00     0.083 H 
ATOM     67  C33 non d ame     -12.072  16.216  72.993  0.00  0.00    -0.082 A 
ATOM     68  H51 non d ame     -13.700  15.869  74.352  0.00  0.00     0.083 H 
ATOM     69  C34 non d ame     -11.603  16.097  71.686  0.00  0.00    -0.075 A 
ATOM     70  H52 non d ame     -11.438  16.660  73.761  0.00  0.00     0.083 H 
ATOM     71  H53 non d ame     -10.601  16.447  71.433  0.00  0.00     0.084 H 
ENDBRANCH  58  61
ENDBRANCH  57  58
ENDBRANCH  55  57
ENDBRANCH  52  55
ENDBRANCH  49  52
ENDBRANCH  47  49
BRANCH  47  72
ATOM     72  C24 non d ame      -9.165  10.021  66.529  0.00  0.00    -0.039 C 
ATOM     73  H35 non d ame      -9.402   8.964  66.412  0.00  0.00     0.036 H 
ATOM     74  H36 non d ame      -9.196  10.685  65.665  0.00  0.00     0.036 H 
BRANCH  72  75
ATOM     75  C25 non d ame      -7.686  10.109  67.139  0.00  0.00    -0.001 C 
ATOM     76  C26 non d ame      -6.662  10.768  66.034  0.00  0.00    -0.035 C 
ATOM     77  C27 non d ame      -5.583   9.960  65.901  0.00  0.00     0.085 C 
ATOM     78  H38 non d ame      -7.118  10.747  65.044  0.00  0.00     0.036 H 
ATOM     79  H39 non d ame      -6.240  11.696  66.420  0.00  0.00     0.036 H 
ATOM     80  N5  non d ame      -5.927   8.651  66.570  0.00  0.00    -0.049 N 
ATOM     81  H40 non d ame      -5.472   9.793  64.830  0.00  0.00     0.075 H 
ATOM     82  H41 non d ame      -4.786  10.445  66.463  0.00  0.00     0.075 H 
ATOM     83  C28 non d ame      -7.243   8.939  67.461  0.00  0.00     0.193 C 
ATOM     84  H42 non d ame      -6.175   8.008  65.831  0.00  0.00     0.280 HD
ATOM     85  H43 non d ame      -5.161   8.435  67.190  0.00  0.00     0.280 HD
ATOM     86  H44 non d ame      -7.166   9.046  68.543  0.00  0.00     0.129 H 
ATOM     87  H37 non d ame      -7.677  10.538  68.141  0.00  0.00     0.046 H 
BRANCH  83  88
ATOM     88  O6  non d ame      -8.217   7.916  67.246  0.00  0.00    -0.369 OA
ATOM     89  H45 non d ame      -8.823   8.191  66.556  0.00  0.00     0.212 HD
ENDBRANCH  83  88
ENDBRANCH  72  75
ENDBRANCH  47  72
ENDBRANCH  45  47
ENDBRANCH   1  43
BRANCH   1  90
ATOM     90  C16 non d ame     -11.446   8.335  71.822  0.00  0.00    -0.035 C 
ATOM     91  H21 non d ame     -11.269   7.409  72.369  0.00  0.00     0.037 H 
ATOM     92  H22 non d ame     -10.805   9.199  71.991  0.00  0.00     0.037 H 
BRANCH  90  93
ATOM     93  C17 non d ame     -12.898   8.786  72.178  0.00  0.00    -0.059 C 
ATOM     94  H23 non d ame     -13.031   8.654  73.251  0.00  0.00     0.038 H 
BRANCH  93  95
ATOM     95  C18 non d ame     -13.147  10.292  71.848  0.00  0.00    -0.073 C 
ATOM     96  H24 non d ame     -14.211  10.454  71.672  0.00  0.00     0.028 H 
ATOM     97  H25 non d ame     -12.820  10.907  72.686  0.00  0.00     0.028 H 
ATOM     98  H26 non d ame     -12.585  10.566  70.955  0.00  0.00     0.028 H 
ENDBRANCH  93  95
BRANCH  93  99
ATOM     99  C19 non d ame     -13.932   7.897  71.481  0.00  0.00    -0.073 C 
ATOM    100  H27 non d ame     -13.672   7.795  70.427  0.00  0.00     0.028 H 
ATOM    101  H28 non d ame     -13.941   6.913  71.950  0.00  0.00     0.028 H 
ATOM    102  H29 non d ame     -14.919   8.351  71.569  0.00  0.00     0.028 H 
ENDBRANCH  93  99
ENDBRANCH  90  93
ENDBRANCH   1  90
TORSDOF 26
ENDMDL
MODEL 14
REMARK VINA RESULT:      -6.5      3.443      7.170
REMARK  26 active torsions:
REMARK  status: ('A' for Active; 'I' for Inactive)
REMARK    1  A    between atoms: C2_2  and  C3_3 
REMARK    2  A    between atoms: C4_6  and  C5_7 
REMARK       I    between atoms: C5_7  and  N2_9 
REMARK    3  A    between atoms: N2_9  and  C6_10 
REMARK    4  A    between atoms: C6_10  and  C7_11 
REMARK    5  A    between atoms: C6_10  and  C8_13 
REMARK       I    between atoms: C7_11  and  N3_14 
REMARK    6  A    between atoms: N3_14  and  C9_15 
REMARK    7  A    between atoms: C9_15  and  C10_16 
REMARK    8  A    between atoms: C9_15  and  C11_18 
REMARK       I    between atoms: C10_16  and  N4_21 
REMARK    9  A    between atoms: C11_18  and  C12_19 
REMARK   10  A    between atoms: C11_18  and  C13_20 
REMARK   11  A    between atoms: N4_21  and  C14_22 
REMARK   12  A    between atoms: C14_22  and  C15_23 
REMARK   13  A    between atoms: C14_22  and  C16_25 
REMARK       I    between atoms: C15_23  and  N6_40 
REMARK   14  A    between atoms: C16_25  and  C17_26 
REMARK   15  A    between atoms: C17_26  and  C18_27 
REMARK   16  A    between atoms: C17_26  and  C19_28 
REMARK   17  A    between atoms: C20_29  and  C21_30 
REMARK   18  A    between atoms: C20_29  and  C24_33 
REMARK   19  A    between atoms: C20_29  and  N6_40 
REMARK   20  A    between atoms: C21_30  and  C22_31 
REMARK   21  A    between atoms: C22_31  and  C23_32 
REMARK   22  A    between atoms: C23_32  and  O8_43 
REMARK   23  A    between atoms: C24_33  and  C25_34 
REMARK   24  A    between atoms: C28_38  and  O6_39 
REMARK   25  A    between atoms: C29_42  and  O8_43 
REMARK   26  A    between atoms: C29_42  and  C35_49 
ROOT
ATOM      1  C14 non d ame      -6.630  16.015  67.777  0.00  0.00     0.089 C 
ATOM      2  H20 non d ame      -6.030  16.546  67.038  0.00  0.00     0.087 H 
ENDROOT
BRANCH   1   3
ATOM      3  N4  non d ame      -8.030  16.229  67.443  0.00  0.00    -0.346 N 
ATOM      4  C10 non d ame      -8.419  17.276  66.429  0.00  0.00     0.241 C 
ATOM      5  O4  non d ame      -7.587  17.935  65.897  0.00  0.00    -0.271 OA
ATOM      6  H19 non d ame      -8.723  15.660  67.909  0.00  0.00     0.163 HD
BRANCH   4   7
ATOM      7  C9  non d ame      -9.872  17.481  66.091  0.00  0.00     0.092 C 
ATOM      8  H11 non d ame      -9.952  17.887  65.082  0.00  0.00     0.088 H 
BRANCH   7   9
ATOM      9  N3  non d ame     -10.562  16.188  66.092  0.00  0.00    -0.346 N 
ATOM     10  C7  non d ame     -11.257  15.739  64.911  0.00  0.00     0.240 C 
ATOM     11  O3  non d ame     -11.273  16.408  63.950  0.00  0.00    -0.271 OA
ATOM     12  H10 non d ame     -10.559  15.601  66.914  0.00  0.00     0.163 HD
BRANCH  10  13
ATOM     13  C6  non d ame     -11.992  14.363  64.921  0.00  0.00     0.086 C 
ATOM     14  H6  non d ame     -12.691  14.252  64.091  0.00  0.00     0.086 H 
BRANCH  13  15
ATOM     15  N2  non d ame     -11.008  13.303  64.781  0.00  0.00    -0.343 N 
ATOM     16  C5  non d ame     -11.140  12.337  63.687  0.00  0.00     0.273 C 
ATOM     17  O2  non d ame     -12.042  12.421  62.928  0.00  0.00    -0.266 OA
ATOM     18  H5  non d ame     -10.242  13.237  65.435  0.00  0.00     0.163 HD
BRANCH  16  19
ATOM     19  C4  non d ame     -10.106  11.212  63.526  0.00  0.00     0.154 A 
ATOM     20  C1  non d ame      -9.179  11.038  62.450  0.00  0.00    -0.017 A 
ATOM     21  C2  non d ame      -8.461   9.865  62.774  0.00  0.00     0.077 A 
ATOM     22  H1  non d ame      -9.046  11.666  61.568  0.00  0.00     0.091 H 
ATOM     23  O1  non d ame      -8.928   9.425  63.906  0.00  0.00    -0.218 OA
ATOM     24  N1  non d ame      -9.890  10.194  64.364  0.00  0.00    -0.123 NA
BRANCH  21  25
ATOM     25  C3  non d ame      -7.346   9.234  61.951  0.00  0.00    -0.029 C 
ATOM     26  H2  non d ame      -6.430   9.202  62.543  0.00  0.00     0.036 H 
ATOM     27  H3  non d ame      -7.631   8.221  61.669  0.00  0.00     0.036 H 
ATOM     28  H4  non d ame      -7.176   9.827  61.052  0.00  0.00     0.036 H 
ENDBRANCH  21  25
ENDBRANCH  16  19
ENDBRANCH  13  15
BRANCH  13  29
ATOM     29  C8  non d ame     -12.745  14.201  66.216  0.00  0.00    -0.049 C 
ATOM     30  H7  non d ame     -12.073  14.389  67.054  0.00  0.00     0.030 H 
ATOM     31  H8  non d ame     -13.572  14.912  66.248  0.00  0.00     0.030 H 
ATOM     32  H9  non d ame     -13.135  13.186  66.285  0.00  0.00     0.030 H 
ENDBRANCH  13  29
ENDBRANCH  10  13
ENDBRANCH   7   9
BRANCH   7  33
ATOM     33  C11 non d ame     -10.525  18.416  67.151  0.00  0.00    -0.033 C 
ATOM     34  H12 non d ame     -11.596  18.213  67.152  0.00  0.00     0.042 H 
BRANCH  33  35
ATOM     35  C12 non d ame      -9.987  18.112  68.584  0.00  0.00    -0.071 C 
ATOM     36  H13 non d ame     -10.507  18.741  69.307  0.00  0.00     0.028 H 
ATOM     37  H14 non d ame     -10.162  17.064  68.823  0.00  0.00     0.028 H 
ATOM     38  H15 non d ame      -8.918  18.320  68.622  0.00  0.00     0.028 H 
ENDBRANCH  33  35
BRANCH  33  39
ATOM     39  C13 non d ame     -10.317  19.918  66.774  0.00  0.00    -0.071 C 
ATOM     40  H16 non d ame     -11.064  20.215  66.039  0.00  0.00     0.028 H 
ATOM     41  H17 non d ame     -10.421  20.535  67.668  0.00  0.00     0.028 H 
ATOM     42  H18 non d ame      -9.321  20.052  66.354  0.00  0.00     0.028 H 
ENDBRANCH  33  39
ENDBRANCH   7  33
ENDBRANCH   4   7
ENDBRANCH   1   3
BRANCH   1  43
ATOM     43  C15 non d ame      -6.349  14.485  67.771  0.00  0.00     0.240 C 
ATOM     44  O5  non d ame      -5.273  14.082  67.461  0.00  0.00    -0.271 OA
ATOM     45  N6  non d ame      -7.416  13.520  68.161  0.00  0.00    -0.355 N 
ATOM     46  H46 non d ame      -8.332  13.850  68.430  0.00  0.00     0.162 HD
BRANCH  45  47
ATOM     47  C20 non d ame      -7.133  12.069  68.151  0.00  0.00     0.013 C 
ATOM     48  H30 non d ame      -6.256  11.903  67.525  0.00  0.00     0.072 H 
BRANCH  47  49
ATOM     49  C21 non d ame      -8.322  11.330  67.581  0.00  0.00    -0.038 C 
ATOM     50  H31 non d ame      -8.812  12.035  66.908  0.00  0.00     0.036 H 
ATOM     51  H32 non d ame      -7.927  10.391  67.194  0.00  0.00     0.036 H 
BRANCH  49  52
ATOM     52  C22 non d ame      -9.366  10.954  68.655  0.00  0.00     0.018 C 
ATOM     53  H33 non d ame      -9.151   9.920  68.927  0.00  0.00     0.048 H 
ATOM     54  H34 non d ame      -9.309  11.739  69.410  0.00  0.00     0.048 H 
BRANCH  52  55
ATOM     55  C23 non d ame     -10.830  10.963  68.135  0.00  0.00     0.259 C 
ATOM     56  O7  non d ame     -11.176  10.197  67.296  0.00  0.00    -0.265 OA
BRANCH  55  57
ATOM     57  O8  non d ame     -11.752  11.909  68.663  0.00  0.00    -0.317 OA
BRANCH  57  58
ATOM     58  C29 non d ame     -11.137  13.080  69.209  0.00  0.00     0.052 C 
ATOM     59  H47 non d ame     -10.217  12.739  69.680  0.00  0.00     0.082 H 
ATOM     60  H48 non d ame     -11.096  13.800  68.391  0.00  0.00     0.082 H 
BRANCH  58  61
ATOM     61  C35 non d ame     -12.074  13.643  70.311  0.00  0.00    -0.034 A 
ATOM     62  C30 non d ame     -12.273  15.015  70.422  0.00  0.00    -0.075 A 
ATOM     63  C31 non d ame     -13.114  15.521  71.411  0.00  0.00    -0.082 A 
ATOM     64  H49 non d ame     -11.770  15.694  69.734  0.00  0.00     0.084 H 
ATOM     65  C32 non d ame     -13.757  14.648  72.294  0.00  0.00    -0.083 A 
ATOM     66  H50 non d ame     -13.269  16.596  71.495  0.00  0.00     0.083 H 
ATOM     67  C33 non d ame     -13.553  13.279  72.182  0.00  0.00    -0.082 A 
ATOM     68  H51 non d ame     -14.416  15.035  73.071  0.00  0.00     0.083 H 
ATOM     69  C34 non d ame     -12.714  12.770  71.192  0.00  0.00    -0.075 A 
ATOM     70  H52 non d ame     -14.054  12.601  72.873  0.00  0.00     0.083 H 
ATOM     71  H53 non d ame     -12.560  11.693  71.109  0.00  0.00     0.084 H 
ENDBRANCH  58  61
ENDBRANCH  57  58
ENDBRANCH  55  57
ENDBRANCH  52  55
ENDBRANCH  49  52
ENDBRANCH  47  49
BRANCH  47  72
ATOM     72  C24 non d ame      -6.867  11.586  69.575  0.00  0.00    -0.039 C 
ATOM     73  H35 non d ame      -7.417  12.269  70.222  0.00  0.00     0.036 H 
ATOM     74  H36 non d ame      -7.111  10.523  69.572  0.00  0.00     0.036 H 
BRANCH  72  75
ATOM     75  C25 non d ame      -5.318  11.713  69.964  0.00  0.00    -0.001 C 
ATOM     76  C26 non d ame      -4.791  10.308  70.637  0.00  0.00    -0.035 C 
ATOM     77  C27 non d ame      -4.177  10.589  71.811  0.00  0.00     0.085 C 
ATOM     78  H38 non d ame      -5.642   9.696  70.936  0.00  0.00     0.036 H 
ATOM     79  H39 non d ame      -3.996   9.876  70.029  0.00  0.00     0.036 H 
ATOM     80  N5  non d ame      -4.521  12.017  72.158  0.00  0.00    -0.049 N 
ATOM     81  H40 non d ame      -4.632   9.925  72.546  0.00  0.00     0.075 H 
ATOM     82  H41 non d ame      -3.109  10.522  71.603  0.00  0.00     0.075 H 
ATOM     83  C28 non d ame      -5.125  12.669  70.810  0.00  0.00     0.193 C 
ATOM     84  H42 non d ame      -5.254  11.974  72.851  0.00  0.00     0.280 HD
ATOM     85  H43 non d ame      -3.649  12.477  72.375  0.00  0.00     0.280 HD
ATOM     86  H44 non d ame      -4.524  13.351  70.208  0.00  0.00     0.129 H 
ATOM     87  H37 non d ame      -4.721  12.128  69.152  0.00  0.00     0.046 H 
BRANCH  83  88
ATOM     88  O6  non d ame      -6.329  13.380  71.104  0.00  0.00    -0.369 OA
ATOM     89  H45 non d ame      -7.058  12.989  70.619  0.00  0.00     0.212 HD
ENDBRANCH  83  88
ENDBRANCH  72  75
ENDBRANCH  47  72
ENDBRANCH  45  47
ENDBRANCH   1  43
BRANCH   1  90
ATOM     90  C16 non d ame      -6.358  16.579  69.163  0.00  0.00    -0.035 C 
ATOM     91  H21 non d ame      -7.340  16.803  69.581  0.00  0.00     0.037 H 
ATOM     92  H22 non d ame      -5.713  15.849  69.650  0.00  0.00     0.037 H 
BRANCH  90  93
ATOM     93  C17 non d ame      -5.568  17.926  69.147  0.00  0.00    -0.059 C 
ATOM     94  H23 non d ame      -4.949  17.957  70.043  0.00  0.00     0.038 H 
BRANCH  93  95
ATOM     95  C18 non d ame      -4.622  18.040  67.910  0.00  0.00    -0.073 C 
ATOM     96  H24 non d ame      -4.860  18.947  67.353  0.00  0.00     0.028 H 
ATOM     97  H25 non d ame      -3.586  18.084  68.247  0.00  0.00     0.028 H 
ATOM     98  H26 non d ame      -4.757  17.171  67.266  0.00  0.00     0.028 H 
ENDBRANCH  93  95
BRANCH  93  99
ATOM     99  C19 non d ame      -6.524  19.120  69.215  0.00  0.00    -0.073 C 
ATOM    100  H27 non d ame      -6.150  19.921  68.576  0.00  0.00     0.028 H 
ATOM    101  H28 non d ame      -7.512  18.814  68.873  0.00  0.00     0.028 H 
ATOM    102  H29 non d ame      -6.588  19.476  70.242  0.00  0.00     0.028 H 
ENDBRANCH  93  99
ENDBRANCH  90  93
ENDBRANCH   1  90
TORSDOF 26
ENDMDL
MODEL 15
REMARK VINA RESULT:      -6.5      3.776      8.682
REMARK  26 active torsions:
REMARK  status: ('A' for Active; 'I' for Inactive)
REMARK    1  A    between atoms: C2_2  and  C3_3 
REMARK    2  A    between atoms: C4_6  and  C5_7 
REMARK       I    between atoms: C5_7  and  N2_9 
REMARK    3  A    between atoms: N2_9  and  C6_10 
REMARK    4  A    between atoms: C6_10  and  C7_11 
REMARK    5  A    between atoms: C6_10  and  C8_13 
REMARK       I    between atoms: C7_11  and  N3_14 
REMARK    6  A    between atoms: N3_14  and  C9_15 
REMARK    7  A    between atoms: C9_15  and  C10_16 
REMARK    8  A    between atoms: C9_15  and  C11_18 
REMARK       I    between atoms: C10_16  and  N4_21 
REMARK    9  A    between atoms: C11_18  and  C12_19 
REMARK   10  A    between atoms: C11_18  and  C13_20 
REMARK   11  A    between atoms: N4_21  and  C14_22 
REMARK   12  A    between atoms: C14_22  and  C15_23 
REMARK   13  A    between atoms: C14_22  and  C16_25 
REMARK       I    between atoms: C15_23  and  N6_40 
REMARK   14  A    between atoms: C16_25  and  C17_26 
REMARK   15  A    between atoms: C17_26  and  C18_27 
REMARK   16  A    between atoms: C17_26  and  C19_28 
REMARK   17  A    between atoms: C20_29  and  C21_30 
REMARK   18  A    between atoms: C20_29  and  C24_33 
REMARK   19  A    between atoms: C20_29  and  N6_40 
REMARK   20  A    between atoms: C21_30  and  C22_31 
REMARK   21  A    between atoms: C22_31  and  C23_32 
REMARK   22  A    between atoms: C23_32  and  O8_43 
REMARK   23  A    between atoms: C24_33  and  C25_34 
REMARK   24  A    between atoms: C28_38  and  O6_39 
REMARK   25  A    between atoms: C29_42  and  O8_43 
REMARK   26  A    between atoms: C29_42  and  C35_49 
ROOT
ATOM      1  C14 non d ame     -10.404  15.571  67.022  0.00  0.00     0.089 C 
ATOM      2  H20 non d ame     -11.367  16.032  66.801  0.00  0.00     0.087 H 
ENDROOT
BRANCH   1   3
ATOM      3  N4  non d ame      -9.432  16.642  67.183  0.00  0.00    -0.346 N 
ATOM      4  C10 non d ame      -9.784  17.878  67.972  0.00  0.00     0.241 C 
ATOM      5  O4  non d ame     -10.858  17.989  68.466  0.00  0.00    -0.271 OA
ATOM      6  H19 non d ame      -8.525  16.529  66.752  0.00  0.00     0.163 HD
BRANCH   4   7
ATOM      7  C9  non d ame      -8.764  18.974  68.133  0.00  0.00     0.092 C 
ATOM      8  H11 non d ame      -8.958  19.511  69.062  0.00  0.00     0.088 H 
BRANCH   7   9
ATOM      9  N3  non d ame      -7.427  18.385  68.246  0.00  0.00    -0.346 N 
ATOM     10  C7  non d ame      -6.480  18.919  69.193  0.00  0.00     0.240 C 
ATOM     11  O3  non d ame      -6.778  19.825  69.873  0.00  0.00    -0.271 OA
ATOM     12  H10 non d ame      -7.155  17.605  67.665  0.00  0.00     0.163 HD
BRANCH  10  13
ATOM     13  C6  non d ame      -5.057  18.290  69.306  0.00  0.00     0.086 C 
ATOM     14  H6  non d ame      -4.803  18.001  70.326  0.00  0.00     0.086 H 
BRANCH  13  15
ATOM     15  N2  non d ame      -5.015  17.076  68.508  0.00  0.00    -0.343 N 
ATOM     16  C5  non d ame      -5.329  15.790  69.134  0.00  0.00     0.273 C 
ATOM     17  O2  non d ame      -5.612  15.742  70.281  0.00  0.00    -0.266 OA
ATOM     18  H5  non d ame      -4.770  17.125  67.529  0.00  0.00     0.163 HD
BRANCH  16  19
ATOM     19  C4  non d ame      -5.291  14.498  68.302  0.00  0.00     0.154 A 
ATOM     20  C1  non d ame      -6.309  13.497  68.213  0.00  0.00    -0.017 A 
ATOM     21  C2  non d ame      -5.789  12.527  67.327  0.00  0.00     0.077 A 
ATOM     22  H1  non d ame      -7.278  13.476  68.714  0.00  0.00     0.091 H 
ATOM     23  O1  non d ame      -4.610  12.934  66.956  0.00  0.00    -0.218 OA
ATOM     24  N1  non d ame      -4.297  14.082  67.512  0.00  0.00    -0.123 NA
BRANCH  21  25
ATOM     25  C3  non d ame      -6.481  11.244  66.887  0.00  0.00    -0.029 C 
ATOM     26  H2  non d ame      -7.422  11.489  66.392  0.00  0.00     0.036 H 
ATOM     27  H3  non d ame      -5.837  10.703  66.195  0.00  0.00     0.036 H 
ATOM     28  H4  non d ame      -6.682  10.621  67.759  0.00  0.00     0.036 H 
ENDBRANCH  21  25
ENDBRANCH  16  19
ENDBRANCH  13  15
BRANCH  13  29
ATOM     29  C8  non d ame      -4.029  19.272  68.806  0.00  0.00    -0.049 C 
ATOM     30  H7  non d ame      -3.508  18.848  67.947  0.00  0.00     0.030 H 
ATOM     31  H8  non d ame      -4.524  20.198  68.510  0.00  0.00     0.030 H 
ATOM     32  H9  non d ame      -3.311  19.481  69.598  0.00  0.00     0.030 H 
ENDBRANCH  13  29
ENDBRANCH  10  13
ENDBRANCH   7   9
BRANCH   7  33
ATOM     33  C11 non d ame      -8.812  19.915  66.893  0.00  0.00    -0.033 C 
ATOM     34  H12 non d ame      -8.616  20.929  67.242  0.00  0.00     0.042 H 
BRANCH  33  35
ATOM     35  C12 non d ame      -7.699  19.551  65.861  0.00  0.00    -0.071 C 
ATOM     36  H13 non d ame      -6.745  19.958  66.197  0.00  0.00     0.028 H 
ATOM     37  H14 non d ame      -7.622  18.467  65.777  0.00  0.00     0.028 H 
ATOM     38  H15 non d ame      -7.954  19.973  64.889  0.00  0.00     0.028 H 
ENDBRANCH  33  35
BRANCH  33  39
ATOM     39  C13 non d ame     -10.227  19.896  66.231  0.00  0.00    -0.071 C 
ATOM     40  H16 non d ame     -10.177  20.374  65.254  0.00  0.00     0.028 H 
ATOM     41  H17 non d ame     -10.560  18.864  66.115  0.00  0.00     0.028 H 
ATOM     42  H18 non d ame     -10.930  20.436  66.865  0.00  0.00     0.028 H 
ENDBRANCH  33  39
ENDBRANCH   7  33
ENDBRANCH   4   7
ENDBRANCH   1   3
BRANCH   1  43
ATOM     43  C15 non d ame     -10.440  14.734  68.332  0.00  0.00     0.240 C 
ATOM     44  O5  non d ame      -9.446  14.591  68.970  0.00  0.00    -0.271 OA
ATOM     45  N6  non d ame     -11.715  14.118  68.798  0.00  0.00    -0.355 N 
ATOM     46  H46 non d ame     -12.566  14.236  68.268  0.00  0.00     0.162 HD
BRANCH  45  47
ATOM     47  C20 non d ame     -11.733  13.326  70.047  0.00  0.00     0.013 C 
ATOM     48  H30 non d ame     -10.839  13.579  70.617  0.00  0.00     0.072 H 
BRANCH  47  49
ATOM     49  C21 non d ame     -11.726  11.853  69.705  0.00  0.00    -0.038 C 
ATOM     50  H31 non d ame     -10.773  11.470  70.071  0.00  0.00     0.036 H 
ATOM     51  H32 non d ame     -12.662  11.456  70.100  0.00  0.00     0.036 H 
BRANCH  49  52
ATOM     52  C22 non d ame     -11.749  11.590  68.184  0.00  0.00     0.018 C 
ATOM     53  H33 non d ame     -12.798  11.446  67.924  0.00  0.00     0.048 H 
ATOM     54  H34 non d ame     -11.184  12.407  67.735  0.00  0.00     0.048 H 
BRANCH  52  55
ATOM     55  C23 non d ame     -11.022  10.283  67.764  0.00  0.00     0.259 C 
ATOM     56  O7  non d ame     -10.597   9.539  68.587  0.00  0.00    -0.265 OA
BRANCH  55  57
ATOM     57  O8  non d ame     -10.855   9.990  66.383  0.00  0.00    -0.317 OA
BRANCH  57  58
ATOM     58  C29 non d ame      -9.613   9.356  66.066  0.00  0.00     0.052 C 
ATOM     59  H47 non d ame      -8.895   9.732  66.795  0.00  0.00     0.082 H 
ATOM     60  H48 non d ame      -9.830   8.289  66.016  0.00  0.00     0.082 H 
BRANCH  58  61
ATOM     61  C35 non d ame      -9.177   9.835  64.656  0.00  0.00    -0.034 A 
ATOM     62  C30 non d ame      -8.205   9.132  63.951  0.00  0.00    -0.075 A 
ATOM     63  C31 non d ame      -7.813   9.562  62.685  0.00  0.00    -0.082 A 
ATOM     64  H49 non d ame      -7.750   8.246  64.392  0.00  0.00     0.084 H 
ATOM     65  C32 non d ame      -8.396  10.701  62.123  0.00  0.00    -0.083 A 
ATOM     66  H50 non d ame      -7.052   9.009  62.135  0.00  0.00     0.083 H 
ATOM     67  C33 non d ame      -9.364  11.401  62.830  0.00  0.00    -0.082 A 
ATOM     68  H51 non d ame      -8.096  11.044  61.133  0.00  0.00     0.083 H 
ATOM     69  C34 non d ame      -9.760  10.973  64.096  0.00  0.00    -0.075 A 
ATOM     70  H52 non d ame      -9.815  12.291  62.390  0.00  0.00     0.083 H 
ATOM     71  H53 non d ame     -10.522  11.528  64.646  0.00  0.00     0.084 H 
ENDBRANCH  58  61
ENDBRANCH  57  58
ENDBRANCH  55  57
ENDBRANCH  52  55
ENDBRANCH  49  52
ENDBRANCH  47  49
BRANCH  47  72
ATOM     72  C24 non d ame     -12.987  13.658  70.851  0.00  0.00    -0.039 C 
ATOM     73  H35 non d ame     -13.822  13.488  70.170  0.00  0.00     0.036 H 
ATOM     74  H36 non d ame     -12.907  13.076  71.769  0.00  0.00     0.036 H 
BRANCH  72  75
ATOM     75  C25 non d ame     -13.029  15.203  71.273  0.00  0.00    -0.001 C 
ATOM     76  C26 non d ame     -11.827  15.523  72.348  0.00  0.00    -0.035 C 
ATOM     77  C27 non d ame     -12.359  16.150  73.424  0.00  0.00     0.085 C 
ATOM     78  H38 non d ame     -11.438  14.593  72.761  0.00  0.00     0.036 H 
ATOM     79  H39 non d ame     -11.142  16.264  71.934  0.00  0.00     0.036 H 
ATOM     80  N5  non d ame     -13.857  15.995  73.330  0.00  0.00    -0.049 N 
ATOM     81  H40 non d ame     -11.998  15.596  74.292  0.00  0.00     0.075 H 
ATOM     82  H41 non d ame     -12.103  17.202  73.304  0.00  0.00     0.075 H 
ATOM     83  C28 non d ame     -14.159  15.507  71.820  0.00  0.00     0.193 C 
ATOM     84  H42 non d ame     -14.109  15.250  73.964  0.00  0.00     0.280 HD
ATOM     85  H43 non d ame     -14.249  16.917  73.454  0.00  0.00     0.280 HD
ATOM     86  H44 non d ame     -14.556  16.205  71.082  0.00  0.00     0.129 H 
ATOM     87  H37 non d ame     -13.113  15.864  70.411  0.00  0.00     0.046 H 
BRANCH  83  88
ATOM     88  O6  non d ame     -15.067  14.405  71.831  0.00  0.00    -0.369 OA
ATOM     89  H45 non d ame     -15.860  14.639  71.343  0.00  0.00     0.212 HD
ENDBRANCH  83  88
ENDBRANCH  72  75
ENDBRANCH  47  72
ENDBRANCH  45  47
ENDBRANCH   1  43
BRANCH   1  90
ATOM     90  C16 non d ame      -9.979  14.685  65.861  0.00  0.00    -0.035 C 
ATOM     91  H21 non d ame      -9.140  15.203  65.395  0.00  0.00     0.037 H 
ATOM     92  H22 non d ame      -9.836  13.695  66.291  0.00  0.00     0.037 H 
BRANCH  90  93
ATOM     93  C17 non d ame     -11.072  14.534  64.756  0.00  0.00    -0.059 C 
ATOM     94  H23 non d ame     -10.599  14.088  63.881  0.00  0.00     0.038 H 
BRANCH  93  95
ATOM     95  C18 non d ame     -12.236  13.593  65.201  0.00  0.00    -0.073 C 
ATOM     96  H24 non d ame     -12.821  13.301  64.329  0.00  0.00     0.028 H 
ATOM     97  H25 non d ame     -11.822  12.702  65.674  0.00  0.00     0.028 H 
ATOM     98  H26 non d ame     -12.876  14.117  65.911  0.00  0.00     0.028 H 
ENDBRANCH  93  95
BRANCH  93  99
ATOM     99  C19 non d ame     -11.611  15.903  64.330  0.00  0.00    -0.073 C 
ATOM    100  H27 non d ame     -11.694  15.938  63.243  0.00  0.00     0.028 H 
ATOM    101  H28 non d ame     -12.593  16.062  64.775  0.00  0.00     0.028 H 
ATOM    102  H29 non d ame     -10.928  16.682  64.666  0.00  0.00     0.028 H 
ENDBRANCH  93  99
ENDBRANCH  90  93
ENDBRANCH   1  90
TORSDOF 26
ENDMDL
MODEL 16
REMARK VINA RESULT:      -6.4      3.202      6.567
REMARK  26 active torsions:
REMARK  status: ('A' for Active; 'I' for Inactive)
REMARK    1  A    between atoms: C2_2  and  C3_3 
REMARK    2  A    between atoms: C4_6  and  C5_7 
REMARK       I    between atoms: C5_7  and  N2_9 
REMARK    3  A    between atoms: N2_9  and  C6_10 
REMARK    4  A    between atoms: C6_10  and  C7_11 
REMARK    5  A    between atoms: C6_10  and  C8_13 
REMARK       I    between atoms: C7_11  and  N3_14 
REMARK    6  A    between atoms: N3_14  and  C9_15 
REMARK    7  A    between atoms: C9_15  and  C10_16 
REMARK    8  A    between atoms: C9_15  and  C11_18 
REMARK       I    between atoms: C10_16  and  N4_21 
REMARK    9  A    between atoms: C11_18  and  C12_19 
REMARK   10  A    between atoms: C11_18  and  C13_20 
REMARK   11  A    between atoms: N4_21  and  C14_22 
REMARK   12  A    between atoms: C14_22  and  C15_23 
REMARK   13  A    between atoms: C14_22  and  C16_25 
REMARK       I    between atoms: C15_23  and  N6_40 
REMARK   14  A    between atoms: C16_25  and  C17_26 
REMARK   15  A    between atoms: C17_26  and  C18_27 
REMARK   16  A    between atoms: C17_26  and  C19_28 
REMARK   17  A    between atoms: C20_29  and  C21_30 
REMARK   18  A    between atoms: C20_29  and  C24_33 
REMARK   19  A    between atoms: C20_29  and  N6_40 
REMARK   20  A    between atoms: C21_30  and  C22_31 
REMARK   21  A    between atoms: C22_31  and  C23_32 
REMARK   22  A    between atoms: C23_32  and  O8_43 
REMARK   23  A    between atoms: C24_33  and  C25_34 
REMARK   24  A    between atoms: C28_38  and  O6_39 
REMARK   25  A    between atoms: C29_42  and  O8_43 
REMARK   26  A    between atoms: C29_42  and  C35_49 
ROOT
ATOM      1  C14 non d ame      -6.190  11.702  69.437  0.00  0.00     0.089 C 
ATOM      2  H20 non d ame      -5.487  11.674  68.605  0.00  0.00     0.087 H 
ENDROOT
BRANCH   1   3
ATOM      3  N4  non d ame      -7.124  12.789  69.188  0.00  0.00    -0.346 N 
ATOM      4  C10 non d ame      -6.896  13.740  68.039  0.00  0.00     0.241 C 
ATOM      5  O4  non d ame      -5.952  13.610  67.331  0.00  0.00    -0.271 OA
ATOM      6  H19 non d ame      -7.919  12.884  69.804  0.00  0.00     0.163 HD
BRANCH   4   7
ATOM      7  C9  non d ame      -7.875  14.857  67.791  0.00  0.00     0.092 C 
ATOM      8  H11 non d ame      -7.807  15.170  66.750  0.00  0.00     0.088 H 
BRANCH   7   9
ATOM      9  N3  non d ame      -9.240  14.367  68.006  0.00  0.00    -0.346 N 
ATOM     10  C7  non d ame     -10.205  14.427  66.937  0.00  0.00     0.240 C 
ATOM     11  O3  non d ame      -9.901  14.868  65.896  0.00  0.00    -0.271 OA
ATOM     12  H10 non d ame      -9.518  13.985  68.899  0.00  0.00     0.163 HD
BRANCH  10  13
ATOM     13  C6  non d ame     -11.657  13.907  67.173  0.00  0.00     0.086 C 
ATOM     14  H6  non d ame     -11.694  12.837  67.379  0.00  0.00     0.086 H 
BRANCH  13  15
ATOM     15  N2  non d ame     -12.212  14.574  68.339  0.00  0.00    -0.343 N 
ATOM     16  C5  non d ame     -12.117  13.931  69.651  0.00  0.00     0.273 C 
ATOM     17  O2  non d ame     -11.595  12.876  69.758  0.00  0.00    -0.266 OA
ATOM     18  H5  non d ame     -12.659  15.474  68.239  0.00  0.00     0.163 HD
BRANCH  16  19
ATOM     19  C4  non d ame     -12.697  14.625  70.893  0.00  0.00     0.154 A 
ATOM     20  C1  non d ame     -11.980  15.074  72.047  0.00  0.00    -0.017 A 
ATOM     21  C2  non d ame     -12.963  15.638  72.891  0.00  0.00     0.077 A 
ATOM     22  H1  non d ame     -10.909  15.002  72.243  0.00  0.00     0.091 H 
ATOM     23  O1  non d ame     -14.108  15.523  72.282  0.00  0.00    -0.218 OA
ATOM     24  N1  non d ame     -13.978  14.935  71.115  0.00  0.00    -0.123 NA
BRANCH  21  25
ATOM     25  C3  non d ame     -12.726  16.266  74.257  0.00  0.00    -0.029 C 
ATOM     26  H2  non d ame     -13.683  16.539  74.704  0.00  0.00     0.036 H 
ATOM     27  H3  non d ame     -12.215  15.551  74.902  0.00  0.00     0.036 H 
ATOM     28  H4  non d ame     -12.110  17.159  74.146  0.00  0.00     0.036 H 
ENDBRANCH  21  25
ENDBRANCH  16  19
ENDBRANCH  13  15
BRANCH  13  29
ATOM     29  C8  non d ame     -12.503  14.200  65.960  0.00  0.00    -0.049 C 
ATOM     30  H7  non d ame     -13.481  13.732  66.077  0.00  0.00     0.030 H 
ATOM     31  H8  non d ame     -12.627  15.279  65.856  0.00  0.00     0.030 H 
ATOM     32  H9  non d ame     -12.014  13.802  65.072  0.00  0.00     0.030 H 
ENDBRANCH  13  29
ENDBRANCH  10  13
ENDBRANCH   7   9
BRANCH   7  33
ATOM     33  C11 non d ame      -7.586  16.028  68.775  0.00  0.00    -0.033 C 
ATOM     34  H12 non d ame      -7.799  15.671  69.783  0.00  0.00     0.042 H 
BRANCH  33  35
ATOM     35  C12 non d ame      -6.084  16.448  68.733  0.00  0.00    -0.071 C 
ATOM     36  H13 non d ame      -5.638  16.109  67.798  0.00  0.00     0.028 H 
ATOM     37  H14 non d ame      -6.007  17.533  68.800  0.00  0.00     0.028 H 
ATOM     38  H15 non d ame      -5.557  15.995  69.573  0.00  0.00     0.028 H 
ENDBRANCH  33  35
BRANCH  33  39
ATOM     39  C13 non d ame      -8.522  17.245  68.486  0.00  0.00    -0.071 C 
ATOM     40  H16 non d ame      -8.028  17.927  67.795  0.00  0.00     0.028 H 
ATOM     41  H17 non d ame      -9.454  16.890  68.044  0.00  0.00     0.028 H 
ATOM     42  H18 non d ame      -8.738  17.766  69.418  0.00  0.00     0.028 H 
ENDBRANCH  33  39
ENDBRANCH   7  33
ENDBRANCH   4   7
ENDBRANCH   1   3
BRANCH   1  43
ATOM     43  C15 non d ame      -6.996  10.378  69.570  0.00  0.00     0.240 C 
ATOM     44  O5  non d ame      -6.426   9.334  69.550  0.00  0.00    -0.271 OA
ATOM     45  N6  non d ame      -8.477  10.410  69.730  0.00  0.00    -0.355 N 
ATOM     46  H46 non d ame      -8.972  11.290  69.752  0.00  0.00     0.162 HD
BRANCH  45  47
ATOM     47  C20 non d ame      -9.229   9.142  69.856  0.00  0.00     0.013 C 
ATOM     48  H30 non d ame      -8.507   8.326  69.875  0.00  0.00     0.072 H 
BRANCH  47  49
ATOM     49  C21 non d ame     -10.152   8.988  68.668  0.00  0.00    -0.038 C 
ATOM     50  H31 non d ame      -9.580   8.438  67.920  0.00  0.00     0.036 H 
ATOM     51  H32 non d ame     -11.076   8.567  69.067  0.00  0.00     0.036 H 
BRANCH  49  52
ATOM     52  C22 non d ame     -10.530  10.338  68.023  0.00  0.00     0.018 C 
ATOM     53  H33 non d ame     -11.571  10.237  67.714  0.00  0.00     0.048 H 
ATOM     54  H34 non d ame     -10.249  11.102  68.749  0.00  0.00     0.048 H 
BRANCH  52  55
ATOM     55  C23 non d ame      -9.730  10.660  66.730  0.00  0.00     0.259 C 
ATOM     56  O7  non d ame      -8.781  11.374  66.771  0.00  0.00    -0.265 OA
BRANCH  55  57
ATOM     57  O8  non d ame     -10.153  10.104  65.492  0.00  0.00    -0.317 OA
BRANCH  57  58
ATOM     58  C29 non d ame      -9.351   9.008  65.040  0.00  0.00     0.052 C 
ATOM     59  H47 non d ame      -8.572   8.884  65.791  0.00  0.00     0.082 H 
ATOM     60  H48 non d ame     -10.049   8.195  64.839  0.00  0.00     0.082 H 
BRANCH  58  61
ATOM     61  C35 non d ame      -8.683   9.424  63.703  0.00  0.00    -0.034 A 
ATOM     62  C30 non d ame      -8.985  10.652  63.125  0.00  0.00    -0.075 A 
ATOM     63  C31 non d ame      -8.385  11.025  61.923  0.00  0.00    -0.082 A 
ATOM     64  H49 non d ame      -9.692  11.323  63.614  0.00  0.00     0.084 H 
ATOM     65  C32 non d ame      -7.481  10.163  61.298  0.00  0.00    -0.083 A 
ATOM     66  H50 non d ame      -8.623  11.989  61.474  0.00  0.00     0.083 H 
ATOM     67  C33 non d ame      -7.185   8.936  61.876  0.00  0.00    -0.082 A 
ATOM     68  H51 non d ame      -7.008  10.447  60.358  0.00  0.00     0.083 H 
ATOM     69  C34 non d ame      -7.781   8.560  63.078  0.00  0.00    -0.075 A 
ATOM     70  H52 non d ame      -6.481   8.264  61.384  0.00  0.00     0.083 H 
ATOM     71  H53 non d ame      -7.542   7.595  63.527  0.00  0.00     0.084 H 
ENDBRANCH  58  61
ENDBRANCH  57  58
ENDBRANCH  55  57
ENDBRANCH  52  55
ENDBRANCH  49  52
ENDBRANCH  47  49
BRANCH  47  72
ATOM     72  C24 non d ame     -10.051   9.155  71.142  0.00  0.00    -0.039 C 
ATOM     73  H35 non d ame      -9.589   8.410  71.790  0.00  0.00     0.036 H 
ATOM     74  H36 non d ame     -10.087  10.200  71.453  0.00  0.00     0.036 H 
BRANCH  72  75
ATOM     75  C25 non d ame     -11.561   8.687  70.885  0.00  0.00    -0.001 C 
ATOM     76  C26 non d ame     -12.601   9.888  71.310  0.00  0.00    -0.035 C 
ATOM     77  C27 non d ame     -13.541   9.378  72.141  0.00  0.00     0.085 C 
ATOM     78  H38 non d ame     -12.088  10.624  71.928  0.00  0.00     0.036 H 
ATOM     79  H39 non d ame     -13.176  10.210  70.441  0.00  0.00     0.036 H 
ATOM     80  N5  non d ame     -13.051   8.019  72.581  0.00  0.00    -0.049 N 
ATOM     81  H40 non d ame     -13.561  10.045  73.003  0.00  0.00     0.075 H 
ATOM     82  H41 non d ame     -14.433   9.251  71.528  0.00  0.00     0.075 H 
ATOM     83  C28 non d ame     -11.848   7.634  71.575  0.00  0.00     0.193 C 
ATOM     84  H42 non d ame     -12.669   8.139  73.508  0.00  0.00     0.280 HD
ATOM     85  H43 non d ame     -13.815   7.376  72.430  0.00  0.00     0.280 HD
ATOM     86  H44 non d ame     -12.005   6.909  70.776  0.00  0.00     0.129 H 
ATOM     87  H37 non d ame     -11.693   8.243  69.898  0.00  0.00     0.046 H 
BRANCH  83  88
ATOM     88  O6  non d ame     -10.725   7.151  72.314  0.00  0.00    -0.369 OA
ATOM     89  H45 non d ame     -10.780   7.462  73.220  0.00  0.00     0.212 HD
ENDBRANCH  83  88
ENDBRANCH  72  75
ENDBRANCH  47  72
ENDBRANCH  45  47
ENDBRANCH   1  43
BRANCH   1  90
ATOM     90  C16 non d ame      -5.442  11.976  70.733  0.00  0.00    -0.035 C 
ATOM     91  H21 non d ame      -5.987  12.789  71.214  0.00  0.00     0.037 H 
ATOM     92  H22 non d ame      -5.358  11.010  71.228  0.00  0.00     0.037 H 
BRANCH  90  93
ATOM     93  C17 non d ame      -3.984  12.491  70.518  0.00  0.00    -0.059 C 
ATOM     94  H23 non d ame      -3.373  12.104  71.333  0.00  0.00     0.038 H 
BRANCH  93  95
ATOM     95  C18 non d ame      -3.369  11.978  69.177  0.00  0.00    -0.073 C 
ATOM     96  H24 non d ame      -2.978  12.823  68.610  0.00  0.00     0.028 H 
ATOM     97  H25 non d ame      -2.559  11.281  69.392  0.00  0.00     0.028 H 
ATOM     98  H26 non d ame      -4.138  11.473  68.594  0.00  0.00     0.028 H 
ENDBRANCH  93  95
BRANCH  93  99
ATOM     99  C19 non d ame      -3.927  14.019  70.594  0.00  0.00    -0.073 C 
ATOM    100  H27 non d ame      -3.268  14.318  71.409  0.00  0.00     0.028 H 
ATOM    101  H28 non d ame      -3.545  14.416  69.653  0.00  0.00     0.028 H 
ATOM    102  H29 non d ame      -4.928  14.411  70.774  0.00  0.00     0.028 H 
ENDBRANCH  93  99
ENDBRANCH  90  93
ENDBRANCH   1  90
TORSDOF 26
ENDMDL
MODEL 17
REMARK VINA RESULT:      -6.4      2.930      7.585
REMARK  26 active torsions:
REMARK  status: ('A' for Active; 'I' for Inactive)
REMARK    1  A    between atoms: C2_2  and  C3_3 
REMARK    2  A    between atoms: C4_6  and  C5_7 
REMARK       I    between atoms: C5_7  and  N2_9 
REMARK    3  A    between atoms: N2_9  and  C6_10 
REMARK    4  A    between atoms: C6_10  and  C7_11 
REMARK    5  A    between atoms: C6_10  and  C8_13 
REMARK       I    between atoms: C7_11  and  N3_14 
REMARK    6  A    between atoms: N3_14  and  C9_15 
REMARK    7  A    between atoms: C9_15  and  C10_16 
REMARK    8  A    between atoms: C9_15  and  C11_18 
REMARK       I    between atoms: C10_16  and  N4_21 
REMARK    9  A    between atoms: C11_18  and  C12_19 
REMARK   10  A    between atoms: C11_18  and  C13_20 
REMARK   11  A    between atoms: N4_21  and  C14_22 
REMARK   12  A    between atoms: C14_22  and  C15_23 
REMARK   13  A    between atoms: C14_22  and  C16_25 
REMARK       I    between atoms: C15_23  and  N6_40 
REMARK   14  A    between atoms: C16_25  and  C17_26 
REMARK   15  A    between atoms: C17_26  and  C18_27 
REMARK   16  A    between atoms: C17_26  and  C19_28 
REMARK   17  A    between atoms: C20_29  and  C21_30 
REMARK   18  A    between atoms: C20_29  and  C24_33 
REMARK   19  A    between atoms: C20_29  and  N6_40 
REMARK   20  A    between atoms: C21_30  and  C22_31 
REMARK   21  A    between atoms: C22_31  and  C23_32 
REMARK   22  A    between atoms: C23_32  and  O8_43 
REMARK   23  A    between atoms: C24_33  and  C25_34 
REMARK   24  A    between atoms: C28_38  and  O6_39 
REMARK   25  A    between atoms: C29_42  and  O8_43 
REMARK   26  A    between atoms: C29_42  and  C35_49 
ROOT
ATOM      1  C14 non d ame      -6.779  14.023  68.635  0.00  0.00     0.089 C 
ATOM      2  H20 non d ame      -5.923  14.216  67.989  0.00  0.00     0.087 H 
ENDROOT
BRANCH   1   3
ATOM      3  N4  non d ame      -7.941  14.651  68.023  0.00  0.00    -0.346 N 
ATOM      4  C10 non d ame      -7.766  15.773  67.031  0.00  0.00     0.241 C 
ATOM      5  O4  non d ame      -6.680  16.155  66.742  0.00  0.00    -0.271 OA
ATOM      6  H19 non d ame      -8.856  14.312  68.285  0.00  0.00     0.163 HD
BRANCH   4   7
ATOM      7  C9  non d ame      -8.979  16.407  66.403  0.00  0.00     0.092 C 
ATOM      8  H11 non d ame      -8.912  16.315  65.319  0.00  0.00     0.088 H 
BRANCH   7   9
ATOM      9  N3  non d ame     -10.182  15.684  66.824  0.00  0.00    -0.346 N 
ATOM     10  C7  non d ame     -10.663  14.568  66.048  0.00  0.00     0.240 C 
ATOM     11  O3  non d ame     -10.093  14.239  65.080  0.00  0.00    -0.271 OA
ATOM     12  H10 non d ame     -10.685  15.958  67.656  0.00  0.00     0.163 HD
BRANCH  10  13
ATOM     13  C6  non d ame     -11.946  13.805  66.500  0.00  0.00     0.086 C 
ATOM     14  H6  non d ame     -11.758  12.754  66.718  0.00  0.00     0.086 H 
BRANCH  13  15
ATOM     15  N2  non d ame     -12.440  14.402  67.730  0.00  0.00    -0.343 N 
ATOM     16  C5  non d ame     -11.747  14.131  68.992  0.00  0.00     0.273 C 
ATOM     17  O2  non d ame     -10.796  13.430  69.007  0.00  0.00    -0.266 OA
ATOM     18  H5  non d ame     -13.255  14.998  67.709  0.00  0.00     0.163 HD
BRANCH  16  19
ATOM     19  C4  non d ame     -12.257  14.757  70.300  0.00  0.00     0.154 A 
ATOM     20  C1  non d ame     -11.687  14.617  71.605  0.00  0.00    -0.017 A 
ATOM     21  C2  non d ame     -12.522  15.381  72.451  0.00  0.00     0.077 A 
ATOM     22  H1  non d ame     -10.803  14.048  71.895  0.00  0.00     0.091 H 
ATOM     23  O1  non d ame     -13.458  15.897  71.708  0.00  0.00    -0.218 OA
ATOM     24  N1  non d ame     -13.325  15.546  70.449  0.00  0.00    -0.123 NA
BRANCH  21  25
ATOM     25  C3  non d ame     -12.356  15.567  73.952  0.00  0.00    -0.029 C 
ATOM     26  H2  non d ame     -12.132  14.606  74.417  0.00  0.00     0.036 H 
ATOM     27  H3  non d ame     -11.539  16.262  74.144  0.00  0.00     0.036 H 
ATOM     28  H4  non d ame     -13.278  15.967  74.374  0.00  0.00     0.036 H 
ENDBRANCH  21  25
ENDBRANCH  16  19
ENDBRANCH  13  15
BRANCH  13  29
ATOM     29  C8  non d ame     -12.996  13.899  65.423  0.00  0.00    -0.049 C 
ATOM     30  H7  non d ame     -13.038  14.920  65.043  0.00  0.00     0.030 H 
ATOM     31  H8  non d ame     -12.743  13.219  64.609  0.00  0.00     0.030 H 
ATOM     32  H9  non d ame     -13.966  13.627  65.837  0.00  0.00     0.030 H 
ENDBRANCH  13  29
ENDBRANCH  10  13
ENDBRANCH   7   9
BRANCH   7  33
ATOM     33  C11 non d ame      -9.082  17.892  66.859  0.00  0.00    -0.033 C 
ATOM     34  H12 non d ame      -8.214  18.419  66.462  0.00  0.00     0.042 H 
BRANCH  33  35
ATOM     35  C12 non d ame     -10.355  18.579  66.272  0.00  0.00    -0.071 C 
ATOM     36  H13 non d ame     -10.089  19.561  65.879  0.00  0.00     0.028 H 
ATOM     37  H14 non d ame     -10.762  17.965  65.469  0.00  0.00     0.028 H 
ATOM     38  H15 non d ame     -11.101  18.691  67.058  0.00  0.00     0.028 H 
ENDBRANCH  33  35
BRANCH  33  39
ATOM     39  C13 non d ame      -9.045  18.003  68.416  0.00  0.00    -0.071 C 
ATOM     40  H16 non d ame      -8.036  18.256  68.739  0.00  0.00     0.028 H 
ATOM     41  H17 non d ame      -9.738  18.780  68.743  0.00  0.00     0.028 H 
ATOM     42  H18 non d ame      -9.338  17.049  68.854  0.00  0.00     0.028 H 
ENDBRANCH  33  39
ENDBRANCH   7  33
ENDBRANCH   4   7
ENDBRANCH   1   3
BRANCH   1  43
ATOM     43  C15 non d ame      -7.064  12.502  68.795  0.00  0.00     0.240 C 
ATOM     44  O5  non d ame      -6.328  11.827  69.441  0.00  0.00    -0.271 OA
ATOM     45  N6  non d ame      -8.260  11.888  68.150  0.00  0.00    -0.355 N 
ATOM     46  H46 non d ame      -8.894  12.452  67.603  0.00  0.00     0.162 HD
BRANCH  45  47
ATOM     47  C20 non d ame      -8.517  10.441  68.312  0.00  0.00     0.013 C 
ATOM     48  H30 non d ame      -8.004  10.108  69.215  0.00  0.00     0.072 H 
BRANCH  47  49
ATOM     49  C21 non d ame      -7.980   9.699  67.110  0.00  0.00    -0.038 C 
ATOM     50  H31 non d ame      -6.959   9.416  67.370  0.00  0.00     0.036 H 
ATOM     51  H32 non d ame      -8.719   8.930  66.884  0.00  0.00     0.036 H 
BRANCH  49  52
ATOM     52  C22 non d ame      -7.879  10.589  65.852  0.00  0.00     0.018 C 
ATOM     53  H33 non d ame      -8.162  11.591  66.175  0.00  0.00     0.048 H 
ATOM     54  H34 non d ame      -6.885  10.408  65.441  0.00  0.00     0.048 H 
BRANCH  52  55
ATOM     55  C23 non d ame      -8.884  10.202  64.731  0.00  0.00     0.259 C 
ATOM     56  O7  non d ame     -10.014   9.952  64.995  0.00  0.00    -0.265 OA
BRANCH  55  57
ATOM     57  O8  non d ame      -8.434  10.137  63.383  0.00  0.00    -0.317 OA
BRANCH  57  58
ATOM     58  C29 non d ame      -8.606   8.856  62.772  0.00  0.00     0.052 C 
ATOM     59  H47 non d ame      -9.417   8.374  63.318  0.00  0.00     0.082 H 
ATOM     60  H48 non d ame      -8.710   9.050  61.704  0.00  0.00     0.082 H 
BRANCH  58  61
ATOM     61  C35 non d ame      -7.307   8.038  62.998  0.00  0.00    -0.034 A 
ATOM     62  C30 non d ame      -6.066   8.627  62.775  0.00  0.00    -0.075 A 
ATOM     63  C31 non d ame      -4.899   7.893  62.978  0.00  0.00    -0.082 A 
ATOM     64  H49 non d ame      -6.009   9.662  62.442  0.00  0.00     0.084 H 
ATOM     65  C32 non d ame      -4.976   6.564  63.404  0.00  0.00    -0.083 A 
ATOM     66  H50 non d ame      -3.929   8.357  62.804  0.00  0.00     0.083 H 
ATOM     67  C33 non d ame      -6.216   5.979  63.622  0.00  0.00    -0.082 A 
ATOM     68  H51 non d ame      -4.068   5.982  63.565  0.00  0.00     0.083 H 
ATOM     69  C34 non d ame      -7.385   6.711  63.422  0.00  0.00    -0.075 A 
ATOM     70  H52 non d ame      -6.272   4.941  63.952  0.00  0.00     0.083 H 
ATOM     71  H53 non d ame      -8.356   6.245  63.597  0.00  0.00     0.084 H 
ENDBRANCH  58  61
ENDBRANCH  57  58
ENDBRANCH  55  57
ENDBRANCH  52  55
ENDBRANCH  49  52
ENDBRANCH  47  49
BRANCH  47  72
ATOM     72  C24 non d ame     -10.019  10.195  68.434  0.00  0.00    -0.039 C 
ATOM     73  H35 non d ame     -10.494  11.074  67.999  0.00  0.00     0.036 H 
ATOM     74  H36 non d ame     -10.189   9.211  67.995  0.00  0.00     0.036 H 
BRANCH  72  75
ATOM     75  C25 non d ame     -10.485  10.115  69.965  0.00  0.00    -0.001 C 
ATOM     76  C26 non d ame     -10.163   8.621  70.572  0.00  0.00    -0.035 C 
ATOM     77  C27 non d ame     -11.287   8.132  71.148  0.00  0.00     0.085 C 
ATOM     78  H38 non d ame      -9.969   7.922  69.759  0.00  0.00     0.036 H 
ATOM     79  H39 non d ame      -9.462   8.698  71.403  0.00  0.00     0.036 H 
ATOM     80  N5  non d ame     -12.429   9.014  70.706  0.00  0.00    -0.049 N 
ATOM     81  H40 non d ame     -11.422   7.136  70.726  0.00  0.00     0.075 H 
ATOM     82  H41 non d ame     -11.140   8.255  72.221  0.00  0.00     0.075 H 
ATOM     83  C28 non d ame     -11.751  10.340  70.081  0.00  0.00     0.193 C 
ATOM     84  H42 non d ame     -12.904   8.517  69.966  0.00  0.00     0.280 HD
ATOM     85  H43 non d ame     -12.932   9.274  71.542  0.00  0.00     0.280 HD
ATOM     86  H44 non d ame     -11.737  11.273  70.645  0.00  0.00     0.129 H 
ATOM     87  H37 non d ame     -10.141  10.971  70.546  0.00  0.00     0.046 H 
BRANCH  83  88
ATOM     88  O6  non d ame     -12.359  10.660  68.828  0.00  0.00    -0.369 OA
ATOM     89  H45 non d ame     -13.300  10.478  68.874  0.00  0.00     0.212 HD
ENDBRANCH  83  88
ENDBRANCH  72  75
ENDBRANCH  47  72
ENDBRANCH  45  47
ENDBRANCH   1  43
BRANCH   1  90
ATOM     90  C16 non d ame      -6.541  14.645  70.003  0.00  0.00    -0.035 C 
ATOM     91  H21 non d ame      -7.380  15.323  70.161  0.00  0.00     0.037 H 
ATOM     92  H22 non d ame      -6.386  13.804  70.678  0.00  0.00     0.037 H 
BRANCH  90  93
ATOM     93  C17 non d ame      -5.249  15.518  70.078  0.00  0.00    -0.059 C 
ATOM     94  H23 non d ame      -4.786  15.340  71.049  0.00  0.00     0.038 H 
BRANCH  93  95
ATOM     95  C18 non d ame      -4.211  15.132  68.977  0.00  0.00    -0.073 C 
ATOM     96  H24 non d ame      -4.723  15.005  68.023  0.00  0.00     0.028 H 
ATOM     97  H25 non d ame      -3.466  15.923  68.886  0.00  0.00     0.028 H 
ATOM     98  H26 non d ame      -3.718  14.200  69.252  0.00  0.00     0.028 H 
ENDBRANCH  93  95
BRANCH  93  99
ATOM     99  C19 non d ame      -5.592  17.008  70.005  0.00  0.00    -0.073 C 
ATOM    100  H27 non d ame      -6.039  17.324  70.948  0.00  0.00     0.028 H 
ATOM    101  H28 non d ame      -4.683  17.582  69.824  0.00  0.00     0.028 H 
ATOM    102  H29 non d ame      -6.298  17.179  69.193  0.00  0.00     0.028 H 
ENDBRANCH  93  99
ENDBRANCH  90  93
ENDBRANCH   1  90
TORSDOF 26
ENDMDL
MODEL 18
REMARK VINA RESULT:      -6.4      2.218      6.107
REMARK  26 active torsions:
REMARK  status: ('A' for Active; 'I' for Inactive)
REMARK    1  A    between atoms: C2_2  and  C3_3 
REMARK    2  A    between atoms: C4_6  and  C5_7 
REMARK       I    between atoms: C5_7  and  N2_9 
REMARK    3  A    between atoms: N2_9  and  C6_10 
REMARK    4  A    between atoms: C6_10  and  C7_11 
REMARK    5  A    between atoms: C6_10  and  C8_13 
REMARK       I    between atoms: C7_11  and  N3_14 
REMARK    6  A    between atoms: N3_14  and  C9_15 
REMARK    7  A    between atoms: C9_15  and  C10_16 
REMARK    8  A    between atoms: C9_15  and  C11_18 
REMARK       I    between atoms: C10_16  and  N4_21 
REMARK    9  A    between atoms: C11_18  and  C12_19 
REMARK   10  A    between atoms: C11_18  and  C13_20 
REMARK   11  A    between atoms: N4_21  and  C14_22 
REMARK   12  A    between atoms: C14_22  and  C15_23 
REMARK   13  A    between atoms: C14_22  and  C16_25 
REMARK       I    between atoms: C15_23  and  N6_40 
REMARK   14  A    between atoms: C16_25  and  C17_26 
REMARK   15  A    between atoms: C17_26  and  C18_27 
REMARK   16  A    between atoms: C17_26  and  C19_28 
REMARK   17  A    between atoms: C20_29  and  C21_30 
REMARK   18  A    between atoms: C20_29  and  C24_33 
REMARK   19  A    between atoms: C20_29  and  N6_40 
REMARK   20  A    between atoms: C21_30  and  C22_31 
REMARK   21  A    between atoms: C22_31  and  C23_32 
REMARK   22  A    between atoms: C23_32  and  O8_43 
REMARK   23  A    between atoms: C24_33  and  C25_34 
REMARK   24  A    between atoms: C28_38  and  O6_39 
REMARK   25  A    between atoms: C29_42  and  O8_43 
REMARK   26  A    between atoms: C29_42  and  C35_49 
ROOT
ATOM      1  C14 non d ame     -10.745   9.352  68.677  0.00  0.00     0.089 C 
ATOM      2  H20 non d ame     -11.665   8.770  68.739  0.00  0.00     0.087 H 
ENDROOT
BRANCH   1   3
ATOM      3  N4  non d ame      -9.870   8.689  67.722  0.00  0.00    -0.346 N 
ATOM      4  C10 non d ame     -10.231   7.333  67.172  0.00  0.00     0.241 C 
ATOM      5  O4  non d ame     -11.231   6.793  67.515  0.00  0.00    -0.271 OA
ATOM      6  H19 non d ame      -9.022   9.165  67.445  0.00  0.00     0.163 HD
BRANCH   4   7
ATOM      7  C9  non d ame      -9.317   6.664  66.180  0.00  0.00     0.092 C 
ATOM      8  H11 non d ame      -9.843   5.833  65.710  0.00  0.00     0.088 H 
BRANCH   7   9
ATOM      9  N3  non d ame      -8.971   7.612  65.117  0.00  0.00    -0.346 N 
ATOM     10  C7  non d ame      -7.893   8.550  65.309  0.00  0.00     0.240 C 
ATOM     11  O3  non d ame      -7.294   8.557  66.315  0.00  0.00    -0.271 OA
ATOM     12  H10 non d ame      -9.480   7.619  64.245  0.00  0.00     0.163 HD
BRANCH  10  13
ATOM     13  C6  non d ame      -7.532   9.558  64.175  0.00  0.00     0.086 C 
ATOM     14  H6  non d ame      -7.798   9.192  63.183  0.00  0.00     0.086 H 
BRANCH  13  15
ATOM     15  N2  non d ame      -8.284  10.785  64.379  0.00  0.00    -0.343 N 
ATOM     16  C5  non d ame      -9.635  10.903  63.826  0.00  0.00     0.273 C 
ATOM     17  O2  non d ame     -10.106  10.007  63.216  0.00  0.00    -0.266 OA
ATOM     18  H5  non d ame      -7.873  11.547  64.899  0.00  0.00     0.163 HD
BRANCH  16  19
ATOM     19  C4  non d ame     -10.443  12.194  64.036  0.00  0.00     0.154 A 
ATOM     20  C1  non d ame     -10.082  13.318  64.845  0.00  0.00    -0.017 A 
ATOM     21  C2  non d ame     -11.151  14.229  64.700  0.00  0.00     0.077 A 
ATOM     22  H1  non d ame      -9.182  13.452  65.446  0.00  0.00     0.091 H 
ATOM     23  O1  non d ame     -12.019  13.684  63.897  0.00  0.00    -0.218 OA
ATOM     24  N1  non d ame     -11.628  12.496  63.498  0.00  0.00    -0.123 NA
BRANCH  21  25
ATOM     25  C3  non d ame     -11.265  15.597  65.358  0.00  0.00    -0.029 C 
ATOM     26  H2  non d ame     -12.274  15.729  65.751  0.00  0.00     0.036 H 
ATOM     27  H3  non d ame     -10.546  15.669  66.174  0.00  0.00     0.036 H 
ATOM     28  H4  non d ame     -11.058  16.374  64.622  0.00  0.00     0.036 H 
ENDBRANCH  21  25
ENDBRANCH  16  19
ENDBRANCH  13  15
BRANCH  13  29
ATOM     29  C8  non d ame      -6.053   9.848  64.207  0.00  0.00    -0.049 C 
ATOM     30  H7  non d ame      -5.818  10.442  65.091  0.00  0.00     0.030 H 
ATOM     31  H8  non d ame      -5.500   8.909  64.243  0.00  0.00     0.030 H 
ATOM     32  H9  non d ame      -5.772  10.402  63.313  0.00  0.00     0.030 H 
ENDBRANCH  13  29
ENDBRANCH  10  13
ENDBRANCH   7   9
BRANCH   7  33
ATOM     33  C11 non d ame      -8.018   6.200  66.902  0.00  0.00    -0.033 C 
ATOM     34  H12 non d ame      -7.324   7.041  66.901  0.00  0.00     0.042 H 
BRANCH  33  35
ATOM     35  C12 non d ame      -8.297   5.826  68.391  0.00  0.00    -0.071 C 
ATOM     36  H13 non d ame      -8.956   4.958  68.429  0.00  0.00     0.028 H 
ATOM     37  H14 non d ame      -7.357   5.590  68.889  0.00  0.00     0.028 H 
ATOM     38  H15 non d ame      -8.774   6.667  68.893  0.00  0.00     0.028 H 
ENDBRANCH  33  35
BRANCH  33  39
ATOM     39  C13 non d ame      -7.345   5.016  66.136  0.00  0.00    -0.071 C 
ATOM     40  H16 non d ame      -7.622   5.060  65.084  0.00  0.00     0.028 H 
ATOM     41  H17 non d ame      -6.261   5.091  66.230  0.00  0.00     0.028 H 
ATOM     42  H18 non d ame      -7.682   4.072  66.562  0.00  0.00     0.028 H 
ENDBRANCH  33  39
ENDBRANCH   7  33
ENDBRANCH   4   7
ENDBRANCH   1   3
BRANCH   1  43
ATOM     43  C15 non d ame     -11.002  10.806  68.188  0.00  0.00     0.240 C 
ATOM     44  O5  non d ame     -11.706  10.998  67.249  0.00  0.00    -0.271 OA
ATOM     45  N6  non d ame     -10.378  11.961  68.894  0.00  0.00    -0.355 N 
ATOM     46  H46 non d ame      -9.781  11.810  69.695  0.00  0.00     0.162 HD
BRANCH  45  47
ATOM     47  C20 non d ame     -10.633  13.337  68.417  0.00  0.00     0.013 C 
ATOM     48  H30 non d ame     -10.588  13.327  67.328  0.00  0.00     0.072 H 
BRANCH  47  49
ATOM     49  C21 non d ame      -9.573  14.262  68.969  0.00  0.00    -0.038 C 
ATOM     50  H31 non d ame     -10.106  15.148  69.316  0.00  0.00     0.036 H 
ATOM     51  H32 non d ame      -8.996  13.661  69.673  0.00  0.00     0.036 H 
BRANCH  49  52
ATOM     52  C22 non d ame      -8.578  14.745  67.891  0.00  0.00     0.018 C 
ATOM     53  H33 non d ame      -8.257  13.848  67.362  0.00  0.00     0.048 H 
ATOM     54  H34 non d ame      -9.091  15.542  67.352  0.00  0.00     0.048 H 
BRANCH  52  55
ATOM     55  C23 non d ame      -7.286  15.383  68.473  0.00  0.00     0.259 C 
ATOM     56  O7  non d ame      -6.769  14.923  69.439  0.00  0.00    -0.265 OA
BRANCH  55  57
ATOM     57  O8  non d ame      -6.734  16.535  67.848  0.00  0.00    -0.317 OA
BRANCH  57  58
ATOM     58  C29 non d ame      -6.941  17.750  68.575  0.00  0.00     0.052 C 
ATOM     59  H47 non d ame      -7.133  17.449  69.604  0.00  0.00     0.082 H 
ATOM     60  H48 non d ame      -6.083  18.381  68.344  0.00  0.00     0.082 H 
BRANCH  58  61
ATOM     61  C35 non d ame      -8.217  18.432  68.016  0.00  0.00    -0.034 A 
ATOM     62  C30 non d ame      -8.606  18.208  66.700  0.00  0.00    -0.075 A 
ATOM     63  C31 non d ame      -9.753  18.821  66.197  0.00  0.00    -0.082 A 
ATOM     64  H49 non d ame      -8.014  17.553  66.062  0.00  0.00     0.084 H 
ATOM     65  C32 non d ame     -10.510  19.663  67.016  0.00  0.00    -0.083 A 
ATOM     66  H50 non d ame     -10.056  18.642  65.165  0.00  0.00     0.083 H 
ATOM     67  C33 non d ame     -10.117  19.886  68.328  0.00  0.00    -0.082 A 
ATOM     68  H51 non d ame     -11.408  20.146  66.630  0.00  0.00     0.083 H 
ATOM     69  C34 non d ame      -8.972  19.273  68.835  0.00  0.00    -0.075 A 
ATOM     70  H52 non d ame     -10.708  20.545  68.964  0.00  0.00     0.083 H 
ATOM     71  H53 non d ame      -8.670  19.453  69.868  0.00  0.00     0.084 H 
ENDBRANCH  58  61
ENDBRANCH  57  58
ENDBRANCH  55  57
ENDBRANCH  52  55
ENDBRANCH  49  52
ENDBRANCH  47  49
BRANCH  47  72
ATOM     72  C24 non d ame     -12.010  13.799  68.888  0.00  0.00    -0.039 C 
ATOM     73  H35 non d ame     -12.259  14.655  68.260  0.00  0.00     0.036 H 
ATOM     74  H36 non d ame     -12.638  12.909  68.868  0.00  0.00     0.036 H 
BRANCH  72  75
ATOM     75  C25 non d ame     -11.974  14.319  70.403  0.00  0.00    -0.001 C 
ATOM     76  C26 non d ame     -12.920  13.361  71.347  0.00  0.00    -0.035 C 
ATOM     77  C27 non d ame     -13.770  14.145  72.051  0.00  0.00     0.085 C 
ATOM     78  H38 non d ame     -13.584  12.762  70.723  0.00  0.00     0.036 H 
ATOM     79  H39 non d ame     -12.317  12.882  72.118  0.00  0.00     0.036 H 
ATOM     80  N5  non d ame     -13.714  15.522  71.435  0.00  0.00    -0.049 N 
ATOM     81  H40 non d ame     -14.762  13.723  71.887  0.00  0.00     0.075 H 
ATOM     82  H41 non d ame     -13.357  14.191  73.058  0.00  0.00     0.075 H 
ATOM     83  C28 non d ame     -12.404  15.534  70.491  0.00  0.00     0.193 C 
ATOM     84  H42 non d ame     -14.533  15.607  70.849  0.00  0.00     0.280 HD
ATOM     85  H43 non d ame     -13.568  16.171  72.195  0.00  0.00     0.280 HD
ATOM     86  H44 non d ame     -11.496  16.044  70.811  0.00  0.00     0.129 H 
ATOM     87  H37 non d ame     -10.959  14.509  70.750  0.00  0.00     0.046 H 
BRANCH  83  88
ATOM     88  O6  non d ame     -12.723  16.087  69.213  0.00  0.00    -0.369 OA
ATOM     89  H45 non d ame     -13.166  16.929  69.331  0.00  0.00     0.212 HD
ENDBRANCH  83  88
ENDBRANCH  72  75
ENDBRANCH  47  72
ENDBRANCH  45  47
ENDBRANCH   1  43
BRANCH   1  90
ATOM     90  C16 non d ame     -10.064   9.383  70.037  0.00  0.00    -0.035 C 
ATOM     91  H21 non d ame      -9.240   8.673  69.963  0.00  0.00     0.037 H 
ATOM     92  H22 non d ame      -9.860  10.435  70.233  0.00  0.00     0.037 H 
BRANCH  90  93
ATOM     93  C17 non d ame     -10.972   8.884  71.204  0.00  0.00    -0.059 C 
ATOM     94  H23 non d ame     -10.388   8.937  72.123  0.00  0.00     0.038 H 
BRANCH  93  95
ATOM     95  C18 non d ame     -12.238   9.779  71.392  0.00  0.00    -0.073 C 
ATOM     96  H24 non d ame     -12.257  10.174  72.408  0.00  0.00     0.028 H 
ATOM     97  H25 non d ame     -12.207  10.606  70.682  0.00  0.00     0.028 H 
ATOM     98  H26 non d ame     -13.134   9.183  71.216  0.00  0.00     0.028 H 
ENDBRANCH  93  95
BRANCH  93  99
ATOM     99  C19 non d ame     -11.366   7.418  71.001  0.00  0.00    -0.073 C 
ATOM    100  H27 non d ame     -12.216   7.362  70.322  0.00  0.00     0.028 H 
ATOM    101  H28 non d ame     -10.524   6.871  70.576  0.00  0.00     0.028 H 
ATOM    102  H29 non d ame     -11.637   6.979  71.961  0.00  0.00     0.028 H 
ENDBRANCH  93  99
ENDBRANCH  90  93
ENDBRANCH   1  90
TORSDOF 26
ENDMDL
MODEL 19
REMARK VINA RESULT:      -6.4      2.864      7.388
REMARK  26 active torsions:
REMARK  status: ('A' for Active; 'I' for Inactive)
REMARK    1  A    between atoms: C2_2  and  C3_3 
REMARK    2  A    between atoms: C4_6  and  C5_7 
REMARK       I    between atoms: C5_7  and  N2_9 
REMARK    3  A    between atoms: N2_9  and  C6_10 
REMARK    4  A    between atoms: C6_10  and  C7_11 
REMARK    5  A    between atoms: C6_10  and  C8_13 
REMARK       I    between atoms: C7_11  and  N3_14 
REMARK    6  A    between atoms: N3_14  and  C9_15 
REMARK    7  A    between atoms: C9_15  and  C10_16 
REMARK    8  A    between atoms: C9_15  and  C11_18 
REMARK       I    between atoms: C10_16  and  N4_21 
REMARK    9  A    between atoms: C11_18  and  C12_19 
REMARK   10  A    between atoms: C11_18  and  C13_20 
REMARK   11  A    between atoms: N4_21  and  C14_22 
REMARK   12  A    between atoms: C14_22  and  C15_23 
REMARK   13  A    between atoms: C14_22  and  C16_25 
REMARK       I    between atoms: C15_23  and  N6_40 
REMARK   14  A    between atoms: C16_25  and  C17_26 
REMARK   15  A    between atoms: C17_26  and  C18_27 
REMARK   16  A    between atoms: C17_26  and  C19_28 
REMARK   17  A    between atoms: C20_29  and  C21_30 
REMARK   18  A    between atoms: C20_29  and  C24_33 
REMARK   19  A    between atoms: C20_29  and  N6_40 
REMARK   20  A    between atoms: C21_30  and  C22_31 
REMARK   21  A    between atoms: C22_31  and  C23_32 
REMARK   22  A    between atoms: C23_32  and  O8_43 
REMARK   23  A    between atoms: C24_33  and  C25_34 
REMARK   24  A    between atoms: C28_38  and  O6_39 
REMARK   25  A    between atoms: C29_42  and  O8_43 
REMARK   26  A    between atoms: C29_42  and  C35_49 
ROOT
ATOM      1  C14 non d ame     -10.483  10.925  64.513  0.00  0.00     0.089 C 
ATOM      2  H20 non d ame     -11.391  10.326  64.582  0.00  0.00     0.087 H 
ENDROOT
BRANCH   1   3
ATOM      3  N4  non d ame      -9.958  11.084  65.861  0.00  0.00    -0.346 N 
ATOM      4  C10 non d ame     -10.239  10.042  66.915  0.00  0.00     0.241 C 
ATOM      5  O4  non d ame     -10.892   9.086  66.655  0.00  0.00    -0.271 OA
ATOM      6  H19 non d ame      -9.407  11.906  66.062  0.00  0.00     0.163 HD
BRANCH   4   7
ATOM      7  C9  non d ame      -9.683  10.220  68.303  0.00  0.00     0.092 C 
ATOM      8  H11 non d ame      -8.904   9.477  68.476  0.00  0.00     0.088 H 
BRANCH   7   9
ATOM      9  N3  non d ame      -9.053  11.539  68.413  0.00  0.00    -0.346 N 
ATOM     10  C7  non d ame      -7.616  11.656  68.411  0.00  0.00     0.240 C 
ATOM     11  O3  non d ame      -6.950  10.697  68.323  0.00  0.00    -0.271 OA
ATOM     12  H10 non d ame      -9.615  12.375  68.492  0.00  0.00     0.163 HD
BRANCH  10  13
ATOM     13  C6  non d ame      -6.953  13.062  68.531  0.00  0.00     0.086 C 
ATOM     14  H6  non d ame      -6.339  13.316  67.667  0.00  0.00     0.086 H 
BRANCH  13  15
ATOM     15  N2  non d ame      -7.997  14.070  68.610  0.00  0.00    -0.343 N 
ATOM     16  C5  non d ame      -7.886  15.288  67.803  0.00  0.00     0.273 C 
ATOM     17  O2  non d ame      -6.952  15.448  67.097  0.00  0.00    -0.266 OA
ATOM     18  H5  non d ame      -8.791  13.927  69.217  0.00  0.00     0.163 HD
BRANCH  16  19
ATOM     19  C4  non d ame      -8.983  16.361  67.874  0.00  0.00     0.154 A 
ATOM     20  C1  non d ame      -9.057  17.574  67.118  0.00  0.00    -0.017 A 
ATOM     21  C2  non d ame     -10.245  18.202  67.551  0.00  0.00     0.077 A 
ATOM     22  H1  non d ame      -8.355  17.943  66.369  0.00  0.00     0.091 H 
ATOM     23  O1  non d ame     -10.785  17.431  68.450  0.00  0.00    -0.218 OA
ATOM     24  N1  non d ame     -10.066  16.351  68.656  0.00  0.00    -0.123 NA
BRANCH  21  25
ATOM     25  C3  non d ame     -10.794  19.533  67.056  0.00  0.00    -0.029 C 
ATOM     26  H2  non d ame     -11.319  19.382  66.112  0.00  0.00     0.036 H 
ATOM     27  H3  non d ame     -11.485  19.938  67.795  0.00  0.00     0.036 H 
ATOM     28  H4  non d ame      -9.972  20.233  66.906  0.00  0.00     0.036 H 
ENDBRANCH  21  25
ENDBRANCH  16  19
ENDBRANCH  13  15
BRANCH  13  29
ATOM     29  C8  non d ame      -6.094  13.112  69.769  0.00  0.00    -0.049 C 
ATOM     30  H7  non d ame      -6.640  13.610  70.571  0.00  0.00     0.030 H 
ATOM     31  H8  non d ame      -5.843  12.097  70.078  0.00  0.00     0.030 H 
ATOM     32  H9  non d ame      -5.180  13.664  69.556  0.00  0.00     0.030 H 
ENDBRANCH  13  29
ENDBRANCH  10  13
ENDBRANCH   7   9
BRANCH   7  33
ATOM     33  C11 non d ame     -10.837  10.110  69.342  0.00  0.00    -0.033 C 
ATOM     34  H12 non d ame     -11.577   9.418  68.939  0.00  0.00     0.042 H 
BRANCH  33  35
ATOM     35  C12 non d ame     -10.330   9.518  70.694  0.00  0.00    -0.071 C 
ATOM     36  H13 non d ame     -10.568   8.455  70.738  0.00  0.00     0.028 H 
ATOM     37  H14 non d ame      -9.251   9.651  70.768  0.00  0.00     0.028 H 
ATOM     38  H15 non d ame     -10.816  10.035  71.521  0.00  0.00     0.028 H 
ENDBRANCH  33  35
BRANCH  33  39
ATOM     39  C13 non d ame     -11.532  11.493  69.554  0.00  0.00    -0.071 C 
ATOM     40  H16 non d ame     -12.482  11.507  69.023  0.00  0.00     0.028 H 
ATOM     41  H17 non d ame     -11.707  11.653  70.619  0.00  0.00     0.028 H 
ATOM     42  H18 non d ame     -10.889  12.284  69.169  0.00  0.00     0.028 H 
ENDBRANCH  33  39
ENDBRANCH   7  33
ENDBRANCH   4   7
ENDBRANCH   1   3
BRANCH   1  43
ATOM     43  C15 non d ame      -9.395  10.243  63.635  0.00  0.00     0.240 C 
ATOM     44  O5  non d ame      -8.927  10.829  62.712  0.00  0.00    -0.271 OA
ATOM     45  N6  non d ame      -8.930   8.862  63.949  0.00  0.00    -0.355 N 
ATOM     46  H46 non d ame      -9.317   8.356  64.732  0.00  0.00     0.162 HD
BRANCH  45  47
ATOM     47  C20 non d ame      -7.894   8.228  63.105  0.00  0.00     0.013 C 
ATOM     48  H30 non d ame      -7.874   8.752  62.149  0.00  0.00     0.072 H 
BRANCH  47  49
ATOM     49  C21 non d ame      -8.246   6.773  62.889  0.00  0.00    -0.038 C 
ATOM     50  H31 non d ame      -9.328   6.711  63.006  0.00  0.00     0.036 H 
ATOM     51  H32 non d ame      -7.782   6.497  61.941  0.00  0.00     0.036 H 
BRANCH  49  52
ATOM     52  C22 non d ame      -7.635   5.844  63.960  0.00  0.00     0.018 C 
ATOM     53  H33 non d ame      -7.444   4.896  63.455  0.00  0.00     0.048 H 
ATOM     54  H34 non d ame      -6.809   6.403  64.400  0.00  0.00     0.048 H 
BRANCH  52  55
ATOM     55  C23 non d ame      -8.604   5.516  65.130  0.00  0.00     0.259 C 
ATOM     56  O7  non d ame      -8.979   4.403  65.308  0.00  0.00    -0.265 OA
BRANCH  55  57
ATOM     57  O8  non d ame      -9.051   6.566  65.979  0.00  0.00    -0.317 OA
BRANCH  57  58
ATOM     58  C29 non d ame      -8.218   6.787  67.121  0.00  0.00     0.052 C 
ATOM     59  H47 non d ame      -7.397   6.077  67.030  0.00  0.00     0.082 H 
ATOM     60  H48 non d ame      -8.013   7.858  67.133  0.00  0.00     0.082 H 
BRANCH  58  61
ATOM     61  C35 non d ame      -9.039   6.430  68.389  0.00  0.00    -0.034 A 
ATOM     62  C30 non d ame     -10.427   6.362  68.324  0.00  0.00    -0.075 A 
ATOM     63  C31 non d ame     -11.164   6.041  69.463  0.00  0.00    -0.082 A 
ATOM     64  H49 non d ame     -10.936   6.560  67.382  0.00  0.00     0.084 H 
ATOM     65  C32 non d ame     -10.508   5.790  70.671  0.00  0.00    -0.083 A 
ATOM     66  H50 non d ame     -12.251   5.987  69.408  0.00  0.00     0.083 H 
ATOM     67  C33 non d ame      -9.123   5.863  70.732  0.00  0.00    -0.082 A 
ATOM     68  H51 non d ame     -11.077   5.539  71.566  0.00  0.00     0.083 H 
ATOM     69  C34 non d ame      -8.382   6.180  69.595  0.00  0.00    -0.075 A 
ATOM     70  H52 non d ame      -8.614   5.669  71.677  0.00  0.00     0.083 H 
ATOM     71  H53 non d ame      -7.294   6.234  69.651  0.00  0.00     0.084 H 
ENDBRANCH  58  61
ENDBRANCH  57  58
ENDBRANCH  55  57
ENDBRANCH  52  55
ENDBRANCH  49  52
ENDBRANCH  47  49
BRANCH  47  72
ATOM     72  C24 non d ame      -6.535   8.328  63.794  0.00  0.00    -0.039 C 
ATOM     73  H35 non d ame      -6.755   8.532  64.842  0.00  0.00     0.036 H 
ATOM     74  H36 non d ame      -6.001   7.418  63.517  0.00  0.00     0.036 H 
BRANCH  72  75
ATOM     75  C25 non d ame      -5.679   9.564  63.241  0.00  0.00    -0.001 C 
ATOM     76  C26 non d ame      -4.166   9.064  62.837  0.00  0.00    -0.035 C 
ATOM     77  C27 non d ame      -3.263   9.875  63.437  0.00  0.00     0.085 C 
ATOM     78  H38 non d ame      -3.966   8.088  63.280  0.00  0.00     0.036 H 
ATOM     79  H39 non d ame      -3.989   9.226  61.774  0.00  0.00     0.036 H 
ATOM     80  N5  non d ame      -4.011  10.680  64.471  0.00  0.00    -0.049 N 
ATOM     81  H40 non d ame      -2.563   9.209  63.943  0.00  0.00     0.075 H 
ATOM     82  H41 non d ame      -2.909  10.545  62.654  0.00  0.00     0.075 H 
ATOM     83  C28 non d ame      -5.579  10.497  64.129  0.00  0.00     0.193 C 
ATOM     84  H42 non d ame      -3.824  10.244  65.363  0.00  0.00     0.280 HD
ATOM     85  H43 non d ame      -3.760  11.646  64.319  0.00  0.00     0.280 HD
ATOM     86  H44 non d ame      -6.136  11.297  63.641  0.00  0.00     0.129 H 
ATOM     87  H37 non d ame      -6.225  10.144  62.496  0.00  0.00     0.046 H 
BRANCH  83  88
ATOM     88  O6  non d ame      -6.310  10.192  65.317  0.00  0.00    -0.369 OA
ATOM     89  H45 non d ame      -6.087  10.827  66.001  0.00  0.00     0.212 HD
ENDBRANCH  83  88
ENDBRANCH  72  75
ENDBRANCH  47  72
ENDBRANCH  45  47
ENDBRANCH   1  43
BRANCH   1  90
ATOM     90  C16 non d ame     -10.814  12.296  63.944  0.00  0.00    -0.035 C 
ATOM     91  H21 non d ame      -9.893  12.643  63.475  0.00  0.00     0.037 H 
ATOM     92  H22 non d ame     -11.709  12.150  63.341  0.00  0.00     0.037 H 
BRANCH  90  93
ATOM     93  C17 non d ame     -11.181  13.354  65.032  0.00  0.00    -0.059 C 
ATOM     94  H23 non d ame     -11.094  12.871  66.005  0.00  0.00     0.038 H 
BRANCH  93  95
ATOM     95  C18 non d ame     -10.209  14.576  65.018  0.00  0.00    -0.073 C 
ATOM     96  H24 non d ame      -9.184  14.227  65.147  0.00  0.00     0.028 H 
ATOM     97  H25 non d ame     -10.296  15.099  64.066  0.00  0.00     0.028 H 
ATOM     98  H26 non d ame     -10.467  15.256  65.830  0.00  0.00     0.028 H 
ENDBRANCH  93  95
BRANCH  93  99
ATOM     99  C19 non d ame     -12.634  13.811  64.881  0.00  0.00    -0.073 C 
ATOM    100  H27 non d ame     -13.109  13.250  64.076  0.00  0.00     0.028 H 
ATOM    101  H28 non d ame     -13.170  13.634  65.814  0.00  0.00     0.028 H 
ATOM    102  H29 non d ame     -12.658  14.875  64.644  0.00  0.00     0.028 H 
ENDBRANCH  93  99
ENDBRANCH  90  93
ENDBRANCH   1  90
TORSDOF 26
ENDMDL
MODEL 20
REMARK VINA RESULT:      -6.4      2.280      6.794
REMARK  26 active torsions:
REMARK  status: ('A' for Active; 'I' for Inactive)
REMARK    1  A    between atoms: C2_2  and  C3_3 
REMARK    2  A    between atoms: C4_6  and  C5_7 
REMARK       I    between atoms: C5_7  and  N2_9 
REMARK    3  A    between atoms: N2_9  and  C6_10 
REMARK    4  A    between atoms: C6_10  and  C7_11 
REMARK    5  A    between atoms: C6_10  and  C8_13 
REMARK       I    between atoms: C7_11  and  N3_14 
REMARK    6  A    between atoms: N3_14  and  C9_15 
REMARK    7  A    between atoms: C9_15  and  C10_16 
REMARK    8  A    between atoms: C9_15  and  C11_18 
REMARK       I    between atoms: C10_16  and  N4_21 
REMARK    9  A    between atoms: C11_18  and  C12_19 
REMARK   10  A    between atoms: C11_18  and  C13_20 
REMARK   11  A    between atoms: N4_21  and  C14_22 
REMARK   12  A    between atoms: C14_22  and  C15_23 
REMARK   13  A    between atoms: C14_22  and  C16_25 
REMARK       I    between atoms: C15_23  and  N6_40 
REMARK   14  A    between atoms: C16_25  and  C17_26 
REMARK   15  A    between atoms: C17_26  and  C18_27 
REMARK   16  A    between atoms: C17_26  and  C19_28 
REMARK   17  A    between atoms: C20_29  and  C21_30 
REMARK   18  A    between atoms: C20_29  and  C24_33 
REMARK   19  A    between atoms: C20_29  and  N6_40 
REMARK   20  A    between atoms: C21_30  and  C22_31 
REMARK   21  A    between atoms: C22_31  and  C23_32 
REMARK   22  A    between atoms: C23_32  and  O8_43 
REMARK   23  A    between atoms: C24_33  and  C25_34 
REMARK   24  A    between atoms: C28_38  and  O6_39 
REMARK   25  A    between atoms: C29_42  and  O8_43 
REMARK   26  A    between atoms: C29_42  and  C35_49 
ROOT
ATOM      1  C14 non d ame      -8.646  10.336  64.986  0.00  0.00     0.089 C 
ATOM      2  H20 non d ame      -7.851  11.056  65.179  0.00  0.00     0.087 H 
ENDROOT
BRANCH   1   3
ATOM      3  N4  non d ame      -8.126   9.014  65.299  0.00  0.00    -0.346 N 
ATOM      4  C10 non d ame      -6.646   8.805  65.502  0.00  0.00     0.241 C 
ATOM      5  O4  non d ame      -5.893   9.718  65.405  0.00  0.00    -0.271 OA
ATOM      6  H19 non d ame      -8.784   8.250  65.375  0.00  0.00     0.163 HD
BRANCH   4   7
ATOM      7  C9  non d ame      -6.126   7.431  65.831  0.00  0.00     0.092 C 
ATOM      8  H11 non d ame      -5.713   7.436  66.840  0.00  0.00     0.088 H 
BRANCH   7   9
ATOM      9  N3  non d ame      -7.236   6.473  65.824  0.00  0.00    -0.346 N 
ATOM     10  C7  non d ame      -7.249   5.377  66.760  0.00  0.00     0.240 C 
ATOM     11  O3  non d ame      -6.373   5.249  67.526  0.00  0.00    -0.271 OA
ATOM     12  H10 non d ame      -7.998   6.570  65.168  0.00  0.00     0.163 HD
BRANCH  10  13
ATOM     13  C6  non d ame      -8.431   4.359  66.745  0.00  0.00     0.086 C 
ATOM     14  H6  non d ame      -8.099   3.327  66.636  0.00  0.00     0.086 H 
BRANCH  13  15
ATOM     15  N2  non d ame      -9.136   4.437  68.014  0.00  0.00    -0.343 N 
ATOM     16  C5  non d ame      -9.739   5.707  68.426  0.00  0.00     0.273 C 
ATOM     17  O2  non d ame      -9.649   6.659  67.732  0.00  0.00    -0.266 OA
ATOM     18  H5  non d ame      -9.207   3.620  68.602  0.00  0.00     0.163 HD
BRANCH  16  19
ATOM     19  C4  non d ame     -10.489   5.804  69.764  0.00  0.00     0.154 A 
ATOM     20  C1  non d ame     -10.137   5.175  71.000  0.00  0.00    -0.017 A 
ATOM     21  C2  non d ame     -11.138   5.578  71.912  0.00  0.00     0.077 A 
ATOM     22  H1  non d ame      -9.285   4.526  71.205  0.00  0.00     0.091 H 
ATOM     23  O1  non d ame     -11.963   6.349  71.265  0.00  0.00    -0.218 OA
ATOM     24  N1  non d ame     -11.606   6.495  70.010  0.00  0.00    -0.123 NA
BRANCH  21  25
ATOM     25  C3  non d ame     -11.232   5.184  73.380  0.00  0.00    -0.029 C 
ATOM     26  H2  non d ame     -11.862   5.900  73.909  0.00  0.00     0.036 H 
ATOM     27  H3  non d ame     -11.667   4.188  73.461  0.00  0.00     0.036 H 
ATOM     28  H4  non d ame     -10.235   5.182  73.821  0.00  0.00     0.036 H 
ENDBRANCH  21  25
ENDBRANCH  16  19
ENDBRANCH  13  15
BRANCH  13  29
ATOM     29  C8  non d ame      -9.369   4.690  65.613  0.00  0.00    -0.049 C 
ATOM     30  H7  non d ame      -9.703   3.769  65.135  0.00  0.00     0.030 H 
ATOM     31  H8  non d ame     -10.233   5.230  66.003  0.00  0.00     0.030 H 
ATOM     32  H9  non d ame      -8.853   5.311  64.882  0.00  0.00     0.030 H 
ENDBRANCH  13  29
ENDBRANCH  10  13
ENDBRANCH   7   9
BRANCH   7  33
ATOM     33  C11 non d ame      -5.071   7.007  64.768  0.00  0.00    -0.033 C 
ATOM     34  H12 non d ame      -4.776   7.903  64.222  0.00  0.00     0.042 H 
BRANCH  33  35
ATOM     35  C12 non d ame      -3.789   6.425  65.441  0.00  0.00    -0.071 C 
ATOM     36  H13 non d ame      -3.048   6.198  64.674  0.00  0.00     0.028 H 
ATOM     37  H14 non d ame      -3.379   7.157  66.137  0.00  0.00     0.028 H 
ATOM     38  H15 non d ame      -4.045   5.514  65.981  0.00  0.00     0.028 H 
ENDBRANCH  33  35
BRANCH  33  39
ATOM     39  C13 non d ame      -5.683   5.996  63.746  0.00  0.00    -0.071 C 
ATOM     40  H16 non d ame      -6.315   6.533  63.039  0.00  0.00     0.028 H 
ATOM     41  H17 non d ame      -4.880   5.493  63.207  0.00  0.00     0.028 H 
ATOM     42  H18 non d ame      -6.281   5.258  64.280  0.00  0.00     0.028 H 
ENDBRANCH  33  39
ENDBRANCH   7  33
ENDBRANCH   4   7
ENDBRANCH   1   3
BRANCH   1  43
ATOM     43  C15 non d ame      -9.902  10.597  65.866  0.00  0.00     0.240 C 
ATOM     44  O5  non d ame     -10.667   9.712  66.081  0.00  0.00    -0.271 OA
ATOM     45  N6  non d ame     -10.147  11.946  66.450  0.00  0.00    -0.355 N 
ATOM     46  H46 non d ame      -9.502  12.704  66.278  0.00  0.00     0.162 HD
BRANCH  45  47
ATOM     47  C20 non d ame     -11.345  12.177  67.286  0.00  0.00     0.013 C 
ATOM     48  H30 non d ame     -12.128  11.500  66.943  0.00  0.00     0.072 H 
BRANCH  47  49
ATOM     49  C21 non d ame     -11.797  13.611  67.128  0.00  0.00    -0.038 C 
ATOM     50  H31 non d ame     -12.407  13.630  66.225  0.00  0.00     0.036 H 
ATOM     51  H32 non d ame     -12.234  13.889  68.088  0.00  0.00     0.036 H 
BRANCH  49  52
ATOM     52  C22 non d ame     -10.624  14.585  66.884  0.00  0.00     0.018 C 
ATOM     53  H33 non d ame      -9.779  14.176  67.439  0.00  0.00     0.048 H 
ATOM     54  H34 non d ame     -10.560  14.705  65.803  0.00  0.00     0.048 H 
BRANCH  52  55
ATOM     55  C23 non d ame     -10.864  16.009  67.460  0.00  0.00     0.259 C 
ATOM     56  O7  non d ame     -10.354  16.956  66.957  0.00  0.00    -0.265 OA
BRANCH  55  57
ATOM     57  O8  non d ame     -11.690  16.167  68.607  0.00  0.00    -0.317 OA
BRANCH  57  58
ATOM     58  C29 non d ame     -10.969  16.233  69.841  0.00  0.00     0.052 C 
ATOM     59  H47 non d ame     -10.101  15.587  69.711  0.00  0.00     0.082 H 
ATOM     60  H48 non d ame     -10.833  17.295  70.046  0.00  0.00     0.082 H 
BRANCH  58  61
ATOM     61  C35 non d ame     -11.868  15.630  70.953  0.00  0.00    -0.034 A 
ATOM     62  C30 non d ame     -12.566  14.450  70.721  0.00  0.00    -0.075 A 
ATOM     63  C31 non d ame     -13.373  13.908  71.720  0.00  0.00    -0.082 A 
ATOM     64  H49 non d ame     -12.480  13.949  69.758  0.00  0.00     0.084 H 
ATOM     65  C32 non d ame     -13.482  14.553  72.955  0.00  0.00    -0.083 A 
ATOM     66  H50 non d ame     -13.917  12.982  71.536  0.00  0.00     0.083 H 
ATOM     67  C33 non d ame     -12.786  15.733  73.182  0.00  0.00    -0.082 A 
ATOM     68  H51 non d ame     -14.111  14.136  73.742  0.00  0.00     0.083 H 
ATOM     69  C34 non d ame     -11.976  16.276  72.186  0.00  0.00    -0.075 A 
ATOM     70  H52 non d ame     -12.876  16.235  74.145  0.00  0.00     0.083 H 
ATOM     71  H53 non d ame     -11.432  17.203  72.372  0.00  0.00     0.084 H 
ENDBRANCH  58  61
ENDBRANCH  57  58
ENDBRANCH  55  57
ENDBRANCH  52  55
ENDBRANCH  49  52
ENDBRANCH  47  49
BRANCH  47  72
ATOM     72  C24 non d ame     -11.012  11.905  68.751  0.00  0.00    -0.039 C 
ATOM     73  H35 non d ame      -9.924  11.874  68.801  0.00  0.00     0.036 H 
ATOM     74  H36 non d ame     -11.562  12.656  69.318  0.00  0.00     0.036 H 
BRANCH  72  75
ATOM     75  C25 non d ame     -11.547  10.471  69.224  0.00  0.00    -0.001 C 
ATOM     76  C26 non d ame     -12.668  10.654  70.412  0.00  0.00    -0.035 C 
ATOM     77  C27 non d ame     -12.328   9.866  71.459  0.00  0.00     0.085 C 
ATOM     78  H38 non d ame     -12.614  11.662  70.824  0.00  0.00     0.036 H 
ATOM     79  H39 non d ame     -13.627  10.249  70.088  0.00  0.00     0.036 H 
ATOM     80  N5  non d ame     -10.908   9.410  71.226  0.00  0.00    -0.049 N 
ATOM     81  H40 non d ame     -12.354  10.515  72.335  0.00  0.00     0.075 H 
ATOM     82  H41 non d ame     -12.991   9.002  71.401  0.00  0.00     0.075 H 
ATOM     83  C28 non d ame     -10.584   9.740  69.679  0.00  0.00     0.193 C 
ATOM     84  H42 non d ame     -10.322   9.991  71.808  0.00  0.00     0.280 HD
ATOM     85  H43 non d ame     -10.905   8.408  71.349  0.00  0.00     0.280 HD
ATOM     86  H44 non d ame     -10.570   8.943  68.935  0.00  0.00     0.129 H 
ATOM     87  H37 non d ame     -11.816   9.832  68.382  0.00  0.00     0.046 H 
BRANCH  83  88
ATOM     88  O6  non d ame      -9.316  10.388  69.569  0.00  0.00    -0.369 OA
ATOM     89  H45 non d ame      -9.083  10.780  70.413  0.00  0.00     0.212 HD
ENDBRANCH  83  88
ENDBRANCH  72  75
ENDBRANCH  47  72
ENDBRANCH  45  47
ENDBRANCH   1  43
BRANCH   1  90
ATOM     90  C16 non d ame      -9.034  10.382  63.516  0.00  0.00    -0.035 C 
ATOM     91  H21 non d ame      -9.760   9.579  63.384  0.00  0.00     0.037 H 
ATOM     92  H22 non d ame      -9.325  11.415  63.326  0.00  0.00     0.037 H 
BRANCH  90  93
ATOM     93  C17 non d ame      -7.851  10.070  62.546  0.00  0.00    -0.059 C 
ATOM     94  H23 non d ame      -6.923  10.240  63.091  0.00  0.00     0.038 H 
BRANCH  93  95
ATOM     95  C18 non d ame      -7.857   8.584  62.067  0.00  0.00    -0.073 C 
ATOM     96  H24 non d ame      -7.990   8.551  60.985  0.00  0.00     0.028 H 
ATOM     97  H25 non d ame      -6.910   8.113  62.329  0.00  0.00     0.028 H 
ATOM     98  H26 non d ame      -8.674   8.048  62.550  0.00  0.00     0.028 H 
ENDBRANCH  93  95
BRANCH  93  99
ATOM     99  C19 non d ame      -7.857  11.028  61.351  0.00  0.00    -0.073 C 
ATOM    100  H27 non d ame      -7.891  12.056  61.711  0.00  0.00     0.028 H 
ATOM    101  H28 non d ame      -6.953  10.878  60.761  0.00  0.00     0.028 H 
ATOM    102  H29 non d ame      -8.732  10.831  60.733  0.00  0.00     0.028 H 
ENDBRANCH  93  99
ENDBRANCH  90  93
ENDBRANCH   1  90
TORSDOF 26
ENDMDL
