MODEL 1
REMARK VINA RESULT:      -7.4      0.000      0.000
REMARK  26 active torsions:
REMARK  status: ('A' for Active; 'I' for Inactive)
REMARK    1  A    between atoms: C2_2  and  C3_3 
REMARK    2  A    between atoms: C4_6  and  C5_7 
REMARK       I    between atoms: C5_7  and  N2_9 
REMARK    3  A    between atoms: N2_9  and  C6_10 
REMARK    4  A    between atoms: C6_10  and  C7_11 
REMARK    5  A    between atoms: C6_10  and  C8_13 
REMARK       I    between atoms: C7_11  and  N3_14 
REMARK    6  A    between atoms: N3_14  and  C9_15 
REMARK    7  A    between atoms: C9_15  and  C10_16 
REMARK    8  A    between atoms: C9_15  and  C11_18 
REMARK       I    between atoms: C10_16  and  N4_21 
REMARK    9  A    between atoms: C11_18  and  C12_19 
REMARK   10  A    between atoms: C11_18  and  C13_20 
REMARK   11  A    between atoms: N4_21  and  C14_22 
REMARK   12  A    between atoms: C14_22  and  C15_23 
REMARK   13  A    between atoms: C14_22  and  C16_25 
REMARK       I    between atoms: C15_23  and  N6_40 
REMARK   14  A    between atoms: C16_25  and  C17_26 
REMARK   15  A    between atoms: C17_26  and  C18_27 
REMARK   16  A    between atoms: C17_26  and  C19_28 
REMARK   17  A    between atoms: C20_29  and  C21_30 
REMARK   18  A    between atoms: C20_29  and  C24_33 
REMARK   19  A    between atoms: C20_29  and  N6_40 
REMARK   20  A    between atoms: C21_30  and  C22_31 
REMARK   21  A    between atoms: C22_31  and  C23_32 
REMARK   22  A    between atoms: C23_32  and  O8_43 
REMARK   23  A    between atoms: C24_33  and  C25_34 
REMARK   24  A    between atoms: C28_38  and  O6_39 
REMARK   25  A    between atoms: C29_42  and  O8_43 
REMARK   26  A    between atoms: C29_42  and  C35_49 
ROOT
ATOM      1  C14 non d ame     -11.983  14.629  70.436  0.00  0.00     0.089 C 
ATOM      2  H20 non d ame     -13.059  14.735  70.304  0.00  0.00     0.087 H 
ENDROOT
BRANCH   1   3
ATOM      3  N4  non d ame     -11.634  13.254  70.114  0.00  0.00    -0.346 N 
ATOM      4  C10 non d ame     -12.360  12.109  70.776  0.00  0.00     0.241 C 
ATOM      5  O4  non d ame     -13.220  12.321  71.566  0.00  0.00    -0.271 OA
ATOM      6  H19 non d ame     -10.897  13.095  69.441  0.00  0.00     0.163 HD
BRANCH   4   7
ATOM      7  C9  non d ame     -11.990  10.692  70.428  0.00  0.00     0.092 C 
ATOM      8  H11 non d ame     -12.541  10.385  69.539  0.00  0.00     0.088 H 
BRANCH   7   9
ATOM      9  N3  non d ame     -10.563  10.626  70.094  0.00  0.00    -0.346 N 
ATOM     10  C7  non d ame     -10.146  10.566  68.716  0.00  0.00     0.240 C 
ATOM     11  O3  non d ame     -10.946  10.567  67.860  0.00  0.00    -0.271 OA
ATOM     12  H10 non d ame      -9.863  10.623  70.822  0.00  0.00     0.163 HD
BRANCH  10  13
ATOM     13  C6  non d ame      -8.627  10.493  68.368  0.00  0.00     0.086 C 
ATOM     14  H6  non d ame      -8.439  10.489  67.294  0.00  0.00     0.086 H 
BRANCH  13  15
ATOM     15  N2  non d ame      -7.965  11.671  68.902  0.00  0.00    -0.343 N 
ATOM     16  C5  non d ame      -7.831  12.865  68.064  0.00  0.00     0.273 C 
ATOM     17  O2  non d ame      -8.258  12.866  66.962  0.00  0.00    -0.266 OA
ATOM     18  H5  non d ame      -7.602  11.661  69.844  0.00  0.00     0.163 HD
BRANCH  16  19
ATOM     19  C4  non d ame      -7.136  14.119  68.616  0.00  0.00     0.154 A 
ATOM     20  C1  non d ame      -5.823  14.592  68.295  0.00  0.00    -0.017 A 
ATOM     21  C2  non d ame      -5.663  15.768  69.061  0.00  0.00     0.077 A 
ATOM     22  H1  non d ame      -5.098  14.150  67.611  0.00  0.00     0.091 H 
ATOM     23  O1  non d ame      -6.761  15.943  69.738  0.00  0.00    -0.218 OA
ATOM     24  N1  non d ame      -7.634  14.992  69.496  0.00  0.00    -0.123 NA
BRANCH  21  25
ATOM     25  C3  non d ame      -4.434  16.666  69.087  0.00  0.00    -0.029 C 
ATOM     26  H2  non d ame      -4.738  17.705  68.952  0.00  0.00     0.036 H 
ATOM     27  H3  non d ame      -3.926  16.559  70.045  0.00  0.00     0.036 H 
ATOM     28  H4  non d ame      -3.755  16.379  68.283  0.00  0.00     0.036 H 
ENDBRANCH  21  25
ENDBRANCH  16  19
ENDBRANCH  13  15
BRANCH  13  29
ATOM     29  C8  non d ame      -8.030   9.248  68.971  0.00  0.00    -0.049 C 
ATOM     30  H7  non d ame      -8.732   8.420  68.869  0.00  0.00     0.030 H 
ATOM     31  H8  non d ame      -7.102   9.002  68.453  0.00  0.00     0.030 H 
ATOM     32  H9  non d ame      -7.822   9.418  70.027  0.00  0.00     0.030 H 
ENDBRANCH  13  29
ENDBRANCH  10  13
ENDBRANCH   7   9
BRANCH   7  33
ATOM     33  C11 non d ame     -12.279   9.766  71.645  0.00  0.00    -0.033 C 
ATOM     34  H12 non d ame     -12.391  10.403  72.523  0.00  0.00     0.042 H 
BRANCH  33  35
ATOM     35  C12 non d ame     -13.615   8.983  71.459  0.00  0.00    -0.071 C 
ATOM     36  H13 non d ame     -13.781   8.336  72.321  0.00  0.00     0.028 H 
ATOM     37  H14 non d ame     -14.441   9.689  71.371  0.00  0.00     0.028 H 
ATOM     38  H15 non d ame     -13.558   8.377  70.555  0.00  0.00     0.028 H 
ENDBRANCH  33  35
BRANCH  33  39
ATOM     39  C13 non d ame     -11.084   8.793  71.903  0.00  0.00    -0.071 C 
ATOM     40  H16 non d ame     -10.153   9.272  71.601  0.00  0.00     0.028 H 
ATOM     41  H17 non d ame     -11.038   8.546  72.964  0.00  0.00     0.028 H 
ATOM     42  H18 non d ame     -11.227   7.881  71.324  0.00  0.00     0.028 H 
ENDBRANCH  33  39
ENDBRANCH   7  33
ENDBRANCH   4   7
ENDBRANCH   1   3
BRANCH   1  43
ATOM     43  C15 non d ame     -11.180  15.576  69.498  0.00  0.00     0.240 C 
ATOM     44  O5  non d ame     -10.716  16.582  69.929  0.00  0.00    -0.271 OA
ATOM     45  N6  non d ame     -10.982  15.225  68.063  0.00  0.00    -0.355 N 
ATOM     46  H46 non d ame     -11.368  14.371  67.685  0.00  0.00     0.162 HD
BRANCH  45  47
ATOM     47  C20 non d ame     -10.215  16.135  67.184  0.00  0.00     0.013 C 
ATOM     48  H30 non d ame      -9.190  16.171  67.552  0.00  0.00     0.072 H 
BRANCH  47  49
ATOM     49  C21 non d ame     -10.830  17.515  67.235  0.00  0.00    -0.038 C 
ATOM     50  H31 non d ame     -11.905  17.362  67.137  0.00  0.00     0.036 H 
ATOM     51  H32 non d ame     -10.425  17.984  68.132  0.00  0.00     0.036 H 
BRANCH  49  52
ATOM     52  C22 non d ame     -10.405  18.405  66.048  0.00  0.00     0.018 C 
ATOM     53  H33 non d ame      -9.795  17.769  65.405  0.00  0.00     0.048 H 
ATOM     54  H34 non d ame     -11.325  18.845  65.663  0.00  0.00     0.048 H 
BRANCH  52  55
ATOM     55  C23 non d ame      -9.496  19.598  66.454  0.00  0.00     0.259 C 
ATOM     56  O7  non d ame      -9.933  20.497  67.096  0.00  0.00    -0.265 OA
BRANCH  55  57
ATOM     57  O8  non d ame      -8.136  19.612  66.039  0.00  0.00    -0.317 OA
BRANCH  57  58
ATOM     58  C29 non d ame      -7.307  18.669  66.725  0.00  0.00     0.052 C 
ATOM     59  H47 non d ame      -7.990  17.971  67.208  0.00  0.00     0.082 H 
ATOM     60  H48 non d ame      -6.595  18.308  65.982  0.00  0.00     0.082 H 
BRANCH  58  61
ATOM     61  C35 non d ame      -6.523  19.432  67.825  0.00  0.00    -0.034 A 
ATOM     62  C30 non d ame      -6.963  19.399  69.144  0.00  0.00    -0.075 A 
ATOM     63  C31 non d ame      -6.260  20.084  70.133  0.00  0.00    -0.082 A 
ATOM     64  H49 non d ame      -7.860  18.836  69.403  0.00  0.00     0.084 H 
ATOM     65  C32 non d ame      -5.111  20.806  69.798  0.00  0.00    -0.083 A 
ATOM     66  H50 non d ame      -6.607  20.055  71.165  0.00  0.00     0.083 H 
ATOM     67  C33 non d ame      -4.676  20.839  68.480  0.00  0.00    -0.082 A 
ATOM     68  H51 non d ame      -4.554  21.345  70.565  0.00  0.00     0.083 H 
ATOM     69  C34 non d ame      -5.376  20.153  67.489  0.00  0.00    -0.075 A 
ATOM     70  H52 non d ame      -3.781  21.406  68.222  0.00  0.00     0.083 H 
ATOM     71  H53 non d ame      -5.027  20.183  66.456  0.00  0.00     0.084 H 
ENDBRANCH  58  61
ENDBRANCH  57  58
ENDBRANCH  55  57
ENDBRANCH  52  55
ENDBRANCH  49  52
ENDBRANCH  47  49
BRANCH  47  72
ATOM     72  C24 non d ame     -10.247  15.614  65.749  0.00  0.00    -0.039 C 
ATOM     73  H35 non d ame     -10.329  16.501  65.121  0.00  0.00     0.036 H 
ATOM     74  H36 non d ame      -9.379  14.961  65.658  0.00  0.00     0.036 H 
BRANCH  72  75
ATOM     75  C25 non d ame     -11.545  14.717  65.473  0.00  0.00    -0.001 C 
ATOM     76  C26 non d ame     -11.105  13.148  65.249  0.00  0.00    -0.035 C 
ATOM     77  C27 non d ame     -11.661  12.698  64.099  0.00  0.00     0.085 C 
ATOM     78  H38 non d ame     -10.034  13.085  65.056  0.00  0.00     0.036 H 
ATOM     79  H39 non d ame     -11.558  12.520  66.016  0.00  0.00     0.036 H 
ATOM     80  N5  non d ame     -12.171  13.907  63.353  0.00  0.00    -0.049 N 
ATOM     81  H40 non d ame     -10.843  12.250  63.535  0.00  0.00     0.075 H 
ATOM     82  H41 non d ame     -12.510  12.088  64.407  0.00  0.00     0.075 H 
ATOM     83  C28 non d ame     -12.175  15.119  64.419  0.00  0.00     0.193 C 
ATOM     84  H42 non d ame     -11.487  14.111  62.637  0.00  0.00     0.280 HD
ATOM     85  H43 non d ame     -13.125  13.703  63.094  0.00  0.00     0.280 HD
ATOM     86  H44 non d ame     -13.109  15.461  64.865  0.00  0.00     0.129 H 
ATOM     87  H37 non d ame     -12.341  14.911  66.190  0.00  0.00     0.046 H 
BRANCH  83  88
ATOM     88  O6  non d ame     -11.578  16.283  63.845  0.00  0.00    -0.369 OA
ATOM     89  H45 non d ame     -12.238  16.767  63.344  0.00  0.00     0.212 HD
ENDBRANCH  83  88
ENDBRANCH  72  75
ENDBRANCH  47  72
ENDBRANCH  45  47
ENDBRANCH   1  43
BRANCH   1  90
ATOM     90  C16 non d ame     -11.612  14.911  71.884  0.00  0.00    -0.035 C 
ATOM     91  H21 non d ame     -11.604  13.937  72.373  0.00  0.00     0.037 H 
ATOM     92  H22 non d ame     -10.700  15.505  71.838  0.00  0.00     0.037 H 
BRANCH  90  93
ATOM     93  C17 non d ame     -12.666  15.777  72.643  0.00  0.00    -0.059 C 
ATOM     94  H23 non d ame     -12.459  16.823  72.418  0.00  0.00     0.038 H 
BRANCH  93  95
ATOM     95  C18 non d ame     -14.126  15.470  72.180  0.00  0.00    -0.073 C 
ATOM     96  H24 non d ame     -14.383  14.444  72.446  0.00  0.00     0.028 H 
ATOM     97  H25 non d ame     -14.815  16.155  72.674  0.00  0.00     0.028 H 
ATOM     98  H26 non d ame     -14.200  15.596  71.101  0.00  0.00     0.028 H 
ENDBRANCH  93  95
BRANCH  93  99
ATOM     99  C19 non d ame     -12.527  15.603  74.158  0.00  0.00    -0.073 C 
ATOM    100  H27 non d ame     -11.942  14.707  74.368  0.00  0.00     0.028 H 
ATOM    101  H28 non d ame     -12.023  16.473  74.579  0.00  0.00     0.028 H 
ATOM    102  H29 non d ame     -13.516  15.503  74.605  0.00  0.00     0.028 H 
ENDBRANCH  93  99
ENDBRANCH  90  93
ENDBRANCH   1  90
TORSDOF 26
ENDMDL
MODEL 2
REMARK VINA RESULT:      -7.4      2.255      5.544
REMARK  26 active torsions:
REMARK  status: ('A' for Active; 'I' for Inactive)
REMARK    1  A    between atoms: C2_2  and  C3_3 
REMARK    2  A    between atoms: C4_6  and  C5_7 
REMARK       I    between atoms: C5_7  and  N2_9 
REMARK    3  A    between atoms: N2_9  and  C6_10 
REMARK    4  A    between atoms: C6_10  and  C7_11 
REMARK    5  A    between atoms: C6_10  and  C8_13 
REMARK       I    between atoms: C7_11  and  N3_14 
REMARK    6  A    between atoms: N3_14  and  C9_15 
REMARK    7  A    between atoms: C9_15  and  C10_16 
REMARK    8  A    between atoms: C9_15  and  C11_18 
REMARK       I    between atoms: C10_16  and  N4_21 
REMARK    9  A    between atoms: C11_18  and  C12_19 
REMARK   10  A    between atoms: C11_18  and  C13_20 
REMARK   11  A    between atoms: N4_21  and  C14_22 
REMARK   12  A    between atoms: C14_22  and  C15_23 
REMARK   13  A    between atoms: C14_22  and  C16_25 
REMARK       I    between atoms: C15_23  and  N6_40 
REMARK   14  A    between atoms: C16_25  and  C17_26 
REMARK   15  A    between atoms: C17_26  and  C18_27 
REMARK   16  A    between atoms: C17_26  and  C19_28 
REMARK   17  A    between atoms: C20_29  and  C21_30 
REMARK   18  A    between atoms: C20_29  and  C24_33 
REMARK   19  A    between atoms: C20_29  and  N6_40 
REMARK   20  A    between atoms: C21_30  and  C22_31 
REMARK   21  A    between atoms: C22_31  and  C23_32 
REMARK   22  A    between atoms: C23_32  and  O8_43 
REMARK   23  A    between atoms: C24_33  and  C25_34 
REMARK   24  A    between atoms: C28_38  and  O6_39 
REMARK   25  A    between atoms: C29_42  and  O8_43 
REMARK   26  A    between atoms: C29_42  and  C35_49 
ROOT
ATOM      1  C14 non d ame     -12.199  14.265  70.466  0.00  0.00     0.089 C 
ATOM      2  H20 non d ame     -13.284  14.170  70.438  0.00  0.00     0.087 H 
ENDROOT
BRANCH   1   3
ATOM      3  N4  non d ame     -11.635  12.962  70.147  0.00  0.00    -0.346 N 
ATOM      4  C10 non d ame     -12.260  11.706  70.699  0.00  0.00     0.241 C 
ATOM      5  O4  non d ame     -13.216  11.770  71.401  0.00  0.00    -0.271 OA
ATOM      6  H19 non d ame     -10.820  12.931  69.550  0.00  0.00     0.163 HD
BRANCH   4   7
ATOM      7  C9  non d ame     -11.667  10.366  70.354  0.00  0.00     0.092 C 
ATOM      8  H11 non d ame     -12.221   9.932  69.522  0.00  0.00     0.088 H 
BRANCH   7   9
ATOM      9  N3  non d ame     -10.283  10.544  69.906  0.00  0.00    -0.346 N 
ATOM     10  C7  non d ame      -9.873  10.048  68.616  0.00  0.00     0.240 C 
ATOM     11  O3  non d ame     -10.644   9.501  67.925  0.00  0.00    -0.271 OA
ATOM     12  H10 non d ame      -9.606  11.012  70.491  0.00  0.00     0.163 HD
BRANCH  10  13
ATOM     13  C6  non d ame      -8.397  10.238  68.146  0.00  0.00     0.086 C 
ATOM     14  H6  non d ame      -8.324  10.624  67.130  0.00  0.00     0.086 H 
BRANCH  13  15
ATOM     15  N2  non d ame      -7.750  11.212  69.009  0.00  0.00    -0.343 N 
ATOM     16  C5  non d ame      -7.107  12.387  68.415  0.00  0.00     0.273 C 
ATOM     17  O2  non d ame      -7.114  12.536  67.242  0.00  0.00    -0.266 OA
ATOM     18  H5  non d ame      -7.747  11.076  70.009  0.00  0.00     0.163 HD
BRANCH  16  19
ATOM     19  C4  non d ame      -6.421  13.427  69.315  0.00  0.00     0.154 A 
ATOM     20  C1  non d ame      -6.333  14.838  69.093  0.00  0.00    -0.017 A 
ATOM     21  C2  non d ame      -5.610  15.335  70.200  0.00  0.00     0.077 A 
ATOM     22  H1  non d ame      -6.733  15.413  68.257  0.00  0.00     0.091 H 
ATOM     23  O1  non d ame      -5.323  14.321  70.963  0.00  0.00    -0.218 OA
ATOM     24  N1  non d ame      -5.785  13.196  70.466  0.00  0.00    -0.123 NA
BRANCH  21  25
ATOM     25  C3  non d ame      -5.238  16.790  70.454  0.00  0.00    -0.029 C 
ATOM     26  H2  non d ame      -5.628  17.412  69.647  0.00  0.00     0.036 H 
ATOM     27  H3  non d ame      -5.667  17.114  71.402  0.00  0.00     0.036 H 
ATOM     28  H4  non d ame      -4.153  16.887  70.495  0.00  0.00     0.036 H 
ENDBRANCH  21  25
ENDBRANCH  16  19
ENDBRANCH  13  15
BRANCH  13  29
ATOM     29  C8  non d ame      -7.669   8.920  68.220  0.00  0.00    -0.049 C 
ATOM     30  H7  non d ame      -8.163   8.271  68.944  0.00  0.00     0.030 H 
ATOM     31  H8  non d ame      -7.680   8.443  67.239  0.00  0.00     0.030 H 
ATOM     32  H9  non d ame      -6.639   9.091  68.530  0.00  0.00     0.030 H 
ENDBRANCH  13  29
ENDBRANCH  10  13
ENDBRANCH   7   9
BRANCH   7  33
ATOM     33  C11 non d ame     -11.689   9.449  71.612  0.00  0.00    -0.033 C 
ATOM     34  H12 non d ame     -11.944  10.073  72.469  0.00  0.00     0.042 H 
BRANCH  33  35
ATOM     35  C12 non d ame     -12.786   8.345  71.493  0.00  0.00    -0.071 C 
ATOM     36  H13 non d ame     -13.529   8.486  72.277  0.00  0.00     0.028 H 
ATOM     37  H14 non d ame     -13.268   8.417  70.518  0.00  0.00     0.028 H 
ATOM     38  H15 non d ame     -12.325   7.363  71.599  0.00  0.00     0.028 H 
ENDBRANCH  33  35
BRANCH  33  39
ATOM     39  C13 non d ame     -10.281   8.823  71.872  0.00  0.00    -0.071 C 
ATOM     40  H16 non d ame     -10.174   8.598  72.933  0.00  0.00     0.028 H 
ATOM     41  H17 non d ame     -10.178   7.905  71.293  0.00  0.00     0.028 H 
ATOM     42  H18 non d ame      -9.509   9.531  71.571  0.00  0.00     0.028 H 
ENDBRANCH  33  39
ENDBRANCH   7  33
ENDBRANCH   4   7
ENDBRANCH   1   3
BRANCH   1  43
ATOM     43  C15 non d ame     -11.673  15.300  69.430  0.00  0.00     0.240 C 
ATOM     44  O5  non d ame     -12.287  16.298  69.227  0.00  0.00    -0.271 OA
ATOM     45  N6  non d ame     -10.399  15.052  68.698  0.00  0.00    -0.355 N 
ATOM     46  H46 non d ame      -9.866  14.211  68.865  0.00  0.00     0.162 HD
BRANCH  45  47
ATOM     47  C20 non d ame      -9.912  16.046  67.717  0.00  0.00     0.013 C 
ATOM     48  H30 non d ame     -10.779  16.551  67.293  0.00  0.00     0.072 H 
BRANCH  47  49
ATOM     49  C21 non d ame      -9.143  15.336  66.625  0.00  0.00    -0.038 C 
ATOM     50  H31 non d ame      -8.500  16.094  66.177  0.00  0.00     0.036 H 
ATOM     51  H32 non d ame      -8.702  14.458  67.099  0.00  0.00     0.036 H 
BRANCH  49  52
ATOM     52  C22 non d ame     -10.054  14.811  65.495  0.00  0.00     0.018 C 
ATOM     53  H33 non d ame     -11.029  15.269  65.663  0.00  0.00     0.048 H 
ATOM     54  H34 non d ame      -9.514  15.002  64.567  0.00  0.00     0.048 H 
BRANCH  52  55
ATOM     55  C23 non d ame     -10.290  13.275  65.545  0.00  0.00     0.259 C 
ATOM     56  O7  non d ame     -10.584  12.744  66.566  0.00  0.00    -0.265 OA
BRANCH  55  57
ATOM     57  O8  non d ame     -10.137  12.507  64.358  0.00  0.00    -0.317 OA
BRANCH  57  58
ATOM     58  C29 non d ame     -10.098  11.094  64.578  0.00  0.00     0.052 C 
ATOM     59  H47 non d ame      -9.628  10.960  65.552  0.00  0.00     0.082 H 
ATOM     60  H48 non d ame     -11.116  10.742  64.411  0.00  0.00     0.082 H 
BRANCH  58  61
ATOM     61  C35 non d ame      -9.178  10.466  63.498  0.00  0.00    -0.034 A 
ATOM     62  C30 non d ame      -8.752   9.149  63.626  0.00  0.00    -0.075 A 
ATOM     63  C31 non d ame      -7.925   8.585  62.656  0.00  0.00    -0.082 A 
ATOM     64  H49 non d ame      -9.065   8.558  64.487  0.00  0.00     0.084 H 
ATOM     65  C32 non d ame      -7.523   9.345  61.555  0.00  0.00    -0.083 A 
ATOM     66  H50 non d ame      -7.594   7.551  62.759  0.00  0.00     0.083 H 
ATOM     67  C33 non d ame      -7.947  10.661  61.432  0.00  0.00    -0.082 A 
ATOM     68  H51 non d ame      -6.876   8.912  60.791  0.00  0.00     0.083 H 
ATOM     69  C34 non d ame      -8.776  11.227  62.399  0.00  0.00    -0.075 A 
ATOM     70  H52 non d ame      -7.630  11.252  60.573  0.00  0.00     0.083 H 
ATOM     71  H53 non d ame      -9.107  12.262  62.295  0.00  0.00     0.084 H 
ENDBRANCH  58  61
ENDBRANCH  57  58
ENDBRANCH  55  57
ENDBRANCH  52  55
ENDBRANCH  49  52
ENDBRANCH  47  49
BRANCH  47  72
ATOM     72  C24 non d ame      -8.998  17.053  68.412  0.00  0.00    -0.039 C 
ATOM     73  H35 non d ame      -8.956  16.735  69.454  0.00  0.00     0.036 H 
ATOM     74  H36 non d ame      -8.087  17.080  67.814  0.00  0.00     0.036 H 
BRANCH  72  75
ATOM     75  C25 non d ame      -9.621  18.529  68.393  0.00  0.00    -0.001 C 
ATOM     76  C26 non d ame     -10.579  18.717  67.070  0.00  0.00    -0.035 C 
ATOM     77  C27 non d ame     -10.206  19.843  66.417  0.00  0.00     0.085 C 
ATOM     78  H38 non d ame     -10.377  17.926  66.348  0.00  0.00     0.036 H 
ATOM     79  H39 non d ame     -11.604  18.926  67.377  0.00  0.00     0.036 H 
ATOM     80  N5  non d ame      -8.875  20.266  66.990  0.00  0.00    -0.049 N 
ATOM     81  H40 non d ame     -10.069  19.547  65.377  0.00  0.00     0.075 H 
ATOM     82  H41 non d ame     -10.956  20.591  66.677  0.00  0.00     0.075 H 
ATOM     83  C28 non d ame      -8.693  19.427  68.357  0.00  0.00     0.193 C 
ATOM     84  H42 non d ame      -8.171  19.963  66.331  0.00  0.00     0.280 HD
ATOM     85  H43 non d ame      -8.960  21.245  67.222  0.00  0.00     0.280 HD
ATOM     86  H44 non d ame      -8.843  19.906  69.325  0.00  0.00     0.129 H 
ATOM     87  H37 non d ame     -10.045  18.810  69.357  0.00  0.00     0.046 H 
BRANCH  83  88
ATOM     88  O6  non d ame      -7.386  18.854  68.413  0.00  0.00    -0.369 OA
ATOM     89  H45 non d ame      -7.406  18.061  68.953  0.00  0.00     0.212 HD
ENDBRANCH  83  88
ENDBRANCH  72  75
ENDBRANCH  47  72
ENDBRANCH  45  47
ENDBRANCH   1  43
BRANCH   1  90
ATOM     90  C16 non d ame     -11.754  14.670  71.864  0.00  0.00    -0.035 C 
ATOM     91  H21 non d ame     -11.143  13.842  72.223  0.00  0.00     0.037 H 
ATOM     92  H22 non d ame     -11.315  15.661  71.751  0.00  0.00     0.037 H 
BRANCH  90  93
ATOM     93  C17 non d ame     -12.932  14.821  72.877  0.00  0.00    -0.059 C 
ATOM     94  H23 non d ame     -13.115  13.842  73.320  0.00  0.00     0.038 H 
BRANCH  93  95
ATOM     95  C18 non d ame     -12.592  15.813  74.034  0.00  0.00    -0.073 C 
ATOM     96  H24 non d ame     -12.355  15.250  74.937  0.00  0.00     0.028 H 
ATOM     97  H25 non d ame     -11.734  16.421  73.751  0.00  0.00     0.028 H 
ATOM     98  H26 non d ame     -13.449  16.459  74.223  0.00  0.00     0.028 H 
ENDBRANCH  93  95
BRANCH  93  99
ATOM     99  C19 non d ame     -14.219  15.241  72.160  0.00  0.00    -0.073 C 
ATOM    100  H27 non d ame     -14.063  16.200  71.666  0.00  0.00     0.028 H 
ATOM    101  H28 non d ame     -14.483  14.488  71.417  0.00  0.00     0.028 H 
ATOM    102  H29 non d ame     -15.025  15.333  72.886  0.00  0.00     0.028 H 
ENDBRANCH  93  99
ENDBRANCH  90  93
ENDBRANCH   1  90
TORSDOF 26
ENDMDL
MODEL 3
REMARK VINA RESULT:      -7.3      2.384      5.724
REMARK  26 active torsions:
REMARK  status: ('A' for Active; 'I' for Inactive)
REMARK    1  A    between atoms: C2_2  and  C3_3 
REMARK    2  A    between atoms: C4_6  and  C5_7 
REMARK       I    between atoms: C5_7  and  N2_9 
REMARK    3  A    between atoms: N2_9  and  C6_10 
REMARK    4  A    between atoms: C6_10  and  C7_11 
REMARK    5  A    between atoms: C6_10  and  C8_13 
REMARK       I    between atoms: C7_11  and  N3_14 
REMARK    6  A    between atoms: N3_14  and  C9_15 
REMARK    7  A    between atoms: C9_15  and  C10_16 
REMARK    8  A    between atoms: C9_15  and  C11_18 
REMARK       I    between atoms: C10_16  and  N4_21 
REMARK    9  A    between atoms: C11_18  and  C12_19 
REMARK   10  A    between atoms: C11_18  and  C13_20 
REMARK   11  A    between atoms: N4_21  and  C14_22 
REMARK   12  A    between atoms: C14_22  and  C15_23 
REMARK   13  A    between atoms: C14_22  and  C16_25 
REMARK       I    between atoms: C15_23  and  N6_40 
REMARK   14  A    between atoms: C16_25  and  C17_26 
REMARK   15  A    between atoms: C17_26  and  C18_27 
REMARK   16  A    between atoms: C17_26  and  C19_28 
REMARK   17  A    between atoms: C20_29  and  C21_30 
REMARK   18  A    between atoms: C20_29  and  C24_33 
REMARK   19  A    between atoms: C20_29  and  N6_40 
REMARK   20  A    between atoms: C21_30  and  C22_31 
REMARK   21  A    between atoms: C22_31  and  C23_32 
REMARK   22  A    between atoms: C23_32  and  O8_43 
REMARK   23  A    between atoms: C24_33  and  C25_34 
REMARK   24  A    between atoms: C28_38  and  O6_39 
REMARK   25  A    between atoms: C29_42  and  O8_43 
REMARK   26  A    between atoms: C29_42  and  C35_49 
ROOT
ATOM      1  C14 non d ame     -11.832  14.187  69.763  0.00  0.00     0.089 C 
ATOM      2  H20 non d ame     -12.839  13.778  69.675  0.00  0.00     0.087 H 
ENDROOT
BRANCH   1   3
ATOM      3  N4  non d ame     -10.895  13.091  69.570  0.00  0.00    -0.346 N 
ATOM      4  C10 non d ame     -11.282  11.897  68.733  0.00  0.00     0.241 C 
ATOM      5  O4  non d ame     -12.354  11.840  68.227  0.00  0.00    -0.271 OA
ATOM      6  H19 non d ame      -9.988  13.157  70.011  0.00  0.00     0.163 HD
BRANCH   4   7
ATOM      7  C9  non d ame     -10.298  10.774  68.539  0.00  0.00     0.092 C 
ATOM      8  H11 non d ame     -10.113  10.639  67.473  0.00  0.00     0.088 H 
BRANCH   7   9
ATOM      9  N3  non d ame      -9.018  11.132  69.157  0.00  0.00    -0.346 N 
ATOM     10  C7  non d ame      -7.820  11.190  68.356  0.00  0.00     0.240 C 
ATOM     11  O3  non d ame      -7.868  10.948  67.211  0.00  0.00    -0.271 OA
ATOM     12  H10 non d ame      -8.961  11.341  70.143  0.00  0.00     0.163 HD
BRANCH  10  13
ATOM     13  C6  non d ame      -6.461  11.569  69.021  0.00  0.00     0.086 C 
ATOM     14  H6  non d ame      -5.608  11.402  68.362  0.00  0.00     0.086 H 
BRANCH  13  15
ATOM     15  N2  non d ame      -6.471  12.987  69.337  0.00  0.00    -0.343 N 
ATOM     16  C5  non d ame      -5.946  13.947  68.363  0.00  0.00     0.273 C 
ATOM     17  O2  non d ame      -5.516  13.568  67.330  0.00  0.00    -0.266 OA
ATOM     18  H5  non d ame      -6.838  13.303  70.224  0.00  0.00     0.163 HD
BRANCH  16  19
ATOM     19  C4  non d ame      -5.952  15.450  68.684  0.00  0.00     0.154 A 
ATOM     20  C1  non d ame      -5.135  16.464  68.091  0.00  0.00    -0.017 A 
ATOM     21  C2  non d ame      -5.525  17.664  68.726  0.00  0.00     0.077 A 
ATOM     22  H1  non d ame      -4.375  16.347  67.318  0.00  0.00     0.091 H 
ATOM     23  O1  non d ame      -6.459  17.364  69.581  0.00  0.00    -0.218 OA
ATOM     24  N1  non d ame      -6.725  16.077  69.575  0.00  0.00    -0.123 NA
BRANCH  21  25
ATOM     25  C3  non d ame      -4.959  19.051  68.458  0.00  0.00    -0.029 C 
ATOM     26  H2  non d ame      -5.778  19.756  68.306  0.00  0.00     0.036 H 
ATOM     27  H3  non d ame      -4.359  19.370  69.310  0.00  0.00     0.036 H 
ATOM     28  H4  non d ame      -4.334  19.024  67.564  0.00  0.00     0.036 H 
ENDBRANCH  21  25
ENDBRANCH  16  19
ENDBRANCH  13  15
BRANCH  13  29
ATOM     29  C8  non d ame      -6.270  10.761  70.279  0.00  0.00    -0.049 C 
ATOM     30  H7  non d ame      -7.069  10.023  70.362  0.00  0.00     0.030 H 
ATOM     31  H8  non d ame      -5.307  10.250  70.240  0.00  0.00     0.030 H 
ATOM     32  H9  non d ame      -6.296  11.422  71.143  0.00  0.00     0.030 H 
ENDBRANCH  13  29
ENDBRANCH  10  13
ENDBRANCH   7   9
BRANCH   7  33
ATOM     33  C11 non d ame     -10.849   9.479  69.206  0.00  0.00    -0.033 C 
ATOM     34  H12 non d ame     -11.884   9.361  68.887  0.00  0.00     0.042 H 
BRANCH  33  35
ATOM     35  C12 non d ame     -10.065   8.217  68.730  0.00  0.00    -0.071 C 
ATOM     36  H13 non d ame      -9.109   8.164  69.253  0.00  0.00     0.028 H 
ATOM     37  H14 non d ame     -10.648   7.323  68.949  0.00  0.00     0.028 H 
ATOM     38  H15 non d ame      -9.890   8.282  67.657  0.00  0.00     0.028 H 
ENDBRANCH  33  35
BRANCH  33  39
ATOM     39  C13 non d ame     -10.833   9.603  70.763  0.00  0.00    -0.071 C 
ATOM     40  H16 non d ame     -11.675   9.051  71.180  0.00  0.00     0.028 H 
ATOM     41  H17 non d ame      -9.900   9.192  71.151  0.00  0.00     0.028 H 
ATOM     42  H18 non d ame     -10.912  10.653  71.044  0.00  0.00     0.028 H 
ENDBRANCH  33  39
ENDBRANCH   7  33
ENDBRANCH   4   7
ENDBRANCH   1   3
BRANCH   1  43
ATOM     43  C15 non d ame     -11.545  15.278  68.692  0.00  0.00     0.240 C 
ATOM     44  O5  non d ame     -11.982  16.375  68.834  0.00  0.00    -0.271 OA
ATOM     45  N6  non d ame     -10.719  14.960  67.494  0.00  0.00    -0.355 N 
ATOM     46  H46 non d ame     -10.339  14.033  67.364  0.00  0.00     0.162 HD
BRANCH  45  47
ATOM     47  C20 non d ame     -10.454  16.009  66.486  0.00  0.00     0.013 C 
ATOM     48  H30 non d ame     -11.182  16.806  66.633  0.00  0.00     0.072 H 
BRANCH  47  49
ATOM     49  C21 non d ame     -10.605  15.421  65.101  0.00  0.00    -0.038 C 
ATOM     50  H31 non d ame     -11.623  15.659  64.789  0.00  0.00     0.036 H 
ATOM     51  H32 non d ame      -9.757  15.798  64.528  0.00  0.00     0.036 H 
BRANCH  49  52
ATOM     52  C22 non d ame     -10.492  13.882  65.087  0.00  0.00     0.018 C 
ATOM     53  H33 non d ame      -9.483  13.662  64.737  0.00  0.00     0.048 H 
ATOM     54  H34 non d ame     -10.809  13.553  66.077  0.00  0.00     0.048 H 
BRANCH  52  55
ATOM     55  C23 non d ame     -11.453  13.193  64.078  0.00  0.00     0.259 C 
ATOM     56  O7  non d ame     -12.348  13.801  63.588  0.00  0.00    -0.265 OA
BRANCH  55  57
ATOM     57  O8  non d ame     -11.260  11.821  63.756  0.00  0.00    -0.317 OA
BRANCH  57  58
ATOM     58  C29 non d ame     -10.235  11.181  64.522  0.00  0.00     0.052 C 
ATOM     59  H47 non d ame      -9.688  11.984  65.014  0.00  0.00     0.082 H 
ATOM     60  H48 non d ame     -10.744  10.424  65.120  0.00  0.00     0.082 H 
BRANCH  58  61
ATOM     61  C35 non d ame      -9.276  10.464  63.536  0.00  0.00    -0.034 A 
ATOM     62  C30 non d ame      -8.730  11.162  62.464  0.00  0.00    -0.075 A 
ATOM     63  C31 non d ame      -7.869  10.519  61.577  0.00  0.00    -0.082 A 
ATOM     64  H49 non d ame      -8.978  12.213  62.318  0.00  0.00     0.084 H 
ATOM     65  C32 non d ame      -7.555   9.170  61.764  0.00  0.00    -0.083 A 
ATOM     66  H50 non d ame      -7.442  11.069  60.739  0.00  0.00     0.083 H 
ATOM     67  C33 non d ame      -8.105   8.475  62.834  0.00  0.00    -0.082 A 
ATOM     68  H51 non d ame      -6.882   8.659  61.076  0.00  0.00     0.083 H 
ATOM     69  C34 non d ame      -8.964   9.116  63.724  0.00  0.00    -0.075 A 
ATOM     70  H52 non d ame      -7.860   7.422  62.976  0.00  0.00     0.083 H 
ATOM     71  H53 non d ame      -9.391   8.564  64.562  0.00  0.00     0.084 H 
ENDBRANCH  58  61
ENDBRANCH  57  58
ENDBRANCH  55  57
ENDBRANCH  52  55
ENDBRANCH  49  52
ENDBRANCH  47  49
BRANCH  47  72
ATOM     72  C24 non d ame      -9.035  16.545  66.660  0.00  0.00    -0.039 C 
ATOM     73  H35 non d ame      -8.579  15.918  67.426  0.00  0.00     0.036 H 
ATOM     74  H36 non d ame      -8.610  16.575  65.656  0.00  0.00     0.036 H 
BRANCH  72  75
ATOM     75  C25 non d ame      -9.034  18.047  67.218  0.00  0.00    -0.001 C 
ATOM     76  C26 non d ame     -10.531  18.708  67.052  0.00  0.00    -0.035 C 
ATOM     77  C27 non d ame     -10.414  19.902  66.425  0.00  0.00     0.085 C 
ATOM     78  H38 non d ame     -11.126  18.114  66.359  0.00  0.00     0.036 H 
ATOM     79  H39 non d ame     -10.934  18.972  68.030  0.00  0.00     0.036 H 
ATOM     80  N5  non d ame      -9.017  19.969  65.857  0.00  0.00    -0.049 N 
ATOM     81  H40 non d ame     -11.131  19.873  65.604  0.00  0.00     0.075 H 
ATOM     82  H41 non d ame     -10.514  20.654  67.208  0.00  0.00     0.075 H 
ATOM     83  C28 non d ame      -8.189  18.783  66.576  0.00  0.00     0.193 C 
ATOM     84  H42 non d ame      -9.097  19.753  64.873  0.00  0.00     0.280 HD
ATOM     85  H43 non d ame      -8.630  20.854  66.149  0.00  0.00     0.280 HD
ATOM     86  H44 non d ame      -7.478  19.009  67.371  0.00  0.00     0.129 H 
ATOM     87  H37 non d ame      -8.564  18.123  68.198  0.00  0.00     0.046 H 
BRANCH  83  88
ATOM     88  O6  non d ame      -7.452  18.038  65.605  0.00  0.00    -0.369 OA
ATOM     89  H45 non d ame      -8.011  17.348  65.241  0.00  0.00     0.212 HD
ENDBRANCH  83  88
ENDBRANCH  72  75
ENDBRANCH  47  72
ENDBRANCH  45  47
ENDBRANCH   1  43
BRANCH   1  90
ATOM     90  C16 non d ame     -11.634  14.771  71.154  0.00  0.00    -0.035 C 
ATOM     91  H21 non d ame     -10.791  14.224  71.578  0.00  0.00     0.037 H 
ATOM     92  H22 non d ame     -11.566  15.848  71.007  0.00  0.00     0.037 H 
BRANCH  90  93
ATOM     93  C17 non d ame     -12.843  14.529  72.112  0.00  0.00    -0.059 C 
ATOM     94  H23 non d ame     -12.954  13.453  72.239  0.00  0.00     0.038 H 
BRANCH  93  95
ATOM     95  C18 non d ame     -12.611  15.155  73.524  0.00  0.00    -0.073 C 
ATOM     96  H24 non d ame     -12.756  16.234  73.472  0.00  0.00     0.028 H 
ATOM     97  H25 non d ame     -13.321  14.727  74.232  0.00  0.00     0.028 H 
ATOM     98  H26 non d ame     -11.595  14.940  73.855  0.00  0.00     0.028 H 
ENDBRANCH  93  95
BRANCH  93  99
ATOM     99  C19 non d ame     -14.143  15.049  71.493  0.00  0.00    -0.073 C 
ATOM    100  H27 non d ame     -14.913  15.109  72.262  0.00  0.00     0.028 H 
ATOM    101  H28 non d ame     -13.974  16.040  71.070  0.00  0.00     0.028 H 
ATOM    102  H29 non d ame     -14.468  14.369  70.706  0.00  0.00     0.028 H 
ENDBRANCH  93  99
ENDBRANCH  90  93
ENDBRANCH   1  90
TORSDOF 26
ENDMDL
MODEL 4
REMARK VINA RESULT:      -7.1      2.324      6.901
REMARK  26 active torsions:
REMARK  status: ('A' for Active; 'I' for Inactive)
REMARK    1  A    between atoms: C2_2  and  C3_3 
REMARK    2  A    between atoms: C4_6  and  C5_7 
REMARK       I    between atoms: C5_7  and  N2_9 
REMARK    3  A    between atoms: N2_9  and  C6_10 
REMARK    4  A    between atoms: C6_10  and  C7_11 
REMARK    5  A    between atoms: C6_10  and  C8_13 
REMARK       I    between atoms: C7_11  and  N3_14 
REMARK    6  A    between atoms: N3_14  and  C9_15 
REMARK    7  A    between atoms: C9_15  and  C10_16 
REMARK    8  A    between atoms: C9_15  and  C11_18 
REMARK       I    between atoms: C10_16  and  N4_21 
REMARK    9  A    between atoms: C11_18  and  C12_19 
REMARK   10  A    between atoms: C11_18  and  C13_20 
REMARK   11  A    between atoms: N4_21  and  C14_22 
REMARK   12  A    between atoms: C14_22  and  C15_23 
REMARK   13  A    between atoms: C14_22  and  C16_25 
REMARK       I    between atoms: C15_23  and  N6_40 
REMARK   14  A    between atoms: C16_25  and  C17_26 
REMARK   15  A    between atoms: C17_26  and  C18_27 
REMARK   16  A    between atoms: C17_26  and  C19_28 
REMARK   17  A    between atoms: C20_29  and  C21_30 
REMARK   18  A    between atoms: C20_29  and  C24_33 
REMARK   19  A    between atoms: C20_29  and  N6_40 
REMARK   20  A    between atoms: C21_30  and  C22_31 
REMARK   21  A    between atoms: C22_31  and  C23_32 
REMARK   22  A    between atoms: C23_32  and  O8_43 
REMARK   23  A    between atoms: C24_33  and  C25_34 
REMARK   24  A    between atoms: C28_38  and  O6_39 
REMARK   25  A    between atoms: C29_42  and  O8_43 
REMARK   26  A    between atoms: C29_42  and  C35_49 
ROOT
ATOM      1  C14 non d ame     -10.499   9.886  69.659  0.00  0.00     0.089 C 
ATOM      2  H20 non d ame     -10.539   9.140  68.866  0.00  0.00     0.087 H 
ENDROOT
BRANCH   1   3
ATOM      3  N4  non d ame      -9.142  10.412  69.697  0.00  0.00    -0.346 N 
ATOM      4  C10 non d ame      -8.234  10.264  68.502  0.00  0.00     0.241 C 
ATOM      5  O4  non d ame      -8.617   9.715  67.521  0.00  0.00    -0.271 OA
ATOM      6  H19 non d ame      -8.835  10.874  70.542  0.00  0.00     0.163 HD
BRANCH   4   7
ATOM      7  C9  non d ame      -6.835  10.819  68.556  0.00  0.00     0.092 C 
ATOM      8  H11 non d ame      -6.511  11.076  67.548  0.00  0.00     0.088 H 
BRANCH   7   9
ATOM      9  N3  non d ame      -6.831  12.059  69.339  0.00  0.00    -0.346 N 
ATOM     10  C7  non d ame      -6.063  13.194  68.890  0.00  0.00     0.240 C 
ATOM     11  O3  non d ame      -5.440  13.126  67.901  0.00  0.00    -0.271 OA
ATOM     12  H10 non d ame      -7.362  12.131  70.196  0.00  0.00     0.163 HD
BRANCH  10  13
ATOM     13  C6  non d ame      -6.060  14.508  69.730  0.00  0.00     0.086 C 
ATOM     14  H6  non d ame      -5.213  15.154  69.501  0.00  0.00     0.086 H 
BRANCH  13  15
ATOM     15  N2  non d ame      -7.259  15.269  69.418  0.00  0.00    -0.343 N 
ATOM     16  C5  non d ame      -7.146  16.504  68.639  0.00  0.00     0.273 C 
ATOM     17  O2  non d ame      -6.087  16.878  68.270  0.00  0.00    -0.266 OA
ATOM     18  H5  non d ame      -8.159  14.944  69.738  0.00  0.00     0.163 HD
BRANCH  16  19
ATOM     19  C4  non d ame      -8.405  17.318  68.299  0.00  0.00     0.154 A 
ATOM     20  C1  non d ame      -8.599  18.180  67.173  0.00  0.00    -0.017 A 
ATOM     21  C2  non d ame      -9.911  18.683  67.322  0.00  0.00     0.077 A 
ATOM     22  H1  non d ame      -7.896  18.407  66.371  0.00  0.00     0.091 H 
ATOM     23  O1  non d ame     -10.404  18.162  68.408  0.00  0.00    -0.218 OA
ATOM     24  N1  non d ame      -9.543  17.363  68.996  0.00  0.00    -0.123 NA
BRANCH  21  25
ATOM     25  C3  non d ame     -10.617  19.651  66.384  0.00  0.00    -0.029 C 
ATOM     26  H2  non d ame      -9.924  19.977  65.607  0.00  0.00     0.036 H 
ATOM     27  H3  non d ame     -11.470  19.154  65.923  0.00  0.00     0.036 H 
ATOM     28  H4  non d ame     -10.964  20.518  66.948  0.00  0.00     0.036 H 
ENDBRANCH  21  25
ENDBRANCH  16  19
ENDBRANCH  13  15
BRANCH  13  29
ATOM     29  C8  non d ame      -6.032  14.170  71.199  0.00  0.00    -0.049 C 
ATOM     30  H7  non d ame      -7.037  13.909  71.532  0.00  0.00     0.030 H 
ATOM     31  H8  non d ame      -5.364  13.325  71.364  0.00  0.00     0.030 H 
ATOM     32  H9  non d ame      -5.676  15.031  71.763  0.00  0.00     0.030 H 
ENDBRANCH  13  29
ENDBRANCH  10  13
ENDBRANCH   7   9
BRANCH   7  33
ATOM     33  C11 non d ame      -5.890   9.781  69.229  0.00  0.00    -0.033 C 
ATOM     34  H12 non d ame      -6.355   8.800  69.127  0.00  0.00     0.042 H 
BRANCH  33  35
ATOM     35  C12 non d ame      -4.507   9.721  68.508  0.00  0.00    -0.071 C 
ATOM     36  H13 non d ame      -3.750   9.364  69.206  0.00  0.00     0.028 H 
ATOM     37  H14 non d ame      -4.569   9.040  67.660  0.00  0.00     0.028 H 
ATOM     38  H15 non d ame      -4.239  10.716  68.156  0.00  0.00     0.028 H 
ENDBRANCH  33  35
BRANCH  33  39
ATOM     39  C13 non d ame      -5.723  10.082  70.752  0.00  0.00    -0.071 C 
ATOM     40  H16 non d ame      -6.680  10.396  71.168  0.00  0.00     0.028 H 
ATOM     41  H17 non d ame      -5.380   9.183  71.265  0.00  0.00     0.028 H 
ATOM     42  H18 non d ame      -4.990  10.877  70.886  0.00  0.00     0.028 H 
ENDBRANCH  33  39
ENDBRANCH   7  33
ENDBRANCH   4   7
ENDBRANCH   1   3
BRANCH   1  43
ATOM     43  C15 non d ame     -11.480  11.066  69.406  0.00  0.00     0.240 C 
ATOM     44  O5  non d ame     -12.191  11.051  68.452  0.00  0.00    -0.271 OA
ATOM     45  N6  non d ame     -11.543  12.212  70.358  0.00  0.00    -0.355 N 
ATOM     46  H46 non d ame     -10.947  12.234  71.173  0.00  0.00     0.162 HD
BRANCH  45  47
ATOM     47  C20 non d ame     -12.482  13.325  70.104  0.00  0.00     0.013 C 
ATOM     48  H30 non d ame     -13.196  12.995  69.350  0.00  0.00     0.072 H 
BRANCH  47  49
ATOM     49  C21 non d ame     -11.713  14.524  69.598  0.00  0.00    -0.038 C 
ATOM     50  H31 non d ame     -12.340  15.389  69.814  0.00  0.00     0.036 H 
ATOM     51  H32 non d ame     -10.720  14.445  70.042  0.00  0.00     0.036 H 
BRANCH  49  52
ATOM     52  C22 non d ame     -11.508  14.502  68.068  0.00  0.00     0.018 C 
ATOM     53  H33 non d ame     -12.149  13.703  67.695  0.00  0.00     0.048 H 
ATOM     54  H34 non d ame     -11.667  15.528  67.734  0.00  0.00     0.048 H 
BRANCH  52  55
ATOM     55  C23 non d ame     -10.063  14.129  67.635  0.00  0.00     0.259 C 
ATOM     56  O7  non d ame      -9.413  13.380  68.289  0.00  0.00    -0.265 OA
BRANCH  55  57
ATOM     57  O8  non d ame      -9.518  14.703  66.454  0.00  0.00    -0.317 OA
BRANCH  57  58
ATOM     58  C29 non d ame     -10.493  15.023  65.457  0.00  0.00     0.052 C 
ATOM     59  H47 non d ame     -11.379  15.345  66.003  0.00  0.00     0.082 H 
ATOM     60  H48 non d ame      -9.998  15.709  64.770  0.00  0.00     0.082 H 
BRANCH  58  61
ATOM     61  C35 non d ame     -10.837  13.720  64.688  0.00  0.00    -0.034 A 
ATOM     62  C30 non d ame      -9.830  12.816  64.364  0.00  0.00    -0.075 A 
ATOM     63  C31 non d ame     -10.138  11.646  63.673  0.00  0.00    -0.082 A 
ATOM     64  H49 non d ame      -8.800  13.025  64.652  0.00  0.00     0.084 H 
ATOM     65  C32 non d ame     -11.460  11.381  63.303  0.00  0.00    -0.083 A 
ATOM     66  H50 non d ame      -9.347  10.939  63.423  0.00  0.00     0.083 H 
ATOM     67  C33 non d ame     -12.461  12.287  63.625  0.00  0.00    -0.082 A 
ATOM     68  H51 non d ame     -11.710  10.468  62.763  0.00  0.00     0.083 H 
ATOM     69  C34 non d ame     -12.157  13.458  64.318  0.00  0.00    -0.075 A 
ATOM     70  H52 non d ame     -13.491  12.079  63.333  0.00  0.00     0.083 H 
ATOM     71  H53 non d ame     -12.950  14.164  64.569  0.00  0.00     0.084 H 
ENDBRANCH  58  61
ENDBRANCH  57  58
ENDBRANCH  55  57
ENDBRANCH  52  55
ENDBRANCH  49  52
ENDBRANCH  47  49
BRANCH  47  72
ATOM     72  C24 non d ame     -13.207  13.693  71.397  0.00  0.00    -0.039 C 
ATOM     73  H35 non d ame     -14.242  13.877  71.107  0.00  0.00     0.036 H 
ATOM     74  H36 non d ame     -12.973  12.893  72.100  0.00  0.00     0.036 H 
BRANCH  72  75
ATOM     75  C25 non d ame     -12.643  15.054  72.026  0.00  0.00    -0.001 C 
ATOM     76  C26 non d ame     -11.974  14.757  73.498  0.00  0.00    -0.035 C 
ATOM     77  C27 non d ame     -12.501  15.619  74.399  0.00  0.00     0.085 C 
ATOM     78  H38 non d ame     -12.294  13.781  73.863  0.00  0.00     0.036 H 
ATOM     79  H39 non d ame     -10.915  15.014  73.487  0.00  0.00     0.036 H 
ATOM     80  N5  non d ame     -13.703  16.260  73.748  0.00  0.00    -0.049 N 
ATOM     81  H40 non d ame     -12.835  15.002  75.234  0.00  0.00     0.075 H 
ATOM     82  H41 non d ame     -11.736  16.380  74.555  0.00  0.00     0.075 H 
ATOM     83  C28 non d ame     -13.585  15.926  72.172  0.00  0.00     0.193 C 
ATOM     84  H42 non d ame     -14.515  15.785  74.117  0.00  0.00     0.280 HD
ATOM     85  H43 non d ame     -13.601  17.256  73.874  0.00  0.00     0.280 HD
ATOM     86  H44 non d ame     -13.258  16.692  71.468  0.00  0.00     0.129 H 
ATOM     87  H37 non d ame     -12.043  15.620  71.314  0.00  0.00     0.046 H 
BRANCH  83  88
ATOM     88  O6  non d ame     -14.838  15.457  71.674  0.00  0.00    -0.369 OA
ATOM     89  H45 non d ame     -15.290  16.172  71.222  0.00  0.00     0.212 HD
ENDBRANCH  83  88
ENDBRANCH  72  75
ENDBRANCH  47  72
ENDBRANCH  45  47
ENDBRANCH   1  43
BRANCH   1  90
ATOM     90  C16 non d ame     -10.816   9.234  70.996  0.00  0.00    -0.035 C 
ATOM     91  H21 non d ame     -10.095   8.423  71.099  0.00  0.00     0.037 H 
ATOM     92  H22 non d ame     -10.827  10.049  71.719  0.00  0.00     0.037 H 
BRANCH  90  93
ATOM     93  C17 non d ame     -12.231   8.576  71.051  0.00  0.00    -0.059 C 
ATOM     94  H23 non d ame     -12.700   8.717  70.077  0.00  0.00     0.038 H 
BRANCH  93  95
ATOM     95  C18 non d ame     -12.157   7.040  71.326  0.00  0.00    -0.073 C 
ATOM     96  H24 non d ame     -11.447   6.849  72.131  0.00  0.00     0.028 H 
ATOM     97  H25 non d ame     -13.142   6.676  71.617  0.00  0.00     0.028 H 
ATOM     98  H26 non d ame     -11.832   6.524  70.423  0.00  0.00     0.028 H 
ENDBRANCH  93  95
BRANCH  93  99
ATOM     99  C19 non d ame     -13.118   9.273  72.086  0.00  0.00    -0.073 C 
ATOM    100  H27 non d ame     -13.533  10.184  71.654  0.00  0.00     0.028 H 
ATOM    101  H28 non d ame     -13.930   8.606  72.377  0.00  0.00     0.028 H 
ATOM    102  H29 non d ame     -12.523   9.526  72.962  0.00  0.00     0.028 H 
ENDBRANCH  93  99
ENDBRANCH  90  93
ENDBRANCH   1  90
TORSDOF 26
ENDMDL
MODEL 5
REMARK VINA RESULT:      -7.1      2.207      3.359
REMARK  26 active torsions:
REMARK  status: ('A' for Active; 'I' for Inactive)
REMARK    1  A    between atoms: C2_2  and  C3_3 
REMARK    2  A    between atoms: C4_6  and  C5_7 
REMARK       I    between atoms: C5_7  and  N2_9 
REMARK    3  A    between atoms: N2_9  and  C6_10 
REMARK    4  A    between atoms: C6_10  and  C7_11 
REMARK    5  A    between atoms: C6_10  and  C8_13 
REMARK       I    between atoms: C7_11  and  N3_14 
REMARK    6  A    between atoms: N3_14  and  C9_15 
REMARK    7  A    between atoms: C9_15  and  C10_16 
REMARK    8  A    between atoms: C9_15  and  C11_18 
REMARK       I    between atoms: C10_16  and  N4_21 
REMARK    9  A    between atoms: C11_18  and  C12_19 
REMARK   10  A    between atoms: C11_18  and  C13_20 
REMARK   11  A    between atoms: N4_21  and  C14_22 
REMARK   12  A    between atoms: C14_22  and  C15_23 
REMARK   13  A    between atoms: C14_22  and  C16_25 
REMARK       I    between atoms: C15_23  and  N6_40 
REMARK   14  A    between atoms: C16_25  and  C17_26 
REMARK   15  A    between atoms: C17_26  and  C18_27 
REMARK   16  A    between atoms: C17_26  and  C19_28 
REMARK   17  A    between atoms: C20_29  and  C21_30 
REMARK   18  A    between atoms: C20_29  and  C24_33 
REMARK   19  A    between atoms: C20_29  and  N6_40 
REMARK   20  A    between atoms: C21_30  and  C22_31 
REMARK   21  A    between atoms: C22_31  and  C23_32 
REMARK   22  A    between atoms: C23_32  and  O8_43 
REMARK   23  A    between atoms: C24_33  and  C25_34 
REMARK   24  A    between atoms: C28_38  and  O6_39 
REMARK   25  A    between atoms: C29_42  and  O8_43 
REMARK   26  A    between atoms: C29_42  and  C35_49 
ROOT
ATOM      1  C14 non d ame     -11.940  13.632  69.548  0.00  0.00     0.089 C 
ATOM      2  H20 non d ame     -12.944  13.477  69.154  0.00  0.00     0.087 H 
ENDROOT
BRANCH   1   3
ATOM      3  N4  non d ame     -11.509  12.382  70.156  0.00  0.00    -0.346 N 
ATOM      4  C10 non d ame     -11.693  11.076  69.425  0.00  0.00     0.241 C 
ATOM      5  O4  non d ame     -12.192  11.056  68.348  0.00  0.00    -0.271 OA
ATOM      6  H19 non d ame     -11.089  12.420  71.075  0.00  0.00     0.163 HD
BRANCH   4   7
ATOM      7  C9  non d ame     -11.237   9.792  70.066  0.00  0.00     0.092 C 
ATOM      8  H11 non d ame     -11.539   8.951  69.442  0.00  0.00     0.088 H 
BRANCH   7   9
ATOM      9  N3  non d ame      -9.772   9.773  70.135  0.00  0.00    -0.346 N 
ATOM     10  C7  non d ame      -9.034   8.707  69.506  0.00  0.00     0.240 C 
ATOM     11  O3  non d ame      -9.602   7.854  68.940  0.00  0.00    -0.271 OA
ATOM     12  H10 non d ame      -9.269  10.501  70.622  0.00  0.00     0.163 HD
BRANCH  10  13
ATOM     13  C6  non d ame      -7.476   8.691  69.586  0.00  0.00     0.086 C 
ATOM     14  H6  non d ame      -7.085   7.777  70.034  0.00  0.00     0.086 H 
BRANCH  13  15
ATOM     15  N2  non d ame      -6.934   8.759  68.239  0.00  0.00    -0.343 N 
ATOM     16  C5  non d ame      -7.316   9.869  67.363  0.00  0.00     0.273 C 
ATOM     17  O2  non d ame      -8.061  10.700  67.751  0.00  0.00    -0.266 OA
ATOM     18  H5  non d ame      -6.300   8.043  67.915  0.00  0.00     0.163 HD
BRANCH  16  19
ATOM     19  C4  non d ame      -6.750   9.954  65.937  0.00  0.00     0.154 A 
ATOM     20  C1  non d ame      -7.173   9.207  64.793  0.00  0.00    -0.017 A 
ATOM     21  C2  non d ame      -6.343   9.653  63.740  0.00  0.00     0.077 A 
ATOM     22  H1  non d ame      -7.962   8.457  64.734  0.00  0.00     0.091 H 
ATOM     23  O1  non d ame      -5.541  10.552  64.233  0.00  0.00    -0.218 OA
ATOM     24  N1  non d ame      -5.759  10.744  65.514  0.00  0.00    -0.123 NA
BRANCH  21  25
ATOM     25  C3  non d ame      -6.382   9.171  62.296  0.00  0.00    -0.029 C 
ATOM     26  H2  non d ame      -5.696   8.332  62.173  0.00  0.00     0.036 H 
ATOM     27  H3  non d ame      -7.394   8.852  62.047  0.00  0.00     0.036 H 
ATOM     28  H4  non d ame      -6.084   9.984  61.633  0.00  0.00     0.036 H 
ENDBRANCH  21  25
ENDBRANCH  16  19
ENDBRANCH  13  15
BRANCH  13  29
ATOM     29  C8  non d ame      -6.999   9.871  70.394  0.00  0.00    -0.049 C 
ATOM     30  H7  non d ame      -7.064   9.636  71.456  0.00  0.00     0.030 H 
ATOM     31  H8  non d ame      -5.963  10.094  70.134  0.00  0.00     0.030 H 
ATOM     32  H9  non d ame      -7.622  10.737  70.175  0.00  0.00     0.030 H 
ENDBRANCH  13  29
ENDBRANCH  10  13
ENDBRANCH   7   9
BRANCH   7  33
ATOM     33  C11 non d ame     -11.823   9.694  71.505  0.00  0.00    -0.033 C 
ATOM     34  H12 non d ame     -11.484  10.570  72.058  0.00  0.00     0.042 H 
BRANCH  33  35
ATOM     35  C12 non d ame     -13.383   9.725  71.486  0.00  0.00    -0.071 C 
ATOM     36  H13 non d ame     -13.738   9.524  70.475  0.00  0.00     0.028 H 
ATOM     37  H14 non d ame     -13.770   8.965  72.165  0.00  0.00     0.028 H 
ATOM     38  H15 non d ame     -13.730  10.707  71.806  0.00  0.00     0.028 H 
ENDBRANCH  33  35
BRANCH  33  39
ATOM     39  C13 non d ame     -11.291   8.422  72.240  0.00  0.00    -0.071 C 
ATOM     40  H16 non d ame     -10.210   8.356  72.115  0.00  0.00     0.028 H 
ATOM     41  H17 non d ame     -11.531   8.487  73.301  0.00  0.00     0.028 H 
ATOM     42  H18 non d ame     -11.760   7.535  71.815  0.00  0.00     0.028 H 
ENDBRANCH  33  39
ENDBRANCH   7  33
ENDBRANCH   4   7
ENDBRANCH   1   3
BRANCH   1  43
ATOM     43  C15 non d ame     -10.924  14.016  68.435  0.00  0.00     0.240 C 
ATOM     44  O5  non d ame      -9.761  13.839  68.608  0.00  0.00    -0.271 OA
ATOM     45  N6  non d ame     -11.401  14.597  67.147  0.00  0.00    -0.355 N 
ATOM     46  H46 non d ame     -12.386  14.748  66.986  0.00  0.00     0.162 HD
BRANCH  45  47
ATOM     47  C20 non d ame     -10.422  14.956  66.098  0.00  0.00     0.013 C 
ATOM     48  H30 non d ame      -9.454  14.548  66.389  0.00  0.00     0.072 H 
BRANCH  47  49
ATOM     49  C21 non d ame     -10.336  16.462  65.989  0.00  0.00    -0.038 C 
ATOM     50  H31 non d ame      -9.938  16.662  64.994  0.00  0.00     0.036 H 
ATOM     51  H32 non d ame     -11.323  16.833  66.267  0.00  0.00     0.036 H 
BRANCH  49  52
ATOM     52  C22 non d ame      -9.338  17.080  66.992  0.00  0.00     0.018 C 
ATOM     53  H33 non d ame      -8.826  16.237  67.457  0.00  0.00     0.048 H 
ATOM     54  H34 non d ame      -8.770  17.818  66.426  0.00  0.00     0.048 H 
BRANCH  52  55
ATOM     55  C23 non d ame     -10.019  17.859  68.151  0.00  0.00     0.259 C 
ATOM     56  O7  non d ame     -10.979  17.415  68.693  0.00  0.00    -0.265 OA
BRANCH  55  57
ATOM     57  O8  non d ame      -9.490  19.117  68.551  0.00  0.00    -0.317 OA
BRANCH  57  58
ATOM     58  C29 non d ame      -8.902  19.868  67.485  0.00  0.00     0.052 C 
ATOM     59  H47 non d ame      -8.897  19.202  66.623  0.00  0.00     0.082 H 
ATOM     60  H48 non d ame      -9.456  20.806  67.446  0.00  0.00     0.082 H 
BRANCH  58  61
ATOM     61  C35 non d ame      -7.433  20.181  67.874  0.00  0.00    -0.034 A 
ATOM     62  C30 non d ame      -6.637  20.946  67.028  0.00  0.00    -0.075 A 
ATOM     63  C31 non d ame      -5.317  21.228  67.377  0.00  0.00    -0.082 A 
ATOM     64  H49 non d ame      -7.047  21.326  66.093  0.00  0.00     0.084 H 
ATOM     65  C32 non d ame      -4.793  20.738  68.577  0.00  0.00    -0.083 A 
ATOM     66  H50 non d ame      -4.696  21.829  66.713  0.00  0.00     0.083 H 
ATOM     67  C33 non d ame      -5.590  19.972  69.416  0.00  0.00    -0.082 A 
ATOM     68  H51 non d ame      -3.762  20.953  68.857  0.00  0.00     0.083 H 
ATOM     69  C34 non d ame      -6.911  19.691  69.072  0.00  0.00    -0.075 A 
ATOM     70  H52 non d ame      -5.177  19.590  70.350  0.00  0.00     0.083 H 
ATOM     71  H53 non d ame      -7.531  19.089  69.738  0.00  0.00     0.084 H 
ENDBRANCH  58  61
ENDBRANCH  57  58
ENDBRANCH  55  57
ENDBRANCH  52  55
ENDBRANCH  49  52
ENDBRANCH  47  49
BRANCH  47  72
ATOM     72  C24 non d ame     -10.864  14.371  64.759  0.00  0.00    -0.039 C 
ATOM     73  H35 non d ame     -11.692  14.997  64.427  0.00  0.00     0.036 H 
ATOM     74  H36 non d ame      -9.957  14.305  64.157  0.00  0.00     0.036 H 
BRANCH  72  75
ATOM     75  C25 non d ame     -11.432  12.882  64.921  0.00  0.00    -0.001 C 
ATOM     76  C26 non d ame     -10.187  11.824  65.109  0.00  0.00    -0.035 C 
ATOM     77  C27 non d ame     -10.334  10.814  64.220  0.00  0.00     0.085 C 
ATOM     78  H38 non d ame      -9.250  12.293  64.809  0.00  0.00     0.036 H 
ATOM     79  H39 non d ame     -10.263  11.326  66.076  0.00  0.00     0.036 H 
ATOM     80  N5  non d ame     -11.382  11.250  63.225  0.00  0.00    -0.049 N 
ATOM     81  H40 non d ame      -9.374  10.730  63.711  0.00  0.00     0.075 H 
ATOM     82  H41 non d ame     -10.722   9.973  64.796  0.00  0.00     0.075 H 
ATOM     83  C28 non d ame     -12.117  12.528  63.884  0.00  0.00     0.193 C 
ATOM     84  H42 non d ame     -10.884  11.556  62.401  0.00  0.00     0.280 HD
ATOM     85  H43 non d ame     -12.048  10.495  63.159  0.00  0.00     0.280 HD
ATOM     86  H44 non d ame     -13.109  12.429  64.326  0.00  0.00     0.129 H 
ATOM     87  H37 non d ame     -12.244  12.827  65.646  0.00  0.00     0.046 H 
BRANCH  83  88
ATOM     88  O6  non d ame     -12.228  13.581  62.926  0.00  0.00    -0.369 OA
ATOM     89  H45 non d ame     -11.951  13.261  62.065  0.00  0.00     0.212 HD
ENDBRANCH  83  88
ENDBRANCH  72  75
ENDBRANCH  47  72
ENDBRANCH  45  47
ENDBRANCH   1  43
BRANCH   1  90
ATOM     90  C16 non d ame     -11.967  14.718  70.612  0.00  0.00    -0.035 C 
ATOM     91  H21 non d ame     -10.950  14.765  71.002  0.00  0.00     0.037 H 
ATOM     92  H22 non d ame     -12.404  15.589  70.124  0.00  0.00     0.037 H 
BRANCH  90  93
ATOM     93  C17 non d ame     -12.889  14.382  71.827  0.00  0.00    -0.059 C 
ATOM     94  H23 non d ame     -12.888  13.300  71.953  0.00  0.00     0.038 H 
BRANCH  93  95
ATOM     95  C18 non d ame     -12.371  15.019  73.155  0.00  0.00    -0.073 C 
ATOM     96  H24 non d ame     -13.038  15.828  73.455  0.00  0.00     0.028 H 
ATOM     97  H25 non d ame     -12.348  14.260  73.937  0.00  0.00     0.028 H 
ATOM     98  H26 non d ame     -11.367  15.413  73.003  0.00  0.00     0.028 H 
ENDBRANCH  93  95
BRANCH  93  99
ATOM     99  C19 non d ame     -14.335  14.803  71.548  0.00  0.00    -0.073 C 
ATOM    100  H27 non d ame     -14.398  15.248  70.554  0.00  0.00     0.028 H 
ATOM    101  H28 non d ame     -14.984  13.929  71.597  0.00  0.00     0.028 H 
ATOM    102  H29 non d ame     -14.650  15.534  72.292  0.00  0.00     0.028 H 
ENDBRANCH  93  99
ENDBRANCH  90  93
ENDBRANCH   1  90
TORSDOF 26
ENDMDL
MODEL 6
REMARK VINA RESULT:      -7.0      3.626      9.834
REMARK  26 active torsions:
REMARK  status: ('A' for Active; 'I' for Inactive)
REMARK    1  A    between atoms: C2_2  and  C3_3 
REMARK    2  A    between atoms: C4_6  and  C5_7 
REMARK       I    between atoms: C5_7  and  N2_9 
REMARK    3  A    between atoms: N2_9  and  C6_10 
REMARK    4  A    between atoms: C6_10  and  C7_11 
REMARK    5  A    between atoms: C6_10  and  C8_13 
REMARK       I    between atoms: C7_11  and  N3_14 
REMARK    6  A    between atoms: N3_14  and  C9_15 
REMARK    7  A    between atoms: C9_15  and  C10_16 
REMARK    8  A    between atoms: C9_15  and  C11_18 
REMARK       I    between atoms: C10_16  and  N4_21 
REMARK    9  A    between atoms: C11_18  and  C12_19 
REMARK   10  A    between atoms: C11_18  and  C13_20 
REMARK   11  A    between atoms: N4_21  and  C14_22 
REMARK   12  A    between atoms: C14_22  and  C15_23 
REMARK   13  A    between atoms: C14_22  and  C16_25 
REMARK       I    between atoms: C15_23  and  N6_40 
REMARK   14  A    between atoms: C16_25  and  C17_26 
REMARK   15  A    between atoms: C17_26  and  C18_27 
REMARK   16  A    between atoms: C17_26  and  C19_28 
REMARK   17  A    between atoms: C20_29  and  C21_30 
REMARK   18  A    between atoms: C20_29  and  C24_33 
REMARK   19  A    between atoms: C20_29  and  N6_40 
REMARK   20  A    between atoms: C21_30  and  C22_31 
REMARK   21  A    between atoms: C22_31  and  C23_32 
REMARK   22  A    between atoms: C23_32  and  O8_43 
REMARK   23  A    between atoms: C24_33  and  C25_34 
REMARK   24  A    between atoms: C28_38  and  O6_39 
REMARK   25  A    between atoms: C29_42  and  O8_43 
REMARK   26  A    between atoms: C29_42  and  C35_49 
ROOT
ATOM      1  C14 non d ame     -11.798  11.010  68.802  0.00  0.00     0.089 C 
ATOM      2  H20 non d ame     -12.878  10.866  68.812  0.00  0.00     0.087 H 
ENDROOT
BRANCH   1   3
ATOM      3  N4  non d ame     -11.523  12.310  69.396  0.00  0.00    -0.346 N 
ATOM      4  C10 non d ame     -12.294  12.772  70.608  0.00  0.00     0.241 C 
ATOM      5  O4  non d ame     -13.132  12.080  71.085  0.00  0.00    -0.271 OA
ATOM      6  H19 non d ame     -10.807  12.884  68.973  0.00  0.00     0.163 HD
BRANCH   4   7
ATOM      7  C9  non d ame     -11.993  14.117  71.213  0.00  0.00     0.092 C 
ATOM      8  H11 non d ame     -10.983  14.108  71.625  0.00  0.00     0.088 H 
BRANCH   7   9
ATOM      9  N3  non d ame     -12.023  15.143  70.166  0.00  0.00    -0.346 N 
ATOM     10  C7  non d ame     -10.794  15.596  69.564  0.00  0.00     0.240 C 
ATOM     11  O3  non d ame      -9.770  15.148  69.912  0.00  0.00    -0.271 OA
ATOM     12  H10 non d ame     -12.898  15.540  69.857  0.00  0.00     0.163 HD
BRANCH  10  13
ATOM     13  C6  non d ame     -10.833  16.690  68.453  0.00  0.00     0.086 C 
ATOM     14  H6  non d ame     -11.620  17.427  68.613  0.00  0.00     0.086 H 
BRANCH  13  15
ATOM     15  N2  non d ame      -9.574  17.418  68.464  0.00  0.00    -0.343 N 
ATOM     16  C5  non d ame      -9.571  18.856  68.187  0.00  0.00     0.273 C 
ATOM     17  O2  non d ame     -10.585  19.417  67.954  0.00  0.00    -0.266 OA
ATOM     18  H5  non d ame      -8.713  16.931  68.661  0.00  0.00     0.163 HD
BRANCH  16  19
ATOM     19  C4  non d ame      -8.249  19.639  68.197  0.00  0.00     0.154 A 
ATOM     20  C1  non d ame      -7.220  19.585  69.191  0.00  0.00    -0.017 A 
ATOM     21  C2  non d ame      -6.228  20.483  68.737  0.00  0.00     0.077 A 
ATOM     22  H1  non d ame      -7.197  18.987  70.102  0.00  0.00     0.091 H 
ATOM     23  O1  non d ame      -6.647  20.986  67.612  0.00  0.00    -0.218 OA
ATOM     24  N1  non d ame      -7.824  20.510  67.277  0.00  0.00    -0.123 NA
BRANCH  21  25
ATOM     25  C3  non d ame      -4.912  20.799  69.434  0.00  0.00    -0.029 C 
ATOM     26  H2  non d ame      -4.336  21.497  68.824  0.00  0.00     0.036 H 
ATOM     27  H3  non d ame      -5.115  21.249  70.406  0.00  0.00     0.036 H 
ATOM     28  H4  non d ame      -4.342  19.880  69.570  0.00  0.00     0.036 H 
ENDBRANCH  21  25
ENDBRANCH  16  19
ENDBRANCH  13  15
BRANCH  13  29
ATOM     29  C8  non d ame     -11.040  16.039  67.109  0.00  0.00    -0.049 C 
ATOM     30  H7  non d ame     -10.789  14.980  67.175  0.00  0.00     0.030 H 
ATOM     31  H8  non d ame     -12.084  16.147  66.811  0.00  0.00     0.030 H 
ATOM     32  H9  non d ame     -10.399  16.518  66.371  0.00  0.00     0.030 H 
ENDBRANCH  13  29
ENDBRANCH  10  13
ENDBRANCH   7   9
BRANCH   7  33
ATOM     33  C11 non d ame     -13.062  14.451  72.294  0.00  0.00    -0.033 C 
ATOM     34  H12 non d ame     -13.473  13.507  72.652  0.00  0.00     0.042 H 
BRANCH  33  35
ATOM     35  C12 non d ame     -12.425  15.179  73.519  0.00  0.00    -0.071 C 
ATOM     36  H13 non d ame     -11.387  14.863  73.629  0.00  0.00     0.028 H 
ATOM     37  H14 non d ame     -12.461  16.256  73.361  0.00  0.00     0.028 H 
ATOM     38  H15 non d ame     -12.981  14.925  74.421  0.00  0.00     0.028 H 
ENDBRANCH  33  35
BRANCH  33  39
ATOM     39  C13 non d ame     -14.232  15.288  71.684  0.00  0.00    -0.071 C 
ATOM     40  H16 non d ame     -14.717  15.862  72.472  0.00  0.00     0.028 H 
ATOM     41  H17 non d ame     -13.837  15.968  70.928  0.00  0.00     0.028 H 
ATOM     42  H18 non d ame     -14.956  14.616  71.224  0.00  0.00     0.028 H 
ENDBRANCH  33  39
ENDBRANCH   7  33
ENDBRANCH   4   7
ENDBRANCH   1   3
BRANCH   1  43
ATOM     43  C15 non d ame     -11.052   9.921  69.626  0.00  0.00     0.240 C 
ATOM     44  O5  non d ame      -9.970  10.149  70.063  0.00  0.00    -0.271 OA
ATOM     45  N6  non d ame     -11.690   8.598  69.878  0.00  0.00    -0.355 N 
ATOM     46  H46 non d ame     -12.611   8.395  69.516  0.00  0.00     0.162 HD
BRANCH  45  47
ATOM     47  C20 non d ame     -10.968   7.574  70.665  0.00  0.00     0.013 C 
ATOM     48  H30 non d ame      -9.924   7.878  70.730  0.00  0.00     0.072 H 
BRANCH  47  49
ATOM     49  C21 non d ame     -11.075   6.239  69.964  0.00  0.00    -0.038 C 
ATOM     50  H31 non d ame     -10.800   5.492  70.709  0.00  0.00     0.036 H 
ATOM     51  H32 non d ame     -12.069   6.221  69.514  0.00  0.00     0.036 H 
BRANCH  49  52
ATOM     52  C22 non d ame     -10.069   6.089  68.803  0.00  0.00     0.018 C 
ATOM     53  H33 non d ame      -9.361   6.910  68.917  0.00  0.00     0.048 H 
ATOM     54  H34 non d ame      -9.718   5.057  68.847  0.00  0.00     0.048 H 
BRANCH  52  55
ATOM     55  C23 non d ame     -10.705   6.265  67.396  0.00  0.00     0.259 C 
ATOM     56  O7  non d ame     -11.003   7.346  67.001  0.00  0.00    -0.265 OA
BRANCH  55  57
ATOM     57  O8  non d ame     -10.943   5.119  66.589  0.00  0.00    -0.317 OA
BRANCH  57  58
ATOM     58  C29 non d ame      -9.781   4.317  66.359  0.00  0.00     0.052 C 
ATOM     59  H47 non d ame      -9.048   4.638  67.098  0.00  0.00     0.082 H 
ATOM     60  H48 non d ame     -10.132   3.284  66.354  0.00  0.00     0.082 H 
BRANCH  58  61
ATOM     61  C35 non d ame      -9.236   4.657  64.947  0.00  0.00    -0.034 A 
ATOM     62  C30 non d ame      -8.150   5.515  64.807  0.00  0.00    -0.075 A 
ATOM     63  C31 non d ame      -7.660   5.821  63.539  0.00  0.00    -0.082 A 
ATOM     64  H49 non d ame      -7.683   5.947  65.691  0.00  0.00     0.084 H 
ATOM     65  C32 non d ame      -8.263   5.267  62.406  0.00  0.00    -0.083 A 
ATOM     66  H50 non d ame      -6.808   6.492  63.433  0.00  0.00     0.083 H 
ATOM     67  C33 non d ame      -9.349   4.413  62.549  0.00  0.00    -0.082 A 
ATOM     68  H51 non d ame      -7.887   5.500  61.410  0.00  0.00     0.083 H 
ATOM     69  C34 non d ame      -9.840   4.103  63.816  0.00  0.00    -0.075 A 
ATOM     70  H52 non d ame      -9.818   3.985  61.663  0.00  0.00     0.083 H 
ATOM     71  H53 non d ame     -10.693   3.431  63.921  0.00  0.00     0.084 H 
ENDBRANCH  58  61
ENDBRANCH  57  58
ENDBRANCH  55  57
ENDBRANCH  52  55
ENDBRANCH  49  52
ENDBRANCH  47  49
BRANCH  47  72
ATOM     72  C24 non d ame     -11.580   7.469  72.060  0.00  0.00    -0.039 C 
ATOM     73  H35 non d ame     -12.229   8.339  72.159  0.00  0.00     0.036 H 
ATOM     74  H36 non d ame     -12.002   6.465  72.117  0.00  0.00     0.036 H 
BRANCH  72  75
ATOM     75  C25 non d ame     -10.465   7.579  73.205  0.00  0.00    -0.001 C 
ATOM     76  C26 non d ame      -8.994   7.869  72.530  0.00  0.00    -0.035 C 
ATOM     77  C27 non d ame      -8.106   6.968  73.013  0.00  0.00     0.085 C 
ATOM     78  H38 non d ame      -9.023   7.650  71.463  0.00  0.00     0.036 H 
ATOM     79  H39 non d ame      -8.604   8.825  72.880  0.00  0.00     0.036 H 
ATOM     80  N5  non d ame      -8.904   5.889  73.705  0.00  0.00    -0.049 N 
ATOM     81  H40 non d ame      -7.616   6.542  72.137  0.00  0.00     0.075 H 
ATOM     82  H41 non d ame      -7.520   7.508  73.758  0.00  0.00     0.075 H 
ATOM     83  C28 non d ame     -10.392   6.488  73.892  0.00  0.00     0.193 C 
ATOM     84  H42 non d ame      -8.949   5.111  73.062  0.00  0.00     0.280 HD
ATOM     85  H43 non d ame      -8.490   5.766  74.617  0.00  0.00     0.280 HD
ATOM     86  H44 non d ame     -10.726   6.844  74.867  0.00  0.00     0.129 H 
ATOM     87  H37 non d ame     -10.774   8.233  74.020  0.00  0.00     0.046 H 
BRANCH  83  88
ATOM     88  O6  non d ame     -11.365   5.526  73.482  0.00  0.00    -0.369 OA
ATOM     89  H45 non d ame     -12.227   5.781  73.816  0.00  0.00     0.212 HD
ENDBRANCH  83  88
ENDBRANCH  72  75
ENDBRANCH  47  72
ENDBRANCH  45  47
ENDBRANCH   1  43
BRANCH   1  90
ATOM     90  C16 non d ame     -11.291  11.002  67.368  0.00  0.00    -0.035 C 
ATOM     91  H21 non d ame     -10.309  10.530  67.412  0.00  0.00     0.037 H 
ATOM     92  H22 non d ame     -12.089  10.546  66.783  0.00  0.00     0.037 H 
BRANCH  90  93
ATOM     93  C17 non d ame     -11.067  12.429  66.775  0.00  0.00    -0.059 C 
ATOM     94  H23 non d ame     -11.291  13.152  67.560  0.00  0.00     0.038 H 
BRANCH  93  95
ATOM     95  C18 non d ame      -9.589  12.657  66.325  0.00  0.00    -0.073 C 
ATOM     96  H24 non d ame      -8.932  11.989  66.884  0.00  0.00     0.028 H 
ATOM     97  H25 non d ame      -9.497  12.446  65.260  0.00  0.00     0.028 H 
ATOM     98  H26 non d ame      -9.305  13.691  66.516  0.00  0.00     0.028 H 
ENDBRANCH  93  95
BRANCH  93  99
ATOM     99  C19 non d ame     -12.036  12.699  65.621  0.00  0.00    -0.073 C 
ATOM    100  H27 non d ame     -13.003  13.003  66.022  0.00  0.00     0.028 H 
ATOM    101  H28 non d ame     -11.638  13.494  64.990  0.00  0.00     0.028 H 
ATOM    102  H29 non d ame     -12.158  11.792  65.029  0.00  0.00     0.028 H 
ENDBRANCH  93  99
ENDBRANCH  90  93
ENDBRANCH   1  90
TORSDOF 26
ENDMDL
MODEL 7
REMARK VINA RESULT:      -7.0      2.581      8.807
REMARK  26 active torsions:
REMARK  status: ('A' for Active; 'I' for Inactive)
REMARK    1  A    between atoms: C2_2  and  C3_3 
REMARK    2  A    between atoms: C4_6  and  C5_7 
REMARK       I    between atoms: C5_7  and  N2_9 
REMARK    3  A    between atoms: N2_9  and  C6_10 
REMARK    4  A    between atoms: C6_10  and  C7_11 
REMARK    5  A    between atoms: C6_10  and  C8_13 
REMARK       I    between atoms: C7_11  and  N3_14 
REMARK    6  A    between atoms: N3_14  and  C9_15 
REMARK    7  A    between atoms: C9_15  and  C10_16 
REMARK    8  A    between atoms: C9_15  and  C11_18 
REMARK       I    between atoms: C10_16  and  N4_21 
REMARK    9  A    between atoms: C11_18  and  C12_19 
REMARK   10  A    between atoms: C11_18  and  C13_20 
REMARK   11  A    between atoms: N4_21  and  C14_22 
REMARK   12  A    between atoms: C14_22  and  C15_23 
REMARK   13  A    between atoms: C14_22  and  C16_25 
REMARK       I    between atoms: C15_23  and  N6_40 
REMARK   14  A    between atoms: C16_25  and  C17_26 
REMARK   15  A    between atoms: C17_26  and  C18_27 
REMARK   16  A    between atoms: C17_26  and  C19_28 
REMARK   17  A    between atoms: C20_29  and  C21_30 
REMARK   18  A    between atoms: C20_29  and  C24_33 
REMARK   19  A    between atoms: C20_29  and  N6_40 
REMARK   20  A    between atoms: C21_30  and  C22_31 
REMARK   21  A    between atoms: C22_31  and  C23_32 
REMARK   22  A    between atoms: C23_32  and  O8_43 
REMARK   23  A    between atoms: C24_33  and  C25_34 
REMARK   24  A    between atoms: C28_38  and  O6_39 
REMARK   25  A    between atoms: C29_42  and  O8_43 
REMARK   26  A    between atoms: C29_42  and  C35_49 
ROOT
ATOM      1  C14 non d ame      -6.418  16.060  67.726  0.00  0.00     0.089 C 
ATOM      2  H20 non d ame      -5.867  16.576  66.940  0.00  0.00     0.087 H 
ENDROOT
BRANCH   1   3
ATOM      3  N4  non d ame      -7.836  16.216  67.442  0.00  0.00    -0.346 N 
ATOM      4  C10 non d ame      -8.297  17.155  66.355  0.00  0.00     0.241 C 
ATOM      5  O4  non d ame      -7.507  17.776  65.724  0.00  0.00    -0.271 OA
ATOM      6  H19 non d ame      -8.493  15.680  67.992  0.00  0.00     0.163 HD
BRANCH   4   7
ATOM      7  C9  non d ame      -9.769  17.300  66.071  0.00  0.00     0.092 C 
ATOM      8  H11 non d ame      -9.902  17.853  65.142  0.00  0.00     0.088 H 
BRANCH   7   9
ATOM      9  N3  non d ame     -10.362  15.974  65.873  0.00  0.00    -0.346 N 
ATOM     10  C7  non d ame     -11.245  15.737  64.758  0.00  0.00     0.240 C 
ATOM     11  O3  non d ame     -11.490  16.604  64.010  0.00  0.00    -0.271 OA
ATOM     12  H10 non d ame     -10.161  15.218  66.512  0.00  0.00     0.163 HD
BRANCH  10  13
ATOM     13  C6  non d ame     -11.875  14.325  64.555  0.00  0.00     0.086 C 
ATOM     14  H6  non d ame     -12.555  14.284  63.704  0.00  0.00     0.086 H 
BRANCH  13  15
ATOM     15  N2  non d ame     -10.814  13.370  64.286  0.00  0.00    -0.343 N 
ATOM     16  C5  non d ame     -11.134  12.106  63.618  0.00  0.00     0.273 C 
ATOM     17  O2  non d ame     -12.248  11.867  63.304  0.00  0.00    -0.266 OA
ATOM     18  H5  non d ame      -9.865  13.580  64.559  0.00  0.00     0.163 HD
BRANCH  16  19
ATOM     19  C4  non d ame     -10.021  11.087  63.324  0.00  0.00     0.154 A 
ATOM     20  C1  non d ame      -9.614   9.990  64.149  0.00  0.00    -0.017 A 
ATOM     21  C2  non d ame      -8.565   9.369  63.435  0.00  0.00     0.077 A 
ATOM     22  H1  non d ame     -10.018   9.691  65.116  0.00  0.00     0.091 H 
ATOM     23  O1  non d ame      -8.398  10.037  62.331  0.00  0.00    -0.218 OA
ATOM     24  N1  non d ame      -9.236  11.045  62.244  0.00  0.00    -0.123 NA
BRANCH  21  25
ATOM     25  C3  non d ame      -7.778   8.143  63.876  0.00  0.00    -0.029 C 
ATOM     26  H2  non d ame      -6.917   8.007  63.220  0.00  0.00     0.036 H 
ATOM     27  H3  non d ame      -7.434   8.281  64.901  0.00  0.00     0.036 H 
ATOM     28  H4  non d ame      -8.417   7.261  63.824  0.00  0.00     0.036 H 
ENDBRANCH  21  25
ENDBRANCH  16  19
ENDBRANCH  13  15
BRANCH  13  29
ATOM     29  C8  non d ame     -12.627  13.924  65.799  0.00  0.00    -0.049 C 
ATOM     30  H7  non d ame     -11.998  14.089  66.674  0.00  0.00     0.030 H 
ATOM     31  H8  non d ame     -13.534  14.524  65.884  0.00  0.00     0.030 H 
ATOM     32  H9  non d ame     -12.893  12.869  65.738  0.00  0.00     0.030 H 
ENDBRANCH  13  29
ENDBRANCH  10  13
ENDBRANCH   7   9
BRANCH   7  33
ATOM     33  C11 non d ame     -10.463  18.002  67.275  0.00  0.00    -0.033 C 
ATOM     34  H12 non d ame     -11.439  18.349  66.934  0.00  0.00     0.042 H 
BRANCH  33  35
ATOM     35  C12 non d ame     -10.703  17.007  68.452  0.00  0.00    -0.071 C 
ATOM     36  H13 non d ame     -11.189  17.530  69.276  0.00  0.00     0.028 H 
ATOM     37  H14 non d ame     -11.342  16.191  68.114  0.00  0.00     0.028 H 
ATOM     38  H15 non d ame      -9.748  16.605  68.788  0.00  0.00     0.028 H 
ENDBRANCH  33  35
BRANCH  33  39
ATOM     39  C13 non d ame      -9.644  19.247  67.744  0.00  0.00    -0.071 C 
ATOM     40  H16 non d ame      -8.584  18.996  67.770  0.00  0.00     0.028 H 
ATOM     41  H17 non d ame      -9.805  20.072  67.049  0.00  0.00     0.028 H 
ATOM     42  H18 non d ame      -9.972  19.542  68.740  0.00  0.00     0.028 H 
ENDBRANCH  33  39
ENDBRANCH   7  33
ENDBRANCH   4   7
ENDBRANCH   1   3
BRANCH   1  43
ATOM     43  C15 non d ame      -6.087  14.540  67.775  0.00  0.00     0.240 C 
ATOM     44  O5  non d ame      -5.019  14.156  67.420  0.00  0.00    -0.271 OA
ATOM     45  N6  non d ame      -7.098  13.565  68.272  0.00  0.00    -0.355 N 
ATOM     46  H46 non d ame      -8.007  13.879  68.580  0.00  0.00     0.162 HD
BRANCH  45  47
ATOM     47  C20 non d ame      -6.767  12.124  68.314  0.00  0.00     0.013 C 
ATOM     48  H30 non d ame      -5.836  11.978  67.767  0.00  0.00     0.072 H 
BRANCH  47  49
ATOM     49  C21 non d ame      -7.880  11.336  67.660  0.00  0.00    -0.038 C 
ATOM     50  H31 non d ame      -7.429  10.852  66.794  0.00  0.00     0.036 H 
ATOM     51  H32 non d ame      -8.319  10.732  68.456  0.00  0.00     0.036 H 
BRANCH  49  52
ATOM     52  C22 non d ame      -9.013  12.235  67.120  0.00  0.00     0.018 C 
ATOM     53  H33 non d ame      -8.555  13.206  66.929  0.00  0.00     0.048 H 
ATOM     54  H34 non d ame      -9.467  11.676  66.300  0.00  0.00     0.048 H 
BRANCH  52  55
ATOM     55  C23 non d ame     -10.151  12.492  68.146  0.00  0.00     0.259 C 
ATOM     56  O7  non d ame     -10.267  13.556  68.662  0.00  0.00    -0.265 OA
BRANCH  55  57
ATOM     57  O8  non d ame     -11.047  11.438  68.474  0.00  0.00    -0.317 OA
BRANCH  57  58
ATOM     58  C29 non d ame     -11.907  11.725  69.580  0.00  0.00     0.052 C 
ATOM     59  H47 non d ame     -11.457  12.576  70.091  0.00  0.00     0.082 H 
ATOM     60  H48 non d ame     -12.909  11.810  69.160  0.00  0.00     0.082 H 
BRANCH  58  61
ATOM     61  C35 non d ame     -11.878  10.506  70.539  0.00  0.00    -0.034 A 
ATOM     62  C30 non d ame     -13.017  10.156  71.256  0.00  0.00    -0.075 A 
ATOM     63  C31 non d ame     -12.991   9.061  72.118  0.00  0.00    -0.082 A 
ATOM     64  H49 non d ame     -13.930  10.740  71.144  0.00  0.00     0.084 H 
ATOM     65  C32 non d ame     -11.819   8.314  72.263  0.00  0.00    -0.083 A 
ATOM     66  H50 non d ame     -13.886   8.789  72.677  0.00  0.00     0.083 H 
ATOM     67  C33 non d ame     -10.683   8.668  71.548  0.00  0.00    -0.082 A 
ATOM     68  H51 non d ame     -11.790   7.456  72.934  0.00  0.00     0.083 H 
ATOM     69  C34 non d ame     -10.705   9.762  70.683  0.00  0.00    -0.075 A 
ATOM     70  H52 non d ame      -9.769   8.086  71.664  0.00  0.00     0.083 H 
ATOM     71  H53 non d ame      -9.809  10.033  70.124  0.00  0.00     0.084 H 
ENDBRANCH  58  61
ENDBRANCH  57  58
ENDBRANCH  55  57
ENDBRANCH  52  55
ENDBRANCH  49  52
ENDBRANCH  47  49
BRANCH  47  72
ATOM     72  C24 non d ame      -6.607  11.673  69.764  0.00  0.00    -0.039 C 
ATOM     73  H35 non d ame      -7.239  12.342  70.348  0.00  0.00     0.036 H 
ATOM     74  H36 non d ame      -6.807  10.601  69.759  0.00  0.00     0.036 H 
BRANCH  72  75
ATOM     75  C25 non d ame      -5.104  11.870  70.283  0.00  0.00    -0.001 C 
ATOM     76  C26 non d ame      -4.586  10.502  71.034  0.00  0.00    -0.035 C 
ATOM     77  C27 non d ame      -4.088  10.833  72.249  0.00  0.00     0.085 C 
ATOM     78  H38 non d ame      -5.436   9.863  71.273  0.00  0.00     0.036 H 
ATOM     79  H39 non d ame      -3.724  10.090  70.508  0.00  0.00     0.036 H 
ATOM     80  N5  non d ame      -4.515  12.253  72.530  0.00  0.00    -0.049 N 
ATOM     81  H40 non d ame      -4.580  10.167  72.958  0.00  0.00     0.075 H 
ATOM     82  H41 non d ame      -3.004  10.805  72.137  0.00  0.00     0.075 H 
ATOM     83  C28 non d ame      -5.023  12.852  71.119  0.00  0.00     0.193 C 
ATOM     84  H42 non d ame      -5.305  12.196  73.158  0.00  0.00     0.280 HD
ATOM     85  H43 non d ame      -3.684  12.753  72.810  0.00  0.00     0.280 HD
ATOM     86  H44 non d ame      -4.398  13.543  70.554  0.00  0.00     0.129 H 
ATOM     87  H37 non d ame      -4.454  12.291  69.516  0.00  0.00     0.046 H 
BRANCH  83  88
ATOM     88  O6  non d ame      -6.275  13.519  71.290  0.00  0.00    -0.369 OA
ATOM     89  H45 non d ame      -6.564  13.877  70.448  0.00  0.00     0.212 HD
ENDBRANCH  83  88
ENDBRANCH  72  75
ENDBRANCH  47  72
ENDBRANCH  45  47
ENDBRANCH   1  43
BRANCH   1  90
ATOM     90  C16 non d ame      -6.108  16.694  69.073  0.00  0.00    -0.035 C 
ATOM     91  H21 non d ame      -7.073  17.001  69.476  0.00  0.00     0.037 H 
ATOM     92  H22 non d ame      -5.504  15.960  69.605  0.00  0.00     0.037 H 
BRANCH  90  93
ATOM     93  C17 non d ame      -5.242  17.989  68.970  0.00  0.00    -0.059 C 
ATOM     94  H23 non d ame      -4.728  18.119  69.923  0.00  0.00     0.038 H 
BRANCH  93  95
ATOM     95  C18 non d ame      -4.156  17.887  67.853  0.00  0.00    -0.073 C 
ATOM     96  H24 non d ame      -3.693  18.863  67.705  0.00  0.00     0.028 H 
ATOM     97  H25 non d ame      -3.394  17.166  68.151  0.00  0.00     0.028 H 
ATOM     98  H26 non d ame      -4.620  17.560  66.923  0.00  0.00     0.028 H 
ENDBRANCH  93  95
BRANCH  93  99
ATOM     99  C19 non d ame      -6.125  19.222  68.760  0.00  0.00    -0.073 C 
ATOM    100  H27 non d ame      -6.872  19.007  67.996  0.00  0.00     0.028 H 
ATOM    101  H28 non d ame      -6.624  19.475  69.696  0.00  0.00     0.028 H 
ATOM    102  H29 non d ame      -5.508  20.060  68.439  0.00  0.00     0.028 H 
ENDBRANCH  93  99
ENDBRANCH  90  93
ENDBRANCH   1  90
TORSDOF 26
ENDMDL
MODEL 8
REMARK VINA RESULT:      -6.9      3.615      9.661
REMARK  26 active torsions:
REMARK  status: ('A' for Active; 'I' for Inactive)
REMARK    1  A    between atoms: C2_2  and  C3_3 
REMARK    2  A    between atoms: C4_6  and  C5_7 
REMARK       I    between atoms: C5_7  and  N2_9 
REMARK    3  A    between atoms: N2_9  and  C6_10 
REMARK    4  A    between atoms: C6_10  and  C7_11 
REMARK    5  A    between atoms: C6_10  and  C8_13 
REMARK       I    between atoms: C7_11  and  N3_14 
REMARK    6  A    between atoms: N3_14  and  C9_15 
REMARK    7  A    between atoms: C9_15  and  C10_16 
REMARK    8  A    between atoms: C9_15  and  C11_18 
REMARK       I    between atoms: C10_16  and  N4_21 
REMARK    9  A    between atoms: C11_18  and  C12_19 
REMARK   10  A    between atoms: C11_18  and  C13_20 
REMARK   11  A    between atoms: N4_21  and  C14_22 
REMARK   12  A    between atoms: C14_22  and  C15_23 
REMARK   13  A    between atoms: C14_22  and  C16_25 
REMARK       I    between atoms: C15_23  and  N6_40 
REMARK   14  A    between atoms: C16_25  and  C17_26 
REMARK   15  A    between atoms: C17_26  and  C18_27 
REMARK   16  A    between atoms: C17_26  and  C19_28 
REMARK   17  A    between atoms: C20_29  and  C21_30 
REMARK   18  A    between atoms: C20_29  and  C24_33 
REMARK   19  A    between atoms: C20_29  and  N6_40 
REMARK   20  A    between atoms: C21_30  and  C22_31 
REMARK   21  A    between atoms: C22_31  and  C23_32 
REMARK   22  A    between atoms: C23_32  and  O8_43 
REMARK   23  A    between atoms: C24_33  and  C25_34 
REMARK   24  A    between atoms: C28_38  and  O6_39 
REMARK   25  A    between atoms: C29_42  and  O8_43 
REMARK   26  A    between atoms: C29_42  and  C35_49 
ROOT
ATOM      1  C14 non d ame      -9.635  10.277  69.593  0.00  0.00     0.089 C 
ATOM      2  H20 non d ame      -8.965  11.077  69.906  0.00  0.00     0.087 H 
ENDROOT
BRANCH   1   3
ATOM      3  N4  non d ame      -9.180   9.806  68.294  0.00  0.00    -0.346 N 
ATOM      4  C10 non d ame      -7.987  10.444  67.627  0.00  0.00     0.241 C 
ATOM      5  O4  non d ame      -7.411  11.338  68.156  0.00  0.00    -0.271 OA
ATOM      6  H19 non d ame      -9.685   9.046  67.859  0.00  0.00     0.163 HD
BRANCH   4   7
ATOM      7  C9  non d ame      -7.526   9.941  66.285  0.00  0.00     0.092 C 
ATOM      8  H11 non d ame      -7.904   8.930  66.131  0.00  0.00     0.088 H 
BRANCH   7   9
ATOM      9  N3  non d ame      -8.095  10.780  65.226  0.00  0.00    -0.346 N 
ATOM     10  C7  non d ame      -9.488  10.655  64.876  0.00  0.00     0.240 C 
ATOM     11  O3  non d ame     -10.166   9.881  65.435  0.00  0.00    -0.271 OA
ATOM     12  H10 non d ame      -7.522  11.450  64.734  0.00  0.00     0.163 HD
BRANCH  10  13
ATOM     13  C6  non d ame     -10.086  11.548  63.746  0.00  0.00     0.086 C 
ATOM     14  H6  non d ame     -11.149  11.370  63.584  0.00  0.00     0.086 H 
BRANCH  13  15
ATOM     15  N2  non d ame      -9.953  12.944  64.129  0.00  0.00    -0.343 N 
ATOM     16  C5  non d ame     -11.156  13.761  64.305  0.00  0.00     0.273 C 
ATOM     17  O2  non d ame     -12.224  13.287  64.134  0.00  0.00    -0.266 OA
ATOM     18  H5  non d ame      -9.036  13.342  64.271  0.00  0.00     0.163 HD
BRANCH  16  19
ATOM     19  C4  non d ame     -11.030  15.238  64.712  0.00  0.00     0.154 A 
ATOM     20  C1  non d ame     -10.347  15.765  65.854  0.00  0.00    -0.017 A 
ATOM     21  C2  non d ame     -10.527  17.163  65.773  0.00  0.00     0.077 A 
ATOM     22  H1  non d ame      -9.803  15.216  66.624  0.00  0.00     0.091 H 
ATOM     23  O1  non d ame     -11.232  17.402  64.705  0.00  0.00    -0.218 OA
ATOM     24  N1  non d ame     -11.538  16.293  64.070  0.00  0.00    -0.123 NA
BRANCH  21  25
ATOM     25  C3  non d ame      -9.994  18.200  66.752  0.00  0.00    -0.029 C 
ATOM     26  H2  non d ame      -9.992  17.782  67.760  0.00  0.00     0.036 H 
ATOM     27  H3  non d ame      -8.977  18.474  66.472  0.00  0.00     0.036 H 
ATOM     28  H4  non d ame     -10.629  19.086  66.727  0.00  0.00     0.036 H 
ENDBRANCH  21  25
ENDBRANCH  16  19
ENDBRANCH  13  15
BRANCH  13  29
ATOM     29  C8  non d ame      -9.348  11.295  62.456  0.00  0.00    -0.049 C 
ATOM     30  H7  non d ame      -8.885  12.221  62.114  0.00  0.00     0.030 H 
ATOM     31  H8  non d ame      -8.575  10.542  62.622  0.00  0.00     0.030 H 
ATOM     32  H9  non d ame     -10.047  10.939  61.701  0.00  0.00     0.030 H 
ENDBRANCH  13  29
ENDBRANCH  10  13
ENDBRANCH   7   9
BRANCH   7  33
ATOM     33  C11 non d ame      -5.972  10.002  66.214  0.00  0.00    -0.033 C 
ATOM     34  H12 non d ame      -5.631  10.650  67.021  0.00  0.00     0.042 H 
BRANCH  33  35
ATOM     35  C12 non d ame      -5.337   8.595  66.443  0.00  0.00    -0.071 C 
ATOM     36  H13 non d ame      -6.056   7.950  66.948  0.00  0.00     0.028 H 
ATOM     37  H14 non d ame      -5.068   8.156  65.482  0.00  0.00     0.028 H 
ATOM     38  H15 non d ame      -4.443   8.696  67.058  0.00  0.00     0.028 H 
ENDBRANCH  33  35
BRANCH  33  39
ATOM     39  C13 non d ame      -5.499  10.624  64.861  0.00  0.00    -0.071 C 
ATOM     40  H16 non d ame      -6.113  11.492  64.625  0.00  0.00     0.028 H 
ATOM     41  H17 non d ame      -4.455  10.928  64.945  0.00  0.00     0.028 H 
ATOM     42  H18 non d ame      -5.598   9.883  64.067  0.00  0.00     0.028 H 
ENDBRANCH  33  39
ENDBRANCH   7  33
ENDBRANCH   4   7
ENDBRANCH   1   3
BRANCH   1  43
ATOM     43  C15 non d ame      -9.624   9.079  70.585  0.00  0.00     0.240 C 
ATOM     44  O5  non d ame      -8.994   9.150  71.592  0.00  0.00    -0.271 OA
ATOM     45  N6  non d ame     -10.406   7.845  70.287  0.00  0.00    -0.355 N 
ATOM     46  H46 non d ame     -10.948   7.774  69.438  0.00  0.00     0.162 HD
BRANCH  45  47
ATOM     47  C20 non d ame     -10.386   6.716  71.242  0.00  0.00     0.013 C 
ATOM     48  H30 non d ame      -9.454   6.770  71.805  0.00  0.00     0.072 H 
BRANCH  47  49
ATOM     49  C21 non d ame     -10.451   5.413  70.477  0.00  0.00    -0.038 C 
ATOM     50  H31 non d ame      -9.442   5.001  70.509  0.00  0.00     0.036 H 
ATOM     51  H32 non d ame     -11.281   4.857  70.913  0.00  0.00     0.036 H 
BRANCH  49  52
ATOM     52  C22 non d ame     -10.794   5.610  68.985  0.00  0.00     0.018 C 
ATOM     53  H33 non d ame     -11.706   5.036  68.812  0.00  0.00     0.048 H 
ATOM     54  H34 non d ame     -10.791   6.688  68.821  0.00  0.00     0.048 H 
BRANCH  52  55
ATOM     55  C23 non d ame      -9.731   5.025  68.015  0.00  0.00     0.259 C 
ATOM     56  O7  non d ame      -9.623   3.850  67.878  0.00  0.00    -0.265 OA
BRANCH  55  57
ATOM     57  O8  non d ame      -8.876   5.909  67.301  0.00  0.00    -0.317 OA
BRANCH  57  58
ATOM     58  C29 non d ame      -9.090   5.912  65.886  0.00  0.00     0.052 C 
ATOM     59  H47 non d ame      -9.617   4.985  65.665  0.00  0.00     0.082 H 
ATOM     60  H48 non d ame      -9.557   6.871  65.661  0.00  0.00     0.082 H 
BRANCH  58  61
ATOM     61  C35 non d ame      -7.703   5.867  65.192  0.00  0.00    -0.034 A 
ATOM     62  C30 non d ame      -7.507   6.528  63.984  0.00  0.00    -0.075 A 
ATOM     63  C31 non d ame      -6.261   6.487  63.360  0.00  0.00    -0.082 A 
ATOM     64  H49 non d ame      -8.328   7.077  63.526  0.00  0.00     0.084 H 
ATOM     65  C32 non d ame      -5.208   5.781  63.949  0.00  0.00    -0.083 A 
ATOM     66  H50 non d ame      -6.110   7.008  62.415  0.00  0.00     0.083 H 
ATOM     67  C33 non d ame      -5.409   5.120  65.153  0.00  0.00    -0.082 A 
ATOM     68  H51 non d ame      -4.231   5.744  63.468  0.00  0.00     0.083 H 
ATOM     69  C34 non d ame      -6.653   5.160  65.781  0.00  0.00    -0.075 A 
ATOM     70  H52 non d ame      -4.587   4.567  65.608  0.00  0.00     0.083 H 
ATOM     71  H53 non d ame      -6.802   4.639  66.728  0.00  0.00     0.084 H 
ENDBRANCH  58  61
ENDBRANCH  57  58
ENDBRANCH  55  57
ENDBRANCH  52  55
ENDBRANCH  49  52
ENDBRANCH  47  49
BRANCH  47  72
ATOM     72  C24 non d ame     -11.583   6.815  72.183  0.00  0.00    -0.039 C 
ATOM     73  H35 non d ame     -11.868   5.785  72.401  0.00  0.00     0.036 H 
ATOM     74  H36 non d ame     -11.264   7.474  72.991  0.00  0.00     0.036 H 
BRANCH  72  75
ATOM     75  C25 non d ame     -12.839   7.511  71.474  0.00  0.00    -0.001 C 
ATOM     76  C26 non d ame     -12.964   9.076  71.964  0.00  0.00    -0.035 C 
ATOM     77  C27 non d ame     -14.230   9.301  72.390  0.00  0.00     0.085 C 
ATOM     78  H38 non d ame     -12.363   9.236  72.859  0.00  0.00     0.036 H 
ATOM     79  H39 non d ame     -12.859   9.745  71.110  0.00  0.00     0.036 H 
ATOM     80  N5  non d ame     -14.891   7.952  72.541  0.00  0.00    -0.049 N 
ATOM     81  H40 non d ame     -14.130   9.760  73.374  0.00  0.00     0.075 H 
ATOM     82  H41 non d ame     -14.717   9.845  71.581  0.00  0.00     0.075 H 
ATOM     83  C28 non d ame     -13.940   6.901  71.767  0.00  0.00     0.193 C 
ATOM     84  H42 non d ame     -14.875   7.734  73.527  0.00  0.00     0.280 HD
ATOM     85  H43 non d ame     -15.772   8.008  72.051  0.00  0.00     0.280 HD
ATOM     86  H44 non d ame     -14.222   6.517  70.787  0.00  0.00     0.129 H 
ATOM     87  H37 non d ame     -12.863   7.325  70.400  0.00  0.00     0.046 H 
BRANCH  83  88
ATOM     88  O6  non d ame     -13.717   5.748  72.580  0.00  0.00    -0.369 OA
ATOM     89  H45 non d ame     -14.537   5.260  72.674  0.00  0.00     0.212 HD
ENDBRANCH  83  88
ENDBRANCH  72  75
ENDBRANCH  47  72
ENDBRANCH  45  47
ENDBRANCH   1  43
BRANCH   1  90
ATOM     90  C16 non d ame     -11.051  10.815  69.458  0.00  0.00    -0.035 C 
ATOM     91  H21 non d ame     -11.508  10.228  68.661  0.00  0.00     0.037 H 
ATOM     92  H22 non d ame     -11.468  10.785  70.464  0.00  0.00     0.037 H 
BRANCH  90  93
ATOM     93  C17 non d ame     -11.113  12.306  68.998  0.00  0.00    -0.059 C 
ATOM     94  H23 non d ame     -10.103  12.710  69.050  0.00  0.00     0.038 H 
BRANCH  93  95
ATOM     95  C18 non d ame     -11.608  12.449  67.524  0.00  0.00    -0.073 C 
ATOM     96  H24 non d ame     -10.766  12.706  66.881  0.00  0.00     0.028 H 
ATOM     97  H25 non d ame     -12.042  11.505  67.193  0.00  0.00     0.028 H 
ATOM     98  H26 non d ame     -12.362  13.234  67.467  0.00  0.00     0.028 H 
ENDBRANCH  93  95
BRANCH  93  99
ATOM     99  C19 non d ame     -11.983  13.135  69.948  0.00  0.00    -0.073 C 
ATOM    100  H27 non d ame     -11.522  13.157  70.935  0.00  0.00     0.028 H 
ATOM    101  H28 non d ame     -12.072  14.151  69.565  0.00  0.00     0.028 H 
ATOM    102  H29 non d ame     -12.972  12.685  70.019  0.00  0.00     0.028 H 
ENDBRANCH  93  99
ENDBRANCH  90  93
ENDBRANCH   1  90
TORSDOF 26
ENDMDL
MODEL 9
REMARK VINA RESULT:      -6.8      2.814      9.161
REMARK  26 active torsions:
REMARK  status: ('A' for Active; 'I' for Inactive)
REMARK    1  A    between atoms: C2_2  and  C3_3 
REMARK    2  A    between atoms: C4_6  and  C5_7 
REMARK       I    between atoms: C5_7  and  N2_9 
REMARK    3  A    between atoms: N2_9  and  C6_10 
REMARK    4  A    between atoms: C6_10  and  C7_11 
REMARK    5  A    between atoms: C6_10  and  C8_13 
REMARK       I    between atoms: C7_11  and  N3_14 
REMARK    6  A    between atoms: N3_14  and  C9_15 
REMARK    7  A    between atoms: C9_15  and  C10_16 
REMARK    8  A    between atoms: C9_15  and  C11_18 
REMARK       I    between atoms: C10_16  and  N4_21 
REMARK    9  A    between atoms: C11_18  and  C12_19 
REMARK   10  A    between atoms: C11_18  and  C13_20 
REMARK   11  A    between atoms: N4_21  and  C14_22 
REMARK   12  A    between atoms: C14_22  and  C15_23 
REMARK   13  A    between atoms: C14_22  and  C16_25 
REMARK       I    between atoms: C15_23  and  N6_40 
REMARK   14  A    between atoms: C16_25  and  C17_26 
REMARK   15  A    between atoms: C17_26  and  C18_27 
REMARK   16  A    between atoms: C17_26  and  C19_28 
REMARK   17  A    between atoms: C20_29  and  C21_30 
REMARK   18  A    between atoms: C20_29  and  C24_33 
REMARK   19  A    between atoms: C20_29  and  N6_40 
REMARK   20  A    between atoms: C21_30  and  C22_31 
REMARK   21  A    between atoms: C22_31  and  C23_32 
REMARK   22  A    between atoms: C23_32  and  O8_43 
REMARK   23  A    between atoms: C24_33  and  C25_34 
REMARK   24  A    between atoms: C28_38  and  O6_39 
REMARK   25  A    between atoms: C29_42  and  O8_43 
REMARK   26  A    between atoms: C29_42  and  C35_49 
ROOT
ATOM      1  C14 non d ame      -8.824   8.904  69.477  0.00  0.00     0.089 C 
ATOM      2  H20 non d ame      -9.044   7.864  69.240  0.00  0.00     0.087 H 
ENDROOT
BRANCH   1   3
ATOM      3  N4  non d ame      -8.692   9.623  68.219  0.00  0.00    -0.346 N 
ATOM      4  C10 non d ame      -8.759   8.881  66.907  0.00  0.00     0.241 C 
ATOM      5  O4  non d ame      -8.916   7.705  66.891  0.00  0.00    -0.271 OA
ATOM      6  H19 non d ame      -8.556  10.624  68.255  0.00  0.00     0.163 HD
BRANCH   4   7
ATOM      7  C9  non d ame      -8.626   9.642  65.614  0.00  0.00     0.092 C 
ATOM      8  H11 non d ame      -8.954   9.008  64.790  0.00  0.00     0.088 H 
BRANCH   7   9
ATOM      9  N3  non d ame      -9.512  10.809  65.640  0.00  0.00    -0.346 N 
ATOM     10  C7  non d ame     -10.380  11.082  64.522  0.00  0.00     0.240 C 
ATOM     11  O3  non d ame     -10.377  10.372  63.590  0.00  0.00    -0.271 OA
ATOM     12  H10 non d ame      -9.524  11.431  66.436  0.00  0.00     0.163 HD
BRANCH  10  13
ATOM     13  C6  non d ame     -11.317  12.328  64.554  0.00  0.00     0.086 C 
ATOM     14  H6  non d ame     -12.095  12.252  65.315  0.00  0.00     0.086 H 
BRANCH  13  15
ATOM     15  N2  non d ame     -10.528  13.503  64.884  0.00  0.00    -0.343 N 
ATOM     16  C5  non d ame     -11.009  14.430  65.911  0.00  0.00     0.273 C 
ATOM     17  O2  non d ame     -12.033  14.223  66.464  0.00  0.00    -0.266 OA
ATOM     18  H5  non d ame      -9.655  13.674  64.406  0.00  0.00     0.163 HD
BRANCH  16  19
ATOM     19  C4  non d ame     -10.183  15.675  66.272  0.00  0.00     0.154 A 
ATOM     20  C1  non d ame      -9.625  16.002  67.548  0.00  0.00    -0.017 A 
ATOM     21  C2  non d ame      -8.967  17.237  67.352  0.00  0.00     0.077 A 
ATOM     22  H1  non d ame      -9.687  15.431  68.475  0.00  0.00     0.091 H 
ATOM     23  O1  non d ame      -9.132  17.570  66.105  0.00  0.00    -0.218 OA
ATOM     24  N1  non d ame      -9.840  16.675  65.455  0.00  0.00    -0.123 NA
BRANCH  21  25
ATOM     25  C3  non d ame      -8.203  18.028  68.405  0.00  0.00    -0.029 C 
ATOM     26  H2  non d ame      -8.594  19.046  68.450  0.00  0.00     0.036 H 
ATOM     27  H3  non d ame      -8.322  17.550  69.376  0.00  0.00     0.036 H 
ATOM     28  H4  non d ame      -7.145  18.058  68.142  0.00  0.00     0.036 H 
ENDBRANCH  21  25
ENDBRANCH  16  19
ENDBRANCH  13  15
BRANCH  13  29
ATOM     29  C8  non d ame     -11.969  12.507  63.207  0.00  0.00    -0.049 C 
ATOM     30  H7  non d ame     -11.201  12.561  62.435  0.00  0.00     0.030 H 
ATOM     31  H8  non d ame     -12.626  11.659  63.006  0.00  0.00     0.030 H 
ATOM     32  H9  non d ame     -12.552  13.426  63.204  0.00  0.00     0.030 H 
ENDBRANCH  13  29
ENDBRANCH  10  13
ENDBRANCH   7   9
BRANCH   7  33
ATOM     33  C11 non d ame      -7.153  10.114  65.439  0.00  0.00    -0.033 C 
ATOM     34  H12 non d ame      -7.063  11.091  65.914  0.00  0.00     0.042 H 
BRANCH  33  35
ATOM     35  C12 non d ame      -6.157   9.150  66.155  0.00  0.00    -0.071 C 
ATOM     36  H13 non d ame      -6.343   8.127  65.828  0.00  0.00     0.028 H 
ATOM     37  H14 non d ame      -5.135   9.431  65.904  0.00  0.00     0.028 H 
ATOM     38  H15 non d ame      -6.298   9.219  67.233  0.00  0.00     0.028 H 
ENDBRANCH  33  35
BRANCH  33  39
ATOM     39  C13 non d ame      -6.795  10.277  63.927  0.00  0.00    -0.071 C 
ATOM     40  H16 non d ame      -5.939  10.943  63.826  0.00  0.00     0.028 H 
ATOM     41  H17 non d ame      -6.551   9.303  63.503  0.00  0.00     0.028 H 
ATOM     42  H18 non d ame      -7.648  10.700  63.396  0.00  0.00     0.028 H 
ENDBRANCH  33  39
ENDBRANCH   7  33
ENDBRANCH   4   7
ENDBRANCH   1   3
BRANCH   1  43
ATOM     43  C15 non d ame      -9.956   9.569  70.311  0.00  0.00     0.240 C 
ATOM     44  O5  non d ame     -10.112   9.260  71.449  0.00  0.00    -0.271 OA
ATOM     45  N6  non d ame     -10.841  10.599  69.695  0.00  0.00    -0.355 N 
ATOM     46  H46 non d ame     -10.715  10.873  68.731  0.00  0.00     0.162 HD
BRANCH  45  47
ATOM     47  C20 non d ame     -11.912  11.222  70.502  0.00  0.00     0.013 C 
ATOM     48  H30 non d ame     -11.545  11.326  71.523  0.00  0.00     0.072 H 
BRANCH  47  49
ATOM     49  C21 non d ame     -13.136  10.335  70.481  0.00  0.00    -0.038 C 
ATOM     50  H31 non d ame     -13.966  10.985  70.205  0.00  0.00     0.036 H 
ATOM     51  H32 non d ame     -12.872   9.487  69.847  0.00  0.00     0.036 H 
BRANCH  49  52
ATOM     52  C22 non d ame     -13.478   9.752  71.869  0.00  0.00     0.018 C 
ATOM     53  H33 non d ame     -12.532   9.699  72.409  0.00  0.00     0.048 H 
ATOM     54  H34 non d ame     -14.292  10.367  72.255  0.00  0.00     0.048 H 
BRANCH  52  55
ATOM     55  C23 non d ame     -14.024   8.298  71.820  0.00  0.00     0.259 C 
ATOM     56  O7  non d ame     -15.073   8.032  72.309  0.00  0.00    -0.265 OA
BRANCH  55  57
ATOM     57  O8  non d ame     -13.249   7.283  71.194  0.00  0.00    -0.317 OA
BRANCH  57  58
ATOM     58  C29 non d ame     -12.258   6.699  72.044  0.00  0.00     0.052 C 
ATOM     59  H47 non d ame     -11.758   7.534  72.532  0.00  0.00     0.082 H 
ATOM     60  H48 non d ame     -12.784   5.954  72.641  0.00  0.00     0.082 H 
BRANCH  58  61
ATOM     61  C35 non d ame     -11.227   5.967  71.144  0.00  0.00    -0.034 A 
ATOM     62  C30 non d ame     -11.237   6.167  69.768  0.00  0.00    -0.075 A 
ATOM     63  C31 non d ame     -10.312   5.510  68.959  0.00  0.00    -0.082 A 
ATOM     64  H49 non d ame     -11.971   6.839  69.323  0.00  0.00     0.084 H 
ATOM     65  C32 non d ame      -9.373   4.647  69.532  0.00  0.00    -0.083 A 
ATOM     66  H50 non d ame     -10.321   5.671  67.881  0.00  0.00     0.083 H 
ATOM     67  C33 non d ame      -9.368   4.447  70.906  0.00  0.00    -0.082 A 
ATOM     68  H51 non d ame      -8.646   4.129  68.908  0.00  0.00     0.083 H 
ATOM     69  C34 non d ame     -10.291   5.105  71.718  0.00  0.00    -0.075 A 
ATOM     70  H52 non d ame      -8.637   3.772  71.350  0.00  0.00     0.083 H 
ATOM     71  H53 non d ame     -10.280   4.943  72.797  0.00  0.00     0.084 H 
ENDBRANCH  58  61
ENDBRANCH  57  58
ENDBRANCH  55  57
ENDBRANCH  52  55
ENDBRANCH  49  52
ENDBRANCH  47  49
BRANCH  47  72
ATOM     72  C24 non d ame     -12.263  12.591  69.923  0.00  0.00    -0.039 C 
ATOM     73  H35 non d ame     -11.447  12.838  69.245  0.00  0.00     0.036 H 
ATOM     74  H36 non d ame     -13.279  12.491  69.539  0.00  0.00     0.036 H 
BRANCH  72  75
ATOM     75  C25 non d ame     -12.296  13.723  71.056  0.00  0.00    -0.001 C 
ATOM     76  C26 non d ame     -13.547  13.448  72.088  0.00  0.00    -0.035 C 
ATOM     77  C27 non d ame     -14.274  14.584  72.206  0.00  0.00     0.085 C 
ATOM     78  H38 non d ame     -14.249  12.742  71.644  0.00  0.00     0.036 H 
ATOM     79  H39 non d ame     -13.170  13.280  73.097  0.00  0.00     0.036 H 
ATOM     80  N5  non d ame     -13.827  15.511  71.102  0.00  0.00    -0.049 N 
ATOM     81  H40 non d ame     -15.308  14.290  72.025  0.00  0.00     0.075 H 
ATOM     82  H41 non d ame     -13.989  15.014  73.166  0.00  0.00     0.075 H 
ATOM     83  C28 non d ame     -12.443  14.897  70.539  0.00  0.00     0.193 C 
ATOM     84  H42 non d ame     -14.525  15.448  70.374  0.00  0.00     0.280 HD
ATOM     85  H43 non d ame     -13.630  16.401  71.536  0.00  0.00     0.280 HD
ATOM     86  H44 non d ame     -11.488  15.352  70.803  0.00  0.00     0.129 H 
ATOM     87  H37 non d ame     -11.315  13.891  71.500  0.00  0.00     0.046 H 
BRANCH  83  88
ATOM     88  O6  non d ame     -12.466  14.859  69.111  0.00  0.00    -0.369 OA
ATOM     89  H45 non d ame     -12.365  13.953  68.814  0.00  0.00     0.212 HD
ENDBRANCH  83  88
ENDBRANCH  72  75
ENDBRANCH  47  72
ENDBRANCH  45  47
ENDBRANCH   1  43
BRANCH   1  90
ATOM     90  C16 non d ame      -7.510   8.991  70.239  0.00  0.00    -0.035 C 
ATOM     91  H21 non d ame      -6.977   9.834  69.798  0.00  0.00     0.037 H 
ATOM     92  H22 non d ame      -7.788   9.013  71.292  0.00  0.00     0.037 H 
BRANCH  90  93
ATOM     93  C17 non d ame      -6.593   7.742  70.049  0.00  0.00    -0.059 C 
ATOM     94  H23 non d ame      -7.013   7.142  69.242  0.00  0.00     0.038 H 
BRANCH  93  95
ATOM     95  C18 non d ame      -5.137   8.134  69.643  0.00  0.00    -0.073 C 
ATOM     96  H24 non d ame      -4.460   7.930  70.473  0.00  0.00     0.028 H 
ATOM     97  H25 non d ame      -4.832   7.549  68.775  0.00  0.00     0.028 H 
ATOM     98  H26 non d ame      -5.101   9.195  69.396  0.00  0.00     0.028 H 
ENDBRANCH  93  95
BRANCH  93  99
ATOM     99  C19 non d ame      -6.591   6.869  71.308  0.00  0.00    -0.073 C 
ATOM    100  H27 non d ame      -7.264   7.301  72.049  0.00  0.00     0.028 H 
ATOM    101  H28 non d ame      -6.926   5.864  71.054  0.00  0.00     0.028 H 
ATOM    102  H29 non d ame      -5.582   6.824  71.717  0.00  0.00     0.028 H 
ENDBRANCH  93  99
ENDBRANCH  90  93
ENDBRANCH   1  90
TORSDOF 26
ENDMDL
MODEL 10
REMARK VINA RESULT:      -6.8      2.846      6.538
REMARK  26 active torsions:
REMARK  status: ('A' for Active; 'I' for Inactive)
REMARK    1  A    between atoms: C2_2  and  C3_3 
REMARK    2  A    between atoms: C4_6  and  C5_7 
REMARK       I    between atoms: C5_7  and  N2_9 
REMARK    3  A    between atoms: N2_9  and  C6_10 
REMARK    4  A    between atoms: C6_10  and  C7_11 
REMARK    5  A    between atoms: C6_10  and  C8_13 
REMARK       I    between atoms: C7_11  and  N3_14 
REMARK    6  A    between atoms: N3_14  and  C9_15 
REMARK    7  A    between atoms: C9_15  and  C10_16 
REMARK    8  A    between atoms: C9_15  and  C11_18 
REMARK       I    between atoms: C10_16  and  N4_21 
REMARK    9  A    between atoms: C11_18  and  C12_19 
REMARK   10  A    between atoms: C11_18  and  C13_20 
REMARK   11  A    between atoms: N4_21  and  C14_22 
REMARK   12  A    between atoms: C14_22  and  C15_23 
REMARK   13  A    between atoms: C14_22  and  C16_25 
REMARK       I    between atoms: C15_23  and  N6_40 
REMARK   14  A    between atoms: C16_25  and  C17_26 
REMARK   15  A    between atoms: C17_26  and  C18_27 
REMARK   16  A    between atoms: C17_26  and  C19_28 
REMARK   17  A    between atoms: C20_29  and  C21_30 
REMARK   18  A    between atoms: C20_29  and  C24_33 
REMARK   19  A    between atoms: C20_29  and  N6_40 
REMARK   20  A    between atoms: C21_30  and  C22_31 
REMARK   21  A    between atoms: C22_31  and  C23_32 
REMARK   22  A    between atoms: C23_32  and  O8_43 
REMARK   23  A    between atoms: C24_33  and  C25_34 
REMARK   24  A    between atoms: C28_38  and  O6_39 
REMARK   25  A    between atoms: C29_42  and  O8_43 
REMARK   26  A    between atoms: C29_42  and  C35_49 
ROOT
ATOM      1  C14 non d ame     -10.667   9.459  69.598  0.00  0.00     0.089 C 
ATOM      2  H20 non d ame     -10.834   8.688  68.847  0.00  0.00     0.087 H 
ENDROOT
BRANCH   1   3
ATOM      3  N4  non d ame      -9.282   9.891  69.483  0.00  0.00    -0.346 N 
ATOM      4  C10 non d ame      -8.196   8.892  69.171  0.00  0.00     0.241 C 
ATOM      5  O4  non d ame      -8.462   7.745  69.019  0.00  0.00    -0.271 OA
ATOM      6  H19 non d ame      -9.077  10.871  69.619  0.00  0.00     0.163 HD
BRANCH   4   7
ATOM      7  C9  non d ame      -6.769   9.357  69.050  0.00  0.00     0.092 C 
ATOM      8  H11 non d ame      -6.101   8.538  69.317  0.00  0.00     0.088 H 
BRANCH   7   9
ATOM      9  N3  non d ame      -6.486   9.708  67.655  0.00  0.00    -0.346 N 
ATOM     10  C7  non d ame      -5.718   8.812  66.826  0.00  0.00     0.240 C 
ATOM     11  O3  non d ame      -5.319   7.803  67.267  0.00  0.00    -0.271 OA
ATOM     12  H10 non d ame      -6.822  10.576  67.262  0.00  0.00     0.163 HD
BRANCH  10  13
ATOM     13  C6  non d ame      -5.417   9.194  65.344  0.00  0.00     0.086 C 
ATOM     14  H6  non d ame      -5.355   8.325  64.689  0.00  0.00     0.086 H 
BRANCH  13  15
ATOM     15  N2  non d ame      -6.504  10.018  64.840  0.00  0.00    -0.343 N 
ATOM     16  C5  non d ame      -7.718   9.377  64.330  0.00  0.00     0.273 C 
ATOM     17  O2  non d ame      -7.809   8.198  64.327  0.00  0.00    -0.266 OA
ATOM     18  H5  non d ame      -6.417  11.024  64.844  0.00  0.00     0.163 HD
BRANCH  16  19
ATOM     19  C4  non d ame      -8.875  10.235  63.796  0.00  0.00     0.154 A 
ATOM     20  C1  non d ame     -10.019  10.692  64.524  0.00  0.00    -0.017 A 
ATOM     21  C2  non d ame     -10.774  11.435  63.588  0.00  0.00     0.077 A 
ATOM     22  H1  non d ame     -10.266  10.513  65.571  0.00  0.00     0.091 H 
ATOM     23  O1  non d ame     -10.128  11.403  62.458  0.00  0.00    -0.218 OA
ATOM     24  N1  non d ame      -9.018  10.708  62.555  0.00  0.00    -0.123 NA
BRANCH  21  25
ATOM     25  C3  non d ame     -12.095  12.143  63.853  0.00  0.00    -0.029 C 
ATOM     26  H2  non d ame     -12.906  11.590  63.378  0.00  0.00     0.036 H 
ATOM     27  H3  non d ame     -12.271  12.193  64.928  0.00  0.00     0.036 H 
ATOM     28  H4  non d ame     -12.055  13.153  63.445  0.00  0.00     0.036 H 
ENDBRANCH  21  25
ENDBRANCH  16  19
ENDBRANCH  13  15
BRANCH  13  29
ATOM     29  C8  non d ame      -4.118   9.954  65.271  0.00  0.00    -0.049 C 
ATOM     30  H7  non d ame      -3.974  10.334  64.260  0.00  0.00     0.030 H 
ATOM     31  H8  non d ame      -4.145  10.789  65.973  0.00  0.00     0.030 H 
ATOM     32  H9  non d ame      -3.294   9.290  65.529  0.00  0.00     0.030 H 
ENDBRANCH  13  29
ENDBRANCH  10  13
ENDBRANCH   7   9
BRANCH   7  33
ATOM     33  C11 non d ame      -6.552  10.607  69.952  0.00  0.00    -0.033 C 
ATOM     34  H12 non d ame      -7.472  10.770  70.513  0.00  0.00     0.042 H 
BRANCH  33  35
ATOM     35  C12 non d ame      -5.407  10.370  70.986  0.00  0.00    -0.071 C 
ATOM     36  H13 non d ame      -5.486  11.102  71.789  0.00  0.00     0.028 H 
ATOM     37  H14 non d ame      -5.495   9.366  71.401  0.00  0.00     0.028 H 
ATOM     38  H15 non d ame      -4.443  10.474  70.490  0.00  0.00     0.028 H 
ENDBRANCH  33  35
BRANCH  33  39
ATOM     39  C13 non d ame      -6.280  11.879  69.088  0.00  0.00    -0.071 C 
ATOM     40  H16 non d ame      -6.922  12.692  69.425  0.00  0.00     0.028 H 
ATOM     41  H17 non d ame      -5.235  12.174  69.192  0.00  0.00     0.028 H 
ATOM     42  H18 non d ame      -6.492  11.659  68.042  0.00  0.00     0.028 H 
ENDBRANCH  33  39
ENDBRANCH   7  33
ENDBRANCH   4   7
ENDBRANCH   1   3
BRANCH   1  43
ATOM     43  C15 non d ame     -11.590  10.694  69.388  0.00  0.00     0.240 C 
ATOM     44  O5  non d ame     -12.351  10.714  68.475  0.00  0.00    -0.271 OA
ATOM     45  N6  non d ame     -11.531  11.848  70.330  0.00  0.00    -0.355 N 
ATOM     46  H46 non d ame     -10.891  11.840  71.111  0.00  0.00     0.162 HD
BRANCH  45  47
ATOM     47  C20 non d ame     -12.415  13.014  70.117  0.00  0.00     0.013 C 
ATOM     48  H30 non d ame     -13.202  12.715  69.423  0.00  0.00     0.072 H 
BRANCH  47  49
ATOM     49  C21 non d ame     -11.612  14.151  69.528  0.00  0.00    -0.038 C 
ATOM     50  H31 non d ame     -12.096  15.064  69.874  0.00  0.00     0.036 H 
ATOM     51  H32 non d ame     -10.574  13.947  69.797  0.00  0.00     0.036 H 
BRANCH  49  52
ATOM     52  C22 non d ame     -11.663  14.185  67.985  0.00  0.00     0.018 C 
ATOM     53  H33 non d ame     -12.234  13.305  67.688  0.00  0.00     0.048 H 
ATOM     54  H34 non d ame     -12.023  15.181  67.724  0.00  0.00     0.048 H 
BRANCH  52  55
ATOM     55  C23 non d ame     -10.271  14.041  67.309  0.00  0.00     0.259 C 
ATOM     56  O7  non d ame      -9.754  12.975  67.218  0.00  0.00    -0.265 OA
BRANCH  55  57
ATOM     57  O8  non d ame      -9.614  15.199  66.812  0.00  0.00    -0.317 OA
BRANCH  57  58
ATOM     58  C29 non d ame     -10.480  16.120  66.142  0.00  0.00     0.052 C 
ATOM     59  H47 non d ame     -10.129  16.160  65.112  0.00  0.00     0.082 H 
ATOM     60  H48 non d ame     -11.493  15.782  66.360  0.00  0.00     0.082 H 
BRANCH  58  61
ATOM     61  C35 non d ame     -10.281  17.518  66.784  0.00  0.00    -0.034 A 
ATOM     62  C30 non d ame     -10.483  18.667  66.027  0.00  0.00    -0.075 A 
ATOM     63  C31 non d ame     -10.304  19.924  66.603  0.00  0.00    -0.082 A 
ATOM     64  H49 non d ame     -10.782  18.584  64.983  0.00  0.00     0.084 H 
ATOM     65  C32 non d ame      -9.918  20.029  67.943  0.00  0.00    -0.083 A 
ATOM     66  H50 non d ame     -10.465  20.822  66.008  0.00  0.00     0.083 H 
ATOM     67  C33 non d ame      -9.714  18.879  68.694  0.00  0.00    -0.082 A 
ATOM     68  H51 non d ame      -9.776  21.007  68.401  0.00  0.00     0.083 H 
ATOM     69  C34 non d ame      -9.895  17.621  68.122  0.00  0.00    -0.075 A 
ATOM     70  H52 non d ame      -9.411  18.964  69.738  0.00  0.00     0.083 H 
ATOM     71  H53 non d ame      -9.733  16.723  68.719  0.00  0.00     0.084 H 
ENDBRANCH  58  61
ENDBRANCH  57  58
ENDBRANCH  55  57
ENDBRANCH  52  55
ENDBRANCH  49  52
ENDBRANCH  47  49
BRANCH  47  72
ATOM     72  C24 non d ame     -13.020  13.452  71.448  0.00  0.00    -0.039 C 
ATOM     73  H35 non d ame     -14.072  13.172  71.396  0.00  0.00     0.036 H 
ATOM     74  H36 non d ame     -12.379  13.019  72.216  0.00  0.00     0.036 H 
BRANCH  72  75
ATOM     75  C25 non d ame     -12.964  15.043  71.629  0.00  0.00    -0.001 C 
ATOM     76  C26 non d ame     -11.982  15.431  72.890  0.00  0.00    -0.035 C 
ATOM     77  C27 non d ame     -12.647  16.267  73.721  0.00  0.00     0.085 C 
ATOM     78  H38 non d ame     -11.802  14.550  73.506  0.00  0.00     0.036 H 
ATOM     79  H39 non d ame     -11.143  16.032  72.540  0.00  0.00     0.036 H 
ATOM     80  N5  non d ame     -14.101  16.229  73.316  0.00  0.00    -0.049 N 
ATOM     81  H40 non d ame     -12.544  15.834  74.716  0.00  0.00     0.075 H 
ATOM     82  H41 non d ame     -12.248  17.260  73.514  0.00  0.00     0.075 H 
ATOM     83  C28 non d ame     -14.138  15.529  71.861  0.00  0.00     0.193 C 
ATOM     84  H42 non d ame     -14.566  15.622  73.976  0.00  0.00     0.280 HD
ATOM     85  H43 non d ame     -14.397  17.189  73.218  0.00  0.00     0.280 HD
ATOM     86  H44 non d ame     -14.286  16.128  70.962  0.00  0.00     0.129 H 
ATOM     87  H37 non d ame     -12.787  15.560  70.686  0.00  0.00     0.046 H 
BRANCH  83  88
ATOM     88  O6  non d ame     -15.154  14.526  71.823  0.00  0.00    -0.369 OA
ATOM     89  H45 non d ame     -14.750  13.667  71.682  0.00  0.00     0.212 HD
ENDBRANCH  83  88
ENDBRANCH  72  75
ENDBRANCH  47  72
ENDBRANCH  45  47
ENDBRANCH   1  43
BRANCH   1  90
ATOM     90  C16 non d ame     -10.894   8.882  70.987  0.00  0.00    -0.035 C 
ATOM     91  H21 non d ame     -10.187   8.057  71.075  0.00  0.00     0.037 H 
ATOM     92  H22 non d ame     -10.826   9.731  71.667  0.00  0.00     0.037 H 
BRANCH  90  93
ATOM     93  C17 non d ame     -12.316   8.269  71.186  0.00  0.00    -0.059 C 
ATOM     94  H23 non d ame     -12.841   8.337  70.234  0.00  0.00     0.038 H 
BRANCH  93  95
ATOM     95  C18 non d ame     -12.257   6.762  71.592  0.00  0.00    -0.073 C 
ATOM     96  H24 non d ame     -12.200   6.681  72.678  0.00  0.00     0.028 H 
ATOM     97  H25 non d ame     -13.155   6.255  71.238  0.00  0.00     0.028 H 
ATOM     98  H26 non d ame     -11.379   6.299  71.145  0.00  0.00     0.028 H 
ENDBRANCH  93  95
BRANCH  93  99
ATOM     99  C19 non d ame     -13.122   9.078  72.207  0.00  0.00    -0.073 C 
ATOM    100  H27 non d ame     -13.646   9.886  71.696  0.00  0.00     0.028 H 
ATOM    101  H28 non d ame     -13.846   8.427  72.696  0.00  0.00     0.028 H 
ATOM    102  H29 non d ame     -12.447   9.497  72.952  0.00  0.00     0.028 H 
ENDBRANCH  93  99
ENDBRANCH  90  93
ENDBRANCH   1  90
TORSDOF 26
ENDMDL
MODEL 11
REMARK VINA RESULT:      -6.8      2.739      8.984
REMARK  26 active torsions:
REMARK  status: ('A' for Active; 'I' for Inactive)
REMARK    1  A    between atoms: C2_2  and  C3_3 
REMARK    2  A    between atoms: C4_6  and  C5_7 
REMARK       I    between atoms: C5_7  and  N2_9 
REMARK    3  A    between atoms: N2_9  and  C6_10 
REMARK    4  A    between atoms: C6_10  and  C7_11 
REMARK    5  A    between atoms: C6_10  and  C8_13 
REMARK       I    between atoms: C7_11  and  N3_14 
REMARK    6  A    between atoms: N3_14  and  C9_15 
REMARK    7  A    between atoms: C9_15  and  C10_16 
REMARK    8  A    between atoms: C9_15  and  C11_18 
REMARK       I    between atoms: C10_16  and  N4_21 
REMARK    9  A    between atoms: C11_18  and  C12_19 
REMARK   10  A    between atoms: C11_18  and  C13_20 
REMARK   11  A    between atoms: N4_21  and  C14_22 
REMARK   12  A    between atoms: C14_22  and  C15_23 
REMARK   13  A    between atoms: C14_22  and  C16_25 
REMARK       I    between atoms: C15_23  and  N6_40 
REMARK   14  A    between atoms: C16_25  and  C17_26 
REMARK   15  A    between atoms: C17_26  and  C18_27 
REMARK   16  A    between atoms: C17_26  and  C19_28 
REMARK   17  A    between atoms: C20_29  and  C21_30 
REMARK   18  A    between atoms: C20_29  and  C24_33 
REMARK   19  A    between atoms: C20_29  and  N6_40 
REMARK   20  A    between atoms: C21_30  and  C22_31 
REMARK   21  A    between atoms: C22_31  and  C23_32 
REMARK   22  A    between atoms: C23_32  and  O8_43 
REMARK   23  A    between atoms: C24_33  and  C25_34 
REMARK   24  A    between atoms: C28_38  and  O6_39 
REMARK   25  A    between atoms: C29_42  and  O8_43 
REMARK   26  A    between atoms: C29_42  and  C35_49 
ROOT
ATOM      1  C14 non d ame      -8.877   9.214  68.471  0.00  0.00     0.089 C 
ATOM      2  H20 non d ame      -9.174   8.204  68.187  0.00  0.00     0.087 H 
ENDROOT
BRANCH   1   3
ATOM      3  N4  non d ame      -8.967  10.048  67.283  0.00  0.00    -0.346 N 
ATOM      4  C10 non d ame      -9.643   9.531  66.038  0.00  0.00     0.241 C 
ATOM      5  O4  non d ame     -10.105   8.437  66.016  0.00  0.00    -0.271 OA
ATOM      6  H19 non d ame      -8.565  10.975  67.321  0.00  0.00     0.163 HD
BRANCH   4   7
ATOM      7  C9  non d ame      -9.732  10.410  64.818  0.00  0.00     0.092 C 
ATOM      8  H11 non d ame     -10.736  10.342  64.400  0.00  0.00     0.088 H 
BRANCH   7   9
ATOM      9  N3  non d ame      -9.519  11.808  65.207  0.00  0.00    -0.346 N 
ATOM     10  C7  non d ame     -10.640  12.628  65.592  0.00  0.00     0.240 C 
ATOM     11  O3  non d ame     -11.722  12.180  65.594  0.00  0.00    -0.271 OA
ATOM     12  H10 non d ame      -8.592  12.208  65.208  0.00  0.00     0.163 HD
BRANCH  10  13
ATOM     13  C6  non d ame     -10.408  14.115  66.001  0.00  0.00     0.086 C 
ATOM     14  H6  non d ame     -10.988  14.408  66.876  0.00  0.00     0.086 H 
BRANCH  13  15
ATOM     15  N2  non d ame      -9.008  14.294  66.350  0.00  0.00    -0.343 N 
ATOM     16  C5  non d ame      -8.658  15.013  67.578  0.00  0.00     0.273 C 
ATOM     17  O2  non d ame      -9.509  15.444  68.275  0.00  0.00    -0.266 OA
ATOM     18  H5  non d ame      -8.287  13.924  65.748  0.00  0.00     0.163 HD
BRANCH  16  19
ATOM     19  C4  non d ame      -7.183  15.208  67.961  0.00  0.00     0.154 A 
ATOM     20  C1  non d ame      -6.658  16.086  68.962  0.00  0.00    -0.017 A 
ATOM     21  C2  non d ame      -5.260  15.892  68.920  0.00  0.00     0.077 A 
ATOM     22  H1  non d ame      -7.208  16.762  69.617  0.00  0.00     0.091 H 
ATOM     23  O1  non d ame      -5.019  15.002  68.001  0.00  0.00    -0.218 OA
ATOM     24  N1  non d ame      -6.126  14.589  67.427  0.00  0.00    -0.123 NA
BRANCH  21  25
ATOM     25  C3  non d ame      -4.226  16.592  69.791  0.00  0.00    -0.029 C 
ATOM     26  H2  non d ame      -3.224  16.362  69.424  0.00  0.00     0.036 H 
ATOM     27  H3  non d ame      -4.388  17.669  69.753  0.00  0.00     0.036 H 
ATOM     28  H4  non d ame      -4.323  16.247  70.821  0.00  0.00     0.036 H 
ENDBRANCH  21  25
ENDBRANCH  16  19
ENDBRANCH  13  15
BRANCH  13  29
ATOM     29  C8  non d ame     -10.772  15.019  64.850  0.00  0.00    -0.049 C 
ATOM     30  H7  non d ame     -11.825  14.888  64.604  0.00  0.00     0.030 H 
ATOM     31  H8  non d ame     -10.591  16.057  65.133  0.00  0.00     0.030 H 
ATOM     32  H9  non d ame     -10.162  14.767  63.983  0.00  0.00     0.030 H 
ENDBRANCH  13  29
ENDBRANCH  10  13
ENDBRANCH   7   9
BRANCH   7  33
ATOM     33  C11 non d ame      -8.640   9.987  63.793  0.00  0.00    -0.033 C 
ATOM     34  H12 non d ame      -8.869   8.972  63.468  0.00  0.00     0.042 H 
BRANCH  33  35
ATOM     35  C12 non d ame      -8.664  10.900  62.528  0.00  0.00    -0.071 C 
ATOM     36  H13 non d ame      -7.762  10.729  61.939  0.00  0.00     0.028 H 
ATOM     37  H14 non d ame      -9.541  10.664  61.925  0.00  0.00     0.028 H 
ATOM     38  H15 non d ame      -8.705  11.945  62.835  0.00  0.00     0.028 H 
ENDBRANCH  33  35
BRANCH  33  39
ATOM     39  C13 non d ame      -7.225   9.974  64.456  0.00  0.00    -0.071 C 
ATOM     40  H16 non d ame      -6.490  10.362  63.751  0.00  0.00     0.028 H 
ATOM     41  H17 non d ame      -7.237  10.598  65.350  0.00  0.00     0.028 H 
ATOM     42  H18 non d ame      -6.962   8.953  64.729  0.00  0.00     0.028 H 
ENDBRANCH  33  39
ENDBRANCH   7  33
ENDBRANCH   4   7
ENDBRANCH   1   3
BRANCH   1  43
ATOM     43  C15 non d ame      -9.804   9.812  69.568  0.00  0.00     0.240 C 
ATOM     44  O5  non d ame      -9.603   9.562  70.713  0.00  0.00    -0.271 OA
ATOM     45  N6  non d ame     -10.937  10.704  69.192  0.00  0.00    -0.355 N 
ATOM     46  H46 non d ame     -11.115  10.928  68.223  0.00  0.00     0.162 HD
BRANCH  45  47
ATOM     47  C20 non d ame     -11.809  11.266  70.247  0.00  0.00     0.013 C 
ATOM     48  H30 non d ame     -11.210  11.381  71.150  0.00  0.00     0.072 H 
BRANCH  47  49
ATOM     49  C21 non d ame     -12.957  10.317  70.506  0.00  0.00    -0.038 C 
ATOM     50  H31 non d ame     -13.856  10.934  70.502  0.00  0.00     0.036 H 
ATOM     51  H32 non d ame     -12.843   9.513  69.777  0.00  0.00     0.036 H 
BRANCH  49  52
ATOM     52  C22 non d ame     -12.885   9.656  71.899  0.00  0.00     0.018 C 
ATOM     53  H33 non d ame     -11.849   9.340  72.024  0.00  0.00     0.048 H 
ATOM     54  H34 non d ame     -13.323  10.377  72.590  0.00  0.00     0.048 H 
BRANCH  52  55
ATOM     55  C23 non d ame     -13.743   8.366  72.024  0.00  0.00     0.259 C 
ATOM     56  O7  non d ame     -14.869   8.425  72.397  0.00  0.00    -0.265 OA
BRANCH  55  57
ATOM     57  O8  non d ame     -13.162   7.109  71.700  0.00  0.00    -0.317 OA
BRANCH  57  58
ATOM     58  C29 non d ame     -11.770   7.011  72.013  0.00  0.00     0.052 C 
ATOM     59  H47 non d ame     -11.384   8.029  71.964  0.00  0.00     0.082 H 
ATOM     60  H48 non d ame     -11.716   6.453  72.948  0.00  0.00     0.082 H 
BRANCH  58  61
ATOM     61  C35 non d ame     -11.087   6.172  70.900  0.00  0.00    -0.034 A 
ATOM     62  C30 non d ame     -11.240   6.530  69.565  0.00  0.00    -0.075 A 
ATOM     63  C31 non d ame     -10.627   5.777  68.565  0.00  0.00    -0.082 A 
ATOM     64  H49 non d ame     -11.840   7.400  69.302  0.00  0.00     0.084 H 
ATOM     65  C32 non d ame      -9.859   4.660  68.906  0.00  0.00    -0.083 A 
ATOM     66  H50 non d ame     -10.747   6.060  67.520  0.00  0.00     0.083 H 
ATOM     67  C33 non d ame      -9.711   4.304  70.240  0.00  0.00    -0.082 A 
ATOM     68  H51 non d ame      -9.375   4.065  68.131  0.00  0.00     0.083 H 
ATOM     69  C34 non d ame     -10.320   5.056  71.242  0.00  0.00    -0.075 A 
ATOM     70  H52 non d ame      -9.113   3.431  70.502  0.00  0.00     0.083 H 
ATOM     71  H53 non d ame     -10.199   4.771  72.288  0.00  0.00     0.084 H 
ENDBRANCH  58  61
ENDBRANCH  57  58
ENDBRANCH  55  57
ENDBRANCH  52  55
ENDBRANCH  49  52
ENDBRANCH  47  49
BRANCH  47  72
ATOM     72  C24 non d ame     -12.356  12.619  69.797  0.00  0.00    -0.039 C 
ATOM     73  H35 non d ame     -11.672  12.967  69.023  0.00  0.00     0.036 H 
ATOM     74  H36 non d ame     -13.405  12.443  69.557  0.00  0.00     0.036 H 
BRANCH  72  75
ATOM     75  C25 non d ame     -12.318  13.697  70.982  0.00  0.00    -0.001 C 
ATOM     76  C26 non d ame     -13.605  13.480  71.981  0.00  0.00    -0.035 C 
ATOM     77  C27 non d ame     -14.239  14.665  72.141  0.00  0.00     0.085 C 
ATOM     78  H38 non d ame     -14.354  12.855  71.493  0.00  0.00     0.036 H 
ATOM     79  H39 non d ame     -13.262  13.235  72.986  0.00  0.00     0.036 H 
ATOM     80  N5  non d ame     -13.697  15.602  71.088  0.00  0.00    -0.049 N 
ATOM     81  H40 non d ame     -15.290  14.466  71.932  0.00  0.00     0.075 H 
ATOM     82  H41 non d ame     -13.938  15.026  73.124  0.00  0.00     0.075 H 
ATOM     83  C28 non d ame     -12.358  14.902  70.518  0.00  0.00     0.193 C 
ATOM     84  H42 non d ame     -14.385  15.630  70.349  0.00  0.00     0.280 HD
ATOM     85  H43 non d ame     -13.437  16.452  71.567  0.00  0.00     0.280 HD
ATOM     86  H44 non d ame     -11.374  15.264  70.818  0.00  0.00     0.129 H 
ATOM     87  H37 non d ame     -11.335  13.764  71.447  0.00  0.00     0.046 H 
BRANCH  83  88
ATOM     88  O6  non d ame     -12.358  14.931  69.090  0.00  0.00    -0.369 OA
ATOM     89  H45 non d ame     -11.470  14.761  68.767  0.00  0.00     0.212 HD
ENDBRANCH  83  88
ENDBRANCH  72  75
ENDBRANCH  47  72
ENDBRANCH  45  47
ENDBRANCH   1  43
BRANCH   1  90
ATOM     90  C16 non d ame      -7.439   9.207  68.966  0.00  0.00    -0.035 C 
ATOM     91  H21 non d ame      -6.876   9.772  68.223  0.00  0.00     0.037 H 
ATOM     92  H22 non d ame      -7.487   9.558  69.996  0.00  0.00     0.037 H 
BRANCH  90  93
ATOM     93  C17 non d ame      -6.799   7.783  69.013  0.00  0.00    -0.059 C 
ATOM     94  H23 non d ame      -5.717   7.907  69.014  0.00  0.00     0.038 H 
BRANCH  93  95
ATOM     95  C18 non d ame      -7.191   7.003  70.308  0.00  0.00    -0.073 C 
ATOM     96  H24 non d ame      -7.936   7.572  70.865  0.00  0.00     0.028 H 
ATOM     97  H25 non d ame      -7.606   6.032  70.036  0.00  0.00     0.028 H 
ATOM     98  H26 non d ame      -6.306   6.859  70.928  0.00  0.00     0.028 H 
ENDBRANCH  93  95
BRANCH  93  99
ATOM     99  C19 non d ame      -7.163   6.979  67.762  0.00  0.00    -0.073 C 
ATOM    100  H27 non d ame      -6.785   5.962  67.861  0.00  0.00     0.028 H 
ATOM    101  H28 non d ame      -8.247   6.955  67.648  0.00  0.00     0.028 H 
ATOM    102  H29 non d ame      -6.716   7.449  66.886  0.00  0.00     0.028 H 
ENDBRANCH  93  99
ENDBRANCH  90  93
ENDBRANCH   1  90
TORSDOF 26
ENDMDL
MODEL 12
REMARK VINA RESULT:      -6.8      3.961      9.841
REMARK  26 active torsions:
REMARK  status: ('A' for Active; 'I' for Inactive)
REMARK    1  A    between atoms: C2_2  and  C3_3 
REMARK    2  A    between atoms: C4_6  and  C5_7 
REMARK       I    between atoms: C5_7  and  N2_9 
REMARK    3  A    between atoms: N2_9  and  C6_10 
REMARK    4  A    between atoms: C6_10  and  C7_11 
REMARK    5  A    between atoms: C6_10  and  C8_13 
REMARK       I    between atoms: C7_11  and  N3_14 
REMARK    6  A    between atoms: N3_14  and  C9_15 
REMARK    7  A    between atoms: C9_15  and  C10_16 
REMARK    8  A    between atoms: C9_15  and  C11_18 
REMARK       I    between atoms: C10_16  and  N4_21 
REMARK    9  A    between atoms: C11_18  and  C12_19 
REMARK   10  A    between atoms: C11_18  and  C13_20 
REMARK   11  A    between atoms: N4_21  and  C14_22 
REMARK   12  A    between atoms: C14_22  and  C15_23 
REMARK   13  A    between atoms: C14_22  and  C16_25 
REMARK       I    between atoms: C15_23  and  N6_40 
REMARK   14  A    between atoms: C16_25  and  C17_26 
REMARK   15  A    between atoms: C17_26  and  C18_27 
REMARK   16  A    between atoms: C17_26  and  C19_28 
REMARK   17  A    between atoms: C20_29  and  C21_30 
REMARK   18  A    between atoms: C20_29  and  C24_33 
REMARK   19  A    between atoms: C20_29  and  N6_40 
REMARK   20  A    between atoms: C21_30  and  C22_31 
REMARK   21  A    between atoms: C22_31  and  C23_32 
REMARK   22  A    between atoms: C23_32  and  O8_43 
REMARK   23  A    between atoms: C24_33  and  C25_34 
REMARK   24  A    between atoms: C28_38  and  O6_39 
REMARK   25  A    between atoms: C29_42  and  O8_43 
REMARK   26  A    between atoms: C29_42  and  C35_49 
ROOT
ATOM      1  C14 non d ame     -10.029  10.923  64.282  0.00  0.00     0.089 C 
ATOM      2  H20 non d ame     -10.973  10.379  64.318  0.00  0.00     0.087 H 
ENDROOT
BRANCH   1   3
ATOM      3  N4  non d ame      -9.706  11.330  65.642  0.00  0.00    -0.346 N 
ATOM      4  C10 non d ame     -10.004  10.414  66.802  0.00  0.00     0.241 C 
ATOM      5  O4  non d ame     -10.506   9.354  66.617  0.00  0.00    -0.271 OA
ATOM      6  H19 non d ame      -9.282  12.237  65.778  0.00  0.00     0.163 HD
BRANCH   4   7
ATOM      7  C9  non d ame      -9.658  10.849  68.202  0.00  0.00     0.092 C 
ATOM      8  H11 non d ame      -8.574  10.877  68.312  0.00  0.00     0.088 H 
BRANCH   7   9
ATOM      9  N3  non d ame     -10.151  12.212  68.426  0.00  0.00    -0.346 N 
ATOM     10  C7  non d ame      -9.321  13.343  68.092  0.00  0.00     0.240 C 
ATOM     11  O3  non d ame      -8.253  13.175  67.643  0.00  0.00    -0.271 OA
ATOM     12  H10 non d ame     -11.069  12.372  68.815  0.00  0.00     0.163 HD
BRANCH  10  13
ATOM     13  C6  non d ame      -9.850  14.790  68.336  0.00  0.00     0.086 C 
ATOM     14  H6  non d ame     -10.643  15.073  67.644  0.00  0.00     0.086 H 
BRANCH  13  15
ATOM     15  N2  non d ame     -10.418  14.864  69.672  0.00  0.00    -0.343 N 
ATOM     16  C5  non d ame     -11.724  15.499  69.865  0.00  0.00     0.273 C 
ATOM     17  O2  non d ame     -12.308  15.948  68.941  0.00  0.00    -0.266 OA
ATOM     18  H5  non d ame      -9.913  14.480  70.457  0.00  0.00     0.163 HD
BRANCH  16  19
ATOM     19  C4  non d ame     -12.339  15.583  71.271  0.00  0.00     0.154 A 
ATOM     20  C1  non d ame     -11.641  15.736  72.512  0.00  0.00    -0.017 A 
ATOM     21  C2  non d ame     -12.653  15.758  73.498  0.00  0.00     0.077 A 
ATOM     22  H1  non d ame     -10.566  15.819  72.672  0.00  0.00     0.091 H 
ATOM     23  O1  non d ame     -13.794  15.633  72.885  0.00  0.00    -0.218 OA
ATOM     24  N1  non d ame     -13.636  15.528  71.585  0.00  0.00    -0.123 NA
BRANCH  21  25
ATOM     25  C3  non d ame     -12.446  15.903  74.999  0.00  0.00    -0.029 C 
ATOM     26  H2  non d ame     -13.241  16.520  75.419  0.00  0.00     0.036 H 
ATOM     27  H3  non d ame     -12.466  14.918  75.465  0.00  0.00     0.036 H 
ATOM     28  H4  non d ame     -11.481  16.375  75.190  0.00  0.00     0.036 H 
ENDBRANCH  21  25
ENDBRANCH  16  19
ENDBRANCH  13  15
BRANCH  13  29
ATOM     29  C8  non d ame      -8.714  15.772  68.204  0.00  0.00    -0.049 C 
ATOM     30  H7  non d ame      -8.011  15.629  69.024  0.00  0.00     0.030 H 
ATOM     31  H8  non d ame      -8.203  15.610  67.254  0.00  0.00     0.030 H 
ATOM     32  H9  non d ame      -9.107  16.788  68.236  0.00  0.00     0.030 H 
ENDBRANCH  13  29
ENDBRANCH  10  13
ENDBRANCH   7   9
BRANCH   7  33
ATOM     33  C11 non d ame     -10.325   9.884  69.225  0.00  0.00    -0.033 C 
ATOM     34  H12 non d ame     -10.686   9.017  68.672  0.00  0.00     0.042 H 
BRANCH  33  35
ATOM     35  C12 non d ame      -9.295   9.372  70.279  0.00  0.00    -0.071 C 
ATOM     36  H13 non d ame      -8.785   8.490  69.890  0.00  0.00     0.028 H 
ATOM     37  H14 non d ame      -8.563  10.154  70.481  0.00  0.00     0.028 H 
ATOM     38  H15 non d ame      -9.816   9.115  71.201  0.00  0.00     0.028 H 
ENDBRANCH  33  35
BRANCH  33  39
ATOM     39  C13 non d ame     -11.552  10.562  69.915  0.00  0.00    -0.071 C 
ATOM     40  H16 non d ame     -11.807  11.479  69.385  0.00  0.00     0.028 H 
ATOM     41  H17 non d ame     -12.403   9.881  69.896  0.00  0.00     0.028 H 
ATOM     42  H18 non d ame     -11.300  10.799  70.949  0.00  0.00     0.028 H 
ENDBRANCH  33  39
ENDBRANCH   7  33
ENDBRANCH   4   7
ENDBRANCH   1   3
BRANCH   1  43
ATOM     43  C15 non d ame      -8.865  10.046  63.739  0.00  0.00     0.240 C 
ATOM     44  O5  non d ame      -8.023  10.537  63.058  0.00  0.00    -0.271 OA
ATOM     45  N6  non d ame      -8.794   8.595  64.074  0.00  0.00    -0.355 N 
ATOM     46  H46 non d ame      -9.501   8.167  64.654  0.00  0.00     0.162 HD
BRANCH  45  47
ATOM     47  C20 non d ame      -7.680   7.775  63.550  0.00  0.00     0.013 C 
ATOM     48  H30 non d ame      -6.996   8.439  63.022  0.00  0.00     0.072 H 
BRANCH  47  49
ATOM     49  C21 non d ame      -8.229   6.735  62.599  0.00  0.00    -0.038 C 
ATOM     50  H31 non d ame      -9.295   6.947  62.513  0.00  0.00     0.036 H 
ATOM     51  H32 non d ame      -7.590   6.780  61.716  0.00  0.00     0.036 H 
BRANCH  49  52
ATOM     52  C22 non d ame      -8.111   5.298  63.150  0.00  0.00     0.018 C 
ATOM     53  H33 non d ame      -7.605   4.724  62.373  0.00  0.00     0.048 H 
ATOM     54  H34 non d ame      -7.659   5.396  64.137  0.00  0.00     0.048 H 
BRANCH  52  55
ATOM     55  C23 non d ame      -9.482   4.600  63.373  0.00  0.00     0.259 C 
ATOM     56  O7  non d ame     -10.038   4.063  62.471  0.00  0.00    -0.265 OA
BRANCH  55  57
ATOM     57  O8  non d ame     -10.073   4.621  64.666  0.00  0.00    -0.317 OA
BRANCH  57  58
ATOM     58  C29 non d ame      -9.172   4.281  65.725  0.00  0.00     0.052 C 
ATOM     59  H47 non d ame      -9.167   3.193  65.770  0.00  0.00     0.082 H 
ATOM     60  H48 non d ame      -8.250   4.822  65.512  0.00  0.00     0.082 H 
BRANCH  58  61
ATOM     61  C35 non d ame      -9.765   4.826  67.051  0.00  0.00    -0.034 A 
ATOM     62  C30 non d ame      -9.373   4.276  68.267  0.00  0.00    -0.075 A 
ATOM     63  C31 non d ame      -9.906   4.765  69.459  0.00  0.00    -0.082 A 
ATOM     64  H49 non d ame      -8.650   3.462  68.286  0.00  0.00     0.084 H 
ATOM     65  C32 non d ame     -10.836   5.808  69.431  0.00  0.00    -0.083 A 
ATOM     66  H50 non d ame      -9.596   4.333  70.410  0.00  0.00     0.083 H 
ATOM     67  C33 non d ame     -11.226   6.352  68.215  0.00  0.00    -0.082 A 
ATOM     68  H51 non d ame     -11.257   6.196  70.358  0.00  0.00     0.083 H 
ATOM     69  C34 non d ame     -10.694   5.867  67.022  0.00  0.00    -0.075 A 
ATOM     70  H52 non d ame     -11.954   7.164  68.197  0.00  0.00     0.083 H 
ATOM     71  H53 non d ame     -11.006   6.301  66.070  0.00  0.00     0.084 H 
ENDBRANCH  58  61
ENDBRANCH  57  58
ENDBRANCH  55  57
ENDBRANCH  52  55
ENDBRANCH  49  52
ENDBRANCH  47  49
BRANCH  47  72
ATOM     72  C24 non d ame      -6.962   7.082  64.705  0.00  0.00    -0.039 C 
ATOM     73  H35 non d ame      -7.749   6.774  65.394  0.00  0.00     0.036 H 
ATOM     74  H36 non d ame      -6.321   6.332  64.241  0.00  0.00     0.036 H 
BRANCH  72  75
ATOM     75  C25 non d ame      -6.008   8.093  65.501  0.00  0.00    -0.001 C 
ATOM     76  C26 non d ame      -4.518   7.423  65.694  0.00  0.00    -0.035 C 
ATOM     77  C27 non d ame      -4.172   7.496  67.001  0.00  0.00     0.085 C 
ATOM     78  H38 non d ame      -4.563   6.351  65.502  0.00  0.00     0.036 H 
ATOM     79  H39 non d ame      -3.766   8.035  65.196  0.00  0.00     0.036 H 
ATOM     80  N5  non d ame      -5.421   7.856  67.769  0.00  0.00    -0.049 N 
ATOM     81  H40 non d ame      -3.863   6.487  67.278  0.00  0.00     0.075 H 
ATOM     82  H41 non d ame      -3.464   8.321  67.069  0.00  0.00     0.075 H 
ATOM     83  C28 non d ame      -6.487   8.367  66.669  0.00  0.00     0.193 C 
ATOM     84  H42 non d ame      -5.765   6.998  68.176  0.00  0.00     0.280 HD
ATOM     85  H43 non d ame      -5.177   8.634  68.365  0.00  0.00     0.280 HD
ATOM     86  H44 non d ame      -6.697   9.430  66.553  0.00  0.00     0.129 H 
ATOM     87  H37 non d ame      -6.048   9.104  65.097  0.00  0.00     0.046 H 
BRANCH  83  88
ATOM     88  O6  non d ame      -7.756   7.749  66.890  0.00  0.00    -0.369 OA
ATOM     89  H45 non d ame      -8.083   7.387  66.064  0.00  0.00     0.212 HD
ENDBRANCH  83  88
ENDBRANCH  72  75
ENDBRANCH  47  72
ENDBRANCH  45  47
ENDBRANCH   1  43
BRANCH   1  90
ATOM     90  C16 non d ame     -10.182  12.163  63.415  0.00  0.00    -0.035 C 
ATOM     91  H21 non d ame      -9.469  12.884  63.815  0.00  0.00     0.037 H 
ATOM     92  H22 non d ame     -10.084  11.811  62.389  0.00  0.00     0.037 H 
BRANCH  90  93
ATOM     93  C17 non d ame     -11.590  12.831  63.521  0.00  0.00    -0.059 C 
ATOM     94  H23 non d ame     -11.754  13.403  62.608  0.00  0.00     0.038 H 
BRANCH  93  95
ATOM     95  C18 non d ame     -12.736  11.777  63.637  0.00  0.00    -0.073 C 
ATOM     96  H24 non d ame     -13.591  12.103  63.043  0.00  0.00     0.028 H 
ATOM     97  H25 non d ame     -12.384  10.815  63.266  0.00  0.00     0.028 H 
ATOM     98  H26 non d ame     -13.035  11.677  64.680  0.00  0.00     0.028 H 
ENDBRANCH  93  95
BRANCH  93  99
ATOM     99  C19 non d ame     -11.638  13.820  64.689  0.00  0.00    -0.073 C 
ATOM    100  H27 non d ame     -11.123  14.738  64.409  0.00  0.00     0.028 H 
ATOM    101  H28 non d ame     -12.677  14.046  64.932  0.00  0.00     0.028 H 
ATOM    102  H29 non d ame     -11.150  13.380  65.558  0.00  0.00     0.028 H 
ENDBRANCH  93  99
ENDBRANCH  90  93
ENDBRANCH   1  90
TORSDOF 26
ENDMDL
MODEL 13
REMARK VINA RESULT:      -6.8      2.975      5.901
REMARK  26 active torsions:
REMARK  status: ('A' for Active; 'I' for Inactive)
REMARK    1  A    between atoms: C2_2  and  C3_3 
REMARK    2  A    between atoms: C4_6  and  C5_7 
REMARK       I    between atoms: C5_7  and  N2_9 
REMARK    3  A    between atoms: N2_9  and  C6_10 
REMARK    4  A    between atoms: C6_10  and  C7_11 
REMARK    5  A    between atoms: C6_10  and  C8_13 
REMARK       I    between atoms: C7_11  and  N3_14 
REMARK    6  A    between atoms: N3_14  and  C9_15 
REMARK    7  A    between atoms: C9_15  and  C10_16 
REMARK    8  A    between atoms: C9_15  and  C11_18 
REMARK       I    between atoms: C10_16  and  N4_21 
REMARK    9  A    between atoms: C11_18  and  C12_19 
REMARK   10  A    between atoms: C11_18  and  C13_20 
REMARK   11  A    between atoms: N4_21  and  C14_22 
REMARK   12  A    between atoms: C14_22  and  C15_23 
REMARK   13  A    between atoms: C14_22  and  C16_25 
REMARK       I    between atoms: C15_23  and  N6_40 
REMARK   14  A    between atoms: C16_25  and  C17_26 
REMARK   15  A    between atoms: C17_26  and  C18_27 
REMARK   16  A    between atoms: C17_26  and  C19_28 
REMARK   17  A    between atoms: C20_29  and  C21_30 
REMARK   18  A    between atoms: C20_29  and  C24_33 
REMARK   19  A    between atoms: C20_29  and  N6_40 
REMARK   20  A    between atoms: C21_30  and  C22_31 
REMARK   21  A    between atoms: C22_31  and  C23_32 
REMARK   22  A    between atoms: C23_32  and  O8_43 
REMARK   23  A    between atoms: C24_33  and  C25_34 
REMARK   24  A    between atoms: C28_38  and  O6_39 
REMARK   25  A    between atoms: C29_42  and  O8_43 
REMARK   26  A    between atoms: C29_42  and  C35_49 
ROOT
ATOM      1  C14 non d ame     -10.866   9.249  69.355  0.00  0.00     0.089 C 
ATOM      2  H20 non d ame     -11.562   8.459  69.073  0.00  0.00     0.087 H 
ENDROOT
BRANCH   1   3
ATOM      3  N4  non d ame      -9.519   8.746  69.133  0.00  0.00    -0.346 N 
ATOM      4  C10 non d ame      -9.236   7.266  69.208  0.00  0.00     0.241 C 
ATOM      5  O4  non d ame     -10.110   6.500  69.451  0.00  0.00    -0.271 OA
ATOM      6  H19 non d ame      -8.789   9.415  68.930  0.00  0.00     0.163 HD
BRANCH   4   7
ATOM      7  C9  non d ame      -7.837   6.762  68.970  0.00  0.00     0.092 C 
ATOM      8  H11 non d ame      -7.866   5.684  68.813  0.00  0.00     0.088 H 
BRANCH   7   9
ATOM      9  N3  non d ame      -7.303   7.363  67.744  0.00  0.00    -0.346 N 
ATOM     10  C7  non d ame      -7.036   6.538  66.592  0.00  0.00     0.240 C 
ATOM     11  O3  non d ame      -7.245   5.386  66.635  0.00  0.00    -0.271 OA
ATOM     12  H10 non d ame      -7.116   8.354  67.693  0.00  0.00     0.163 HD
BRANCH  10  13
ATOM     13  C6  non d ame      -6.464   7.183  65.292  0.00  0.00     0.086 C 
ATOM     14  H6  non d ame      -6.555   6.532  64.423  0.00  0.00     0.086 H 
BRANCH  13  15
ATOM     15  N2  non d ame      -7.222   8.386  64.991  0.00  0.00    -0.343 N 
ATOM     16  C5  non d ame      -8.126   8.399  63.838  0.00  0.00     0.273 C 
ATOM     17  O2  non d ame      -8.234   7.438  63.159  0.00  0.00    -0.266 OA
ATOM     18  H5  non d ame      -7.122   9.204  65.575  0.00  0.00     0.163 HD
BRANCH  16  19
ATOM     19  C4  non d ame      -8.935   9.664  63.509  0.00  0.00     0.154 A 
ATOM     20  C1  non d ame      -9.911  10.305  64.336  0.00  0.00    -0.017 A 
ATOM     21  C2  non d ame     -10.356  11.414  63.582  0.00  0.00     0.077 A 
ATOM     22  H1  non d ame     -10.246  10.012  65.332  0.00  0.00     0.091 H 
ATOM     23  O1  non d ame      -9.704  11.402  62.455  0.00  0.00    -0.218 OA
ATOM     24  N1  non d ame      -8.869  10.389  62.390  0.00  0.00    -0.123 NA
BRANCH  21  25
ATOM     25  C3  non d ame     -11.402  12.434  64.009  0.00  0.00    -0.029 C 
ATOM     26  H2  non d ame     -12.339  11.923  64.232  0.00  0.00     0.036 H 
ATOM     27  H3  non d ame     -11.054  12.959  64.898  0.00  0.00     0.036 H 
ATOM     28  H4  non d ame     -11.561  13.151  63.203  0.00  0.00     0.036 H 
ENDBRANCH  21  25
ENDBRANCH  16  19
ENDBRANCH  13  15
BRANCH  13  29
ATOM     29  C8  non d ame      -5.011   7.526  65.495  0.00  0.00    -0.049 C 
ATOM     30  H7  non d ame      -4.723   7.300  66.522  0.00  0.00     0.030 H 
ATOM     31  H8  non d ame      -4.399   6.938  64.809  0.00  0.00     0.030 H 
ATOM     32  H9  non d ame      -4.857   8.587  65.300  0.00  0.00     0.030 H 
ENDBRANCH  13  29
ENDBRANCH  10  13
ENDBRANCH   7   9
BRANCH   7  33
ATOM     33  C11 non d ame      -6.932   7.154  70.174  0.00  0.00    -0.033 C 
ATOM     34  H12 non d ame      -7.220   8.158  70.488  0.00  0.00     0.042 H 
BRANCH  33  35
ATOM     35  C12 non d ame      -7.157   6.200  71.388  0.00  0.00    -0.071 C 
ATOM     36  H13 non d ame      -7.899   6.634  72.058  0.00  0.00     0.028 H 
ATOM     37  H14 non d ame      -7.512   5.234  71.030  0.00  0.00     0.028 H 
ATOM     38  H15 non d ame      -6.217   6.066  71.923  0.00  0.00     0.028 H 
ENDBRANCH  33  35
BRANCH  33  39
ATOM     39  C13 non d ame      -5.428   7.192  69.754  0.00  0.00    -0.071 C 
ATOM     40  H16 non d ame      -5.287   7.940  68.975  0.00  0.00     0.028 H 
ATOM     41  H17 non d ame      -4.815   7.447  70.619  0.00  0.00     0.028 H 
ATOM     42  H18 non d ame      -5.133   6.213  69.376  0.00  0.00     0.028 H 
ENDBRANCH  33  39
ENDBRANCH   7  33
ENDBRANCH   4   7
ENDBRANCH   1   3
BRANCH   1  43
ATOM     43  C15 non d ame     -11.061  10.536  68.503  0.00  0.00     0.240 C 
ATOM     44  O5  non d ame     -11.609  10.470  67.450  0.00  0.00    -0.271 OA
ATOM     45  N6  non d ame     -10.572  11.852  69.003  0.00  0.00    -0.355 N 
ATOM     46  H46 non d ame     -10.108  11.921  69.897  0.00  0.00     0.162 HD
BRANCH  45  47
ATOM     47  C20 non d ame     -10.766  13.066  68.181  0.00  0.00     0.013 C 
ATOM     48  H30 non d ame     -10.916  12.752  67.149  0.00  0.00     0.072 H 
BRANCH  47  49
ATOM     49  C21 non d ame      -9.535  13.939  68.280  0.00  0.00    -0.038 C 
ATOM     50  H31 non d ame      -9.841  14.818  68.849  0.00  0.00     0.036 H 
ATOM     51  H32 non d ame      -8.745  13.291  68.661  0.00  0.00     0.036 H 
BRANCH  49  52
ATOM     52  C22 non d ame      -9.052  14.453  66.907  0.00  0.00     0.018 C 
ATOM     53  H33 non d ame      -8.038  14.820  67.068  0.00  0.00     0.048 H 
ATOM     54  H34 non d ame      -9.232  13.637  66.206  0.00  0.00     0.048 H 
BRANCH  52  55
ATOM     55  C23 non d ame      -9.865  15.665  66.371  0.00  0.00     0.259 C 
ATOM     56  O7  non d ame     -10.089  15.774  65.210  0.00  0.00    -0.265 OA
BRANCH  55  57
ATOM     57  O8  non d ame     -10.328  16.652  67.284  0.00  0.00    -0.317 OA
BRANCH  57  58
ATOM     58  C29 non d ame     -10.397  17.970  66.733  0.00  0.00     0.052 C 
ATOM     59  H47 non d ame     -10.384  17.839  65.651  0.00  0.00     0.082 H 
ATOM     60  H48 non d ame     -11.252  18.446  67.213  0.00  0.00     0.082 H 
BRANCH  58  61
ATOM     61  C35 non d ame      -9.111  18.732  67.151  0.00  0.00    -0.034 A 
ATOM     62  C30 non d ame      -8.436  19.520  66.225  0.00  0.00    -0.075 A 
ATOM     63  C31 non d ame      -7.282  20.205  66.601  0.00  0.00    -0.082 A 
ATOM     64  H49 non d ame      -8.812  19.602  65.206  0.00  0.00     0.084 H 
ATOM     65  C32 non d ame      -6.801  20.097  67.909  0.00  0.00    -0.083 A 
ATOM     66  H50 non d ame      -6.756  20.823  65.873  0.00  0.00     0.083 H 
ATOM     67  C33 non d ame      -7.476  19.307  68.829  0.00  0.00    -0.082 A 
ATOM     68  H51 non d ame      -5.899  20.629  68.211  0.00  0.00     0.083 H 
ATOM     69  C34 non d ame      -8.632  18.623  68.458  0.00  0.00    -0.075 A 
ATOM     70  H52 non d ame      -7.097  19.223  69.848  0.00  0.00     0.083 H 
ATOM     71  H53 non d ame      -9.158  18.005  69.187  0.00  0.00     0.084 H 
ENDBRANCH  58  61
ENDBRANCH  57  58
ENDBRANCH  55  57
ENDBRANCH  52  55
ENDBRANCH  49  52
ENDBRANCH  47  49
BRANCH  47  72
ATOM     72  C24 non d ame     -11.982  13.840  68.684  0.00  0.00    -0.039 C 
ATOM     73  H35 non d ame     -11.994  14.767  68.111  0.00  0.00     0.036 H 
ATOM     74  H36 non d ame     -12.819  13.145  68.612  0.00  0.00     0.036 H 
BRANCH  72  75
ATOM     75  C25 non d ame     -11.833  14.241  70.228  0.00  0.00    -0.001 C 
ATOM     76  C26 non d ame     -12.844  13.326  71.145  0.00  0.00    -0.035 C 
ATOM     77  C27 non d ame     -13.575  14.144  71.939  0.00  0.00     0.085 C 
ATOM     78  H38 non d ame     -13.593  12.849  70.513  0.00  0.00     0.036 H 
ATOM     79  H39 non d ame     -12.270  12.729  71.854  0.00  0.00     0.036 H 
ATOM     80  N5  non d ame     -13.389  15.548  71.416  0.00  0.00    -0.049 N 
ATOM     81  H40 non d ame     -14.613  13.845  71.791  0.00  0.00     0.075 H 
ATOM     82  H41 non d ame     -13.122  14.071  72.928  0.00  0.00     0.075 H 
ATOM     83  C28 non d ame     -12.122  15.486  70.417  0.00  0.00     0.193 C 
ATOM     84  H42 non d ame     -14.214  15.764  70.875  0.00  0.00     0.280 HD
ATOM     85  H43 non d ame     -13.144  16.120  72.211  0.00  0.00     0.280 HD
ATOM     86  H44 non d ame     -11.151  15.870  70.731  0.00  0.00     0.129 H 
ATOM     87  H37 non d ame     -10.790  14.294  70.542  0.00  0.00     0.046 H 
BRANCH  83  88
ATOM     88  O6  non d ame     -12.424  16.162  69.196  0.00  0.00    -0.369 OA
ATOM     89  H45 non d ame     -13.128  16.796  69.347  0.00  0.00     0.212 HD
ENDBRANCH  83  88
ENDBRANCH  72  75
ENDBRANCH  47  72
ENDBRANCH  45  47
ENDBRANCH   1  43
BRANCH   1  90
ATOM     90  C16 non d ame     -11.035   9.582  70.829  0.00  0.00    -0.035 C 
ATOM     91  H21 non d ame     -10.047   9.449  71.270  0.00  0.00     0.037 H 
ATOM     92  H22 non d ame     -11.513  10.560  70.851  0.00  0.00     0.037 H 
BRANCH  90  93
ATOM     93  C17 non d ame     -11.991   8.606  71.586  0.00  0.00    -0.059 C 
ATOM     94  H23 non d ame     -12.399   7.909  70.854  0.00  0.00     0.038 H 
BRANCH  93  95
ATOM     95  C18 non d ame     -11.242   7.771  72.673  0.00  0.00    -0.073 C 
ATOM     96  H24 non d ame     -10.221   8.140  72.775  0.00  0.00     0.028 H 
ATOM     97  H25 non d ame     -11.760   7.869  73.627  0.00  0.00     0.028 H 
ATOM     98  H26 non d ame     -11.222   6.723  72.377  0.00  0.00     0.028 H 
ENDBRANCH  93  95
BRANCH  93  99
ATOM     99  C19 non d ame     -13.172   9.363  72.198  0.00  0.00    -0.073 C 
ATOM    100  H27 non d ame     -14.093   9.066  71.697  0.00  0.00     0.028 H 
ATOM    101  H28 non d ame     -13.244   9.128  73.260  0.00  0.00     0.028 H 
ATOM    102  H29 non d ame     -13.021  10.435  72.073  0.00  0.00     0.028 H 
ENDBRANCH  93  99
ENDBRANCH  90  93
ENDBRANCH   1  90
TORSDOF 26
ENDMDL
MODEL 14
REMARK VINA RESULT:      -6.8      3.377      9.288
REMARK  26 active torsions:
REMARK  status: ('A' for Active; 'I' for Inactive)
REMARK    1  A    between atoms: C2_2  and  C3_3 
REMARK    2  A    between atoms: C4_6  and  C5_7 
REMARK       I    between atoms: C5_7  and  N2_9 
REMARK    3  A    between atoms: N2_9  and  C6_10 
REMARK    4  A    between atoms: C6_10  and  C7_11 
REMARK    5  A    between atoms: C6_10  and  C8_13 
REMARK       I    between atoms: C7_11  and  N3_14 
REMARK    6  A    between atoms: N3_14  and  C9_15 
REMARK    7  A    between atoms: C9_15  and  C10_16 
REMARK    8  A    between atoms: C9_15  and  C11_18 
REMARK       I    between atoms: C10_16  and  N4_21 
REMARK    9  A    between atoms: C11_18  and  C12_19 
REMARK   10  A    between atoms: C11_18  and  C13_20 
REMARK   11  A    between atoms: N4_21  and  C14_22 
REMARK   12  A    between atoms: C14_22  and  C15_23 
REMARK   13  A    between atoms: C14_22  and  C16_25 
REMARK       I    between atoms: C15_23  and  N6_40 
REMARK   14  A    between atoms: C16_25  and  C17_26 
REMARK   15  A    between atoms: C17_26  and  C18_27 
REMARK   16  A    between atoms: C17_26  and  C19_28 
REMARK   17  A    between atoms: C20_29  and  C21_30 
REMARK   18  A    between atoms: C20_29  and  C24_33 
REMARK   19  A    between atoms: C20_29  and  N6_40 
REMARK   20  A    between atoms: C21_30  and  C22_31 
REMARK   21  A    between atoms: C22_31  and  C23_32 
REMARK   22  A    between atoms: C23_32  and  O8_43 
REMARK   23  A    between atoms: C24_33  and  C25_34 
REMARK   24  A    between atoms: C28_38  and  O6_39 
REMARK   25  A    between atoms: C29_42  and  O8_43 
REMARK   26  A    between atoms: C29_42  and  C35_49 
ROOT
ATOM      1  C14 non d ame     -11.235  13.750  69.324  0.00  0.00     0.089 C 
ATOM      2  H20 non d ame     -10.372  14.018  69.933  0.00  0.00     0.087 H 
ENDROOT
BRANCH   1   3
ATOM      3  N4  non d ame     -11.103  14.438  68.048  0.00  0.00    -0.346 N 
ATOM      4  C10 non d ame      -9.859  14.265  67.215  0.00  0.00     0.241 C 
ATOM      5  O4  non d ame      -8.975  13.568  67.594  0.00  0.00    -0.271 OA
ATOM      6  H19 non d ame     -11.866  15.028  67.746  0.00  0.00     0.163 HD
BRANCH   4   7
ATOM      7  C9  non d ame      -9.741  14.979  65.895  0.00  0.00     0.092 C 
ATOM      8  H11 non d ame      -8.741  15.403  65.804  0.00  0.00     0.088 H 
BRANCH   7   9
ATOM      9  N3  non d ame      -9.904  14.017  64.801  0.00  0.00    -0.346 N 
ATOM     10  C7  non d ame     -11.003  13.084  64.818  0.00  0.00     0.240 C 
ATOM     11  O3  non d ame     -11.767  13.094  65.706  0.00  0.00    -0.271 OA
ATOM     12  H10 non d ame      -9.252  13.995  64.030  0.00  0.00     0.163 HD
BRANCH  10  13
ATOM     13  C6  non d ame     -11.169  12.060  63.653  0.00  0.00     0.086 C 
ATOM     14  H6  non d ame     -10.727  12.408  62.719  0.00  0.00     0.086 H 
BRANCH  13  15
ATOM     15  N2  non d ame     -10.480  10.830  64.006  0.00  0.00    -0.343 N 
ATOM     16  C5  non d ame      -9.338  10.387  63.203  0.00  0.00     0.273 C 
ATOM     17  O2  non d ame      -8.983  11.026  62.274  0.00  0.00    -0.266 OA
ATOM     18  H5  non d ame     -10.791  10.289  64.800  0.00  0.00     0.163 HD
BRANCH  16  19
ATOM     19  C4  non d ame      -8.599   9.089  63.566  0.00  0.00     0.154 A 
ATOM     20  C1  non d ame      -8.192   8.048  62.673  0.00  0.00    -0.017 A 
ATOM     21  C2  non d ame      -7.559   7.090  63.496  0.00  0.00     0.077 A 
ATOM     22  H1  non d ame      -8.334   7.994  61.593  0.00  0.00     0.091 H 
ATOM     23  O1  non d ame      -7.601   7.539  64.717  0.00  0.00    -0.218 OA
ATOM     24  N1  non d ame      -8.204   8.704  64.782  0.00  0.00    -0.123 NA
BRANCH  21  25
ATOM     25  C3  non d ame      -6.940   5.776  63.039  0.00  0.00    -0.029 C 
ATOM     26  H2  non d ame      -7.731   5.073  62.774  0.00  0.00     0.036 H 
ATOM     27  H3  non d ame      -6.308   5.956  62.169  0.00  0.00     0.036 H 
ATOM     28  H4  non d ame      -6.337   5.357  63.844  0.00  0.00     0.036 H 
ENDBRANCH  21  25
ENDBRANCH  16  19
ENDBRANCH  13  15
BRANCH  13  29
ATOM     29  C8  non d ame     -12.633  11.785  63.426  0.00  0.00    -0.049 C 
ATOM     30  H7  non d ame     -12.962  12.289  62.517  0.00  0.00     0.030 H 
ATOM     31  H8  non d ame     -12.788  10.710  63.321  0.00  0.00     0.030 H 
ATOM     32  H9  non d ame     -13.208  12.154  64.274  0.00  0.00     0.030 H 
ENDBRANCH  13  29
ENDBRANCH  10  13
ENDBRANCH   7   9
BRANCH   7  33
ATOM     33  C11 non d ame     -10.849  16.068  65.793  0.00  0.00    -0.033 C 
ATOM     34  H12 non d ame     -11.682  15.748  66.419  0.00  0.00     0.042 H 
BRANCH  33  35
ATOM     35  C12 non d ame     -10.349  17.440  66.344  0.00  0.00    -0.071 C 
ATOM     36  H13 non d ame      -9.722  17.925  65.596  0.00  0.00     0.028 H 
ATOM     37  H14 non d ame     -11.206  18.076  66.566  0.00  0.00     0.028 H 
ATOM     38  H15 non d ame      -9.773  17.278  67.254  0.00  0.00     0.028 H 
ENDBRANCH  33  35
BRANCH  33  39
ATOM     39  C13 non d ame     -11.368  16.202  64.326  0.00  0.00    -0.071 C 
ATOM     40  H16 non d ame     -10.848  15.486  63.690  0.00  0.00     0.028 H 
ATOM     41  H17 non d ame     -12.440  16.002  64.299  0.00  0.00     0.028 H 
ATOM     42  H18 non d ame     -11.179  17.213  63.965  0.00  0.00     0.028 H 
ENDBRANCH  33  39
ENDBRANCH   7  33
ENDBRANCH   4   7
ENDBRANCH   1   3
BRANCH   1  43
ATOM     43  C15 non d ame     -11.314  12.220  69.056  0.00  0.00     0.240 C 
ATOM     44  O5  non d ame     -12.323  11.743  68.644  0.00  0.00    -0.271 OA
ATOM     45  N6  non d ame     -10.131  11.349  69.304  0.00  0.00    -0.355 N 
ATOM     46  H46 non d ame      -9.267  11.743  69.651  0.00  0.00     0.162 HD
BRANCH  45  47
ATOM     47  C20 non d ame     -10.221   9.896  69.043  0.00  0.00     0.013 C 
ATOM     48  H30 non d ame     -11.250   9.670  68.765  0.00  0.00     0.072 H 
BRANCH  47  49
ATOM     49  C21 non d ame      -9.848   9.138  70.297  0.00  0.00    -0.038 C 
ATOM     50  H31 non d ame      -9.730   8.099  69.989  0.00  0.00     0.036 H 
ATOM     51  H32 non d ame      -9.003   9.679  70.726  0.00  0.00     0.036 H 
BRANCH  49  52
ATOM     52  C22 non d ame     -10.964   9.156  71.363  0.00  0.00     0.018 C 
ATOM     53  H33 non d ame     -10.580   9.763  72.184  0.00  0.00     0.048 H 
ATOM     54  H34 non d ame     -11.869   9.460  70.838  0.00  0.00     0.048 H 
BRANCH  52  55
ATOM     55  C23 non d ame     -11.269   7.759  71.972  0.00  0.00     0.259 C 
ATOM     56  O7  non d ame     -11.143   7.569  73.138  0.00  0.00    -0.265 OA
BRANCH  55  57
ATOM     57  O8  non d ame     -11.688   6.702  71.117  0.00  0.00    -0.317 OA
BRANCH  57  58
ATOM     58  C29 non d ame     -10.718   5.663  70.955  0.00  0.00     0.052 C 
ATOM     59  H47 non d ame      -9.797   6.048  71.392  0.00  0.00     0.082 H 
ATOM     60  H48 non d ame     -11.180   4.763  71.362  0.00  0.00     0.082 H 
BRANCH  58  61
ATOM     61  C35 non d ame     -10.491   5.453  69.434  0.00  0.00    -0.034 A 
ATOM     62  C30 non d ame     -11.143   6.268  68.514  0.00  0.00    -0.075 A 
ATOM     63  C31 non d ame     -10.939   6.079  67.148  0.00  0.00    -0.082 A 
ATOM     64  H49 non d ame     -11.812   7.053  68.863  0.00  0.00     0.084 H 
ATOM     65  C32 non d ame     -10.081   5.069  66.703  0.00  0.00    -0.083 A 
ATOM     66  H50 non d ame     -11.449   6.720  66.430  0.00  0.00     0.083 H 
ATOM     67  C33 non d ame      -9.436   4.256  67.625  0.00  0.00    -0.082 A 
ATOM     68  H51 non d ame      -9.916   4.915  65.637  0.00  0.00     0.083 H 
ATOM     69  C34 non d ame      -9.635   4.443  68.992  0.00  0.00    -0.075 A 
ATOM     70  H52 non d ame      -8.769   3.468  67.275  0.00  0.00     0.083 H 
ATOM     71  H53 non d ame      -9.123   3.801  69.710  0.00  0.00     0.084 H 
ENDBRANCH  58  61
ENDBRANCH  57  58
ENDBRANCH  55  57
ENDBRANCH  52  55
ENDBRANCH  49  52
ENDBRANCH  47  49
BRANCH  47  72
ATOM     72  C24 non d ame      -9.269   9.515  67.913  0.00  0.00    -0.039 C 
ATOM     73  H35 non d ame      -9.449   8.456  67.725  0.00  0.00     0.036 H 
ATOM     74  H36 non d ame      -9.446  10.246  67.124  0.00  0.00     0.036 H 
BRANCH  72  75
ATOM     75  C25 non d ame      -7.736   9.661  68.356  0.00  0.00    -0.001 C 
ATOM     76  C26 non d ame      -7.026  10.889  67.524  0.00  0.00    -0.035 C 
ATOM     77  C27 non d ame      -5.880  10.433  66.965  0.00  0.00     0.085 C 
ATOM     78  H38 non d ame      -7.638  11.159  66.663  0.00  0.00     0.036 H 
ATOM     79  H39 non d ame      -6.685  11.660  68.214  0.00  0.00     0.036 H 
ATOM     80  N5  non d ame      -5.907   8.927  67.067  0.00  0.00    -0.049 N 
ATOM     81  H40 non d ame      -5.932  10.719  65.915  0.00  0.00     0.075 H 
ATOM     82  H41 non d ame      -5.077  10.816  67.596  0.00  0.00     0.075 H 
ATOM     83  C28 non d ame      -7.077   8.574  68.123  0.00  0.00     0.193 C 
ATOM     84  H42 non d ame      -6.180   8.584  66.158  0.00  0.00     0.280 HD
ATOM     85  H43 non d ame      -5.021   8.650  67.465  0.00  0.00     0.280 HD
ATOM     86  H44 non d ame      -6.831   8.269  69.140  0.00  0.00     0.129 H 
ATOM     87  H37 non d ame      -7.617   9.662  69.439  0.00  0.00     0.046 H 
BRANCH  83  88
ATOM     88  O6  non d ame      -7.911   7.538  67.604  0.00  0.00    -0.369 OA
ATOM     89  H45 non d ame      -8.073   7.694  66.671  0.00  0.00     0.212 HD
ENDBRANCH  83  88
ENDBRANCH  72  75
ENDBRANCH  47  72
ENDBRANCH  45  47
ENDBRANCH   1  43
BRANCH   1  90
ATOM     90  C16 non d ame     -12.511  14.215  70.010  0.00  0.00    -0.035 C 
ATOM     91  H21 non d ame     -12.719  15.201  69.593  0.00  0.00     0.037 H 
ATOM     92  H22 non d ame     -13.225  13.404  69.872  0.00  0.00     0.037 H 
BRANCH  90  93
ATOM     93  C17 non d ame     -12.358  14.413  71.551  0.00  0.00    -0.059 C 
ATOM     94  H23 non d ame     -11.545  13.769  71.887  0.00  0.00     0.038 H 
BRANCH  93  95
ATOM     95  C18 non d ame     -11.988  15.883  71.924  0.00  0.00    -0.073 C 
ATOM     96  H24 non d ame     -11.114  15.884  72.577  0.00  0.00     0.028 H 
ATOM     97  H25 non d ame     -11.762  16.443  71.016  0.00  0.00     0.028 H 
ATOM     98  H26 non d ame     -12.827  16.350  72.439  0.00  0.00     0.028 H 
ENDBRANCH  93  95
BRANCH  93  99
ATOM     99  C19 non d ame     -13.623  13.965  72.287  0.00  0.00    -0.073 C 
ATOM    100  H27 non d ame     -13.992  14.784  72.906  0.00  0.00     0.028 H 
ATOM    101  H28 non d ame     -14.387  13.686  71.561  0.00  0.00     0.028 H 
ATOM    102  H29 non d ame     -13.392  13.108  72.919  0.00  0.00     0.028 H 
ENDBRANCH  93  99
ENDBRANCH  90  93
ENDBRANCH   1  90
TORSDOF 26
ENDMDL
MODEL 15
REMARK VINA RESULT:      -6.7      4.034     10.144
REMARK  26 active torsions:
REMARK  status: ('A' for Active; 'I' for Inactive)
REMARK    1  A    between atoms: C2_2  and  C3_3 
REMARK    2  A    between atoms: C4_6  and  C5_7 
REMARK       I    between atoms: C5_7  and  N2_9 
REMARK    3  A    between atoms: N2_9  and  C6_10 
REMARK    4  A    between atoms: C6_10  and  C7_11 
REMARK    5  A    between atoms: C6_10  and  C8_13 
REMARK       I    between atoms: C7_11  and  N3_14 
REMARK    6  A    between atoms: N3_14  and  C9_15 
REMARK    7  A    between atoms: C9_15  and  C10_16 
REMARK    8  A    between atoms: C9_15  and  C11_18 
REMARK       I    between atoms: C10_16  and  N4_21 
REMARK    9  A    between atoms: C11_18  and  C12_19 
REMARK   10  A    between atoms: C11_18  and  C13_20 
REMARK   11  A    between atoms: N4_21  and  C14_22 
REMARK   12  A    between atoms: C14_22  and  C15_23 
REMARK   13  A    between atoms: C14_22  and  C16_25 
REMARK       I    between atoms: C15_23  and  N6_40 
REMARK   14  A    between atoms: C16_25  and  C17_26 
REMARK   15  A    between atoms: C17_26  and  C18_27 
REMARK   16  A    between atoms: C17_26  and  C19_28 
REMARK   17  A    between atoms: C20_29  and  C21_30 
REMARK   18  A    between atoms: C20_29  and  C24_33 
REMARK   19  A    between atoms: C20_29  and  N6_40 
REMARK   20  A    between atoms: C21_30  and  C22_31 
REMARK   21  A    between atoms: C22_31  and  C23_32 
REMARK   22  A    between atoms: C23_32  and  O8_43 
REMARK   23  A    between atoms: C24_33  and  C25_34 
REMARK   24  A    between atoms: C28_38  and  O6_39 
REMARK   25  A    between atoms: C29_42  and  O8_43 
REMARK   26  A    between atoms: C29_42  and  C35_49 
ROOT
ATOM      1  C14 non d ame      -7.212   9.768  64.729  0.00  0.00     0.089 C 
ATOM      2  H20 non d ame      -7.646   8.817  64.421  0.00  0.00     0.087 H 
ENDROOT
BRANCH   1   3
ATOM      3  N4  non d ame      -8.300  10.725  64.862  0.00  0.00    -0.346 N 
ATOM      4  C10 non d ame      -9.658  10.273  65.336  0.00  0.00     0.241 C 
ATOM      5  O4  non d ame      -9.852   9.133  65.603  0.00  0.00    -0.271 OA
ATOM      6  H19 non d ame      -8.115  11.690  64.627  0.00  0.00     0.163 HD
BRANCH   4   7
ATOM      7  C9  non d ame     -10.771  11.278  65.472  0.00  0.00     0.092 C 
ATOM      8  H11 non d ame     -11.711  10.752  65.642  0.00  0.00     0.088 H 
BRANCH   7   9
ATOM      9  N3  non d ame     -10.529  12.120  66.648  0.00  0.00    -0.346 N 
ATOM     10  C7  non d ame     -11.316  11.937  67.842  0.00  0.00     0.240 C 
ATOM     11  O3  non d ame     -12.150  11.116  67.874  0.00  0.00    -0.271 OA
ATOM     12  H10 non d ame      -9.814  12.833  66.634  0.00  0.00     0.163 HD
BRANCH  10  13
ATOM     13  C6  non d ame     -11.055  12.838  69.088  0.00  0.00     0.086 C 
ATOM     14  H6  non d ame     -10.028  12.776  69.446  0.00  0.00     0.086 H 
BRANCH  13  15
ATOM     15  N2  non d ame     -11.284  14.226  68.721  0.00  0.00    -0.343 N 
ATOM     16  C5  non d ame     -10.166  15.037  68.233  0.00  0.00     0.273 C 
ATOM     17  O2  non d ame      -9.087  14.564  68.142  0.00  0.00    -0.266 OA
ATOM     18  H5  non d ame     -12.209  14.623  68.804  0.00  0.00     0.163 HD
BRANCH  16  19
ATOM     19  C4  non d ame     -10.394  16.505  67.839  0.00  0.00     0.154 A 
ATOM     20  C1  non d ame      -9.847  17.191  66.709  0.00  0.00    -0.017 A 
ATOM     21  C2  non d ame     -10.357  18.506  66.800  0.00  0.00     0.077 A 
ATOM     22  H1  non d ame      -9.182  16.797  65.940  0.00  0.00     0.091 H 
ATOM     23  O1  non d ame     -11.109  18.557  67.861  0.00  0.00    -0.218 OA
ATOM     24  N1  non d ame     -11.145  17.401  68.484  0.00  0.00    -0.123 NA
BRANCH  21  25
ATOM     25  C3  non d ame     -10.080  19.649  65.834  0.00  0.00    -0.029 C 
ATOM     26  H2  non d ame      -9.147  19.458  65.301  0.00  0.00     0.036 H 
ATOM     27  H3  non d ame     -10.898  19.725  65.117  0.00  0.00     0.036 H 
ATOM     28  H4  non d ame      -9.996  20.584  66.389  0.00  0.00     0.036 H 
ENDBRANCH  21  25
ENDBRANCH  16  19
ENDBRANCH  13  15
BRANCH  13  29
ATOM     29  C8  non d ame     -11.986  12.440  70.204  0.00  0.00    -0.049 C 
ATOM     30  H7  non d ame     -11.910  13.163  71.017  0.00  0.00     0.030 H 
ATOM     31  H8  non d ame     -13.011  12.418  69.832  0.00  0.00     0.030 H 
ATOM     32  H9  non d ame     -11.711  11.452  70.571  0.00  0.00     0.030 H 
ENDBRANCH  13  29
ENDBRANCH  10  13
ENDBRANCH   7   9
BRANCH   7  33
ATOM     33  C11 non d ame     -10.823  12.172  64.199  0.00  0.00    -0.033 C 
ATOM     34  H12 non d ame     -10.057  11.810  63.512  0.00  0.00     0.042 H 
BRANCH  33  35
ATOM     35  C12 non d ame     -12.199  12.048  63.473  0.00  0.00    -0.071 C 
ATOM     36  H13 non d ame     -12.788  11.261  63.944  0.00  0.00     0.028 H 
ATOM     37  H14 non d ame     -12.734  12.994  63.545  0.00  0.00     0.028 H 
ATOM     38  H15 non d ame     -12.035  11.802  62.424  0.00  0.00     0.028 H 
ENDBRANCH  33  35
BRANCH  33  39
ATOM     39  C13 non d ame     -10.498  13.660  64.546  0.00  0.00    -0.071 C 
ATOM     40  H16 non d ame     -10.901  14.310  63.770  0.00  0.00     0.028 H 
ATOM     41  H17 non d ame     -10.948  13.916  65.506  0.00  0.00     0.028 H 
ATOM     42  H18 non d ame      -9.418  13.790  64.605  0.00  0.00     0.028 H 
ENDBRANCH  33  39
ENDBRANCH   7  33
ENDBRANCH   4   7
ENDBRANCH   1   3
BRANCH   1  43
ATOM     43  C15 non d ame      -6.476   9.662  66.096  0.00  0.00     0.240 C 
ATOM     44  O5  non d ame      -5.374  10.096  66.210  0.00  0.00    -0.271 OA
ATOM     45  N6  non d ame      -7.148   9.030  67.267  0.00  0.00    -0.355 N 
ATOM     46  H46 non d ame      -8.085   8.662  67.184  0.00  0.00     0.162 HD
BRANCH  45  47
ATOM     47  C20 non d ame      -6.435   8.939  68.560  0.00  0.00     0.013 C 
ATOM     48  H30 non d ame      -5.366   8.994  68.357  0.00  0.00     0.072 H 
BRANCH  47  49
ATOM     49  C21 non d ame      -6.768   7.621  69.222  0.00  0.00    -0.038 C 
ATOM     50  H31 non d ame      -5.882   6.997  69.099  0.00  0.00     0.036 H 
ATOM     51  H32 non d ame      -7.121   7.875  70.222  0.00  0.00     0.036 H 
BRANCH  49  52
ATOM     52  C22 non d ame      -7.927   6.875  68.526  0.00  0.00     0.018 C 
ATOM     53  H33 non d ame      -8.778   6.954  69.204  0.00  0.00     0.048 H 
ATOM     54  H34 non d ame      -7.989   7.297  67.523  0.00  0.00     0.048 H 
BRANCH  52  55
ATOM     55  C23 non d ame      -7.670   5.354  68.338  0.00  0.00     0.259 C 
ATOM     56  O7  non d ame      -7.411   4.667  69.272  0.00  0.00    -0.265 OA
BRANCH  55  57
ATOM     57  O8  non d ame      -7.732   4.793  67.033  0.00  0.00    -0.317 OA
BRANCH  57  58
ATOM     58  C29 non d ame      -7.882   5.759  65.989  0.00  0.00     0.052 C 
ATOM     59  H47 non d ame      -8.492   6.557  66.410  0.00  0.00     0.082 H 
ATOM     60  H48 non d ame      -6.872   5.972  65.638  0.00  0.00     0.082 H 
BRANCH  58  61
ATOM     61  C35 non d ame      -8.674   5.094  64.831  0.00  0.00    -0.034 A 
ATOM     62  C30 non d ame      -9.776   4.294  65.112  0.00  0.00    -0.075 A 
ATOM     63  C31 non d ame     -10.487   3.696  64.072  0.00  0.00    -0.082 A 
ATOM     64  H49 non d ame     -10.082   4.134  66.145  0.00  0.00     0.084 H 
ATOM     65  C32 non d ame     -10.091   3.901  62.748  0.00  0.00    -0.083 A 
ATOM     66  H50 non d ame     -11.352   3.071  64.295  0.00  0.00     0.083 H 
ATOM     67  C33 non d ame      -8.988   4.698  62.473  0.00  0.00    -0.082 A 
ATOM     68  H51 non d ame     -10.642   3.438  61.929  0.00  0.00     0.083 H 
ATOM     69  C34 non d ame      -8.276   5.299  63.509  0.00  0.00    -0.075 A 
ATOM     70  H52 non d ame      -8.680   4.854  61.438  0.00  0.00     0.083 H 
ATOM     71  H53 non d ame      -7.411   5.925  63.285  0.00  0.00     0.084 H 
ENDBRANCH  58  61
ENDBRANCH  57  58
ENDBRANCH  55  57
ENDBRANCH  52  55
ENDBRANCH  49  52
ENDBRANCH  47  49
BRANCH  47  72
ATOM     72  C24 non d ame      -6.865  10.088  69.468  0.00  0.00    -0.039 C 
ATOM     73  H35 non d ame      -7.844  10.397  69.103  0.00  0.00     0.036 H 
ATOM     74  H36 non d ame      -6.756   9.712  70.485  0.00  0.00     0.036 H 
BRANCH  72  75
ATOM     75  C25 non d ame      -5.889  11.352  69.325  0.00  0.00    -0.001 C 
ATOM     76  C26 non d ame      -5.389  11.844  70.812  0.00  0.00    -0.035 C 
ATOM     77  C27 non d ame      -5.614  13.174  70.930  0.00  0.00     0.085 C 
ATOM     78  H38 non d ame      -6.025  11.409  71.583  0.00  0.00     0.036 H 
ATOM     79  H39 non d ame      -4.305  11.760  70.889  0.00  0.00     0.036 H 
ATOM     80  N5  non d ame      -6.518  13.573  69.789  0.00  0.00    -0.049 N 
ATOM     81  H40 non d ame      -6.153  13.298  71.870  0.00  0.00     0.075 H 
ATOM     82  H41 non d ame      -4.641  13.647  70.793  0.00  0.00     0.075 H 
ATOM     83  C28 non d ame      -6.486  12.340  68.746  0.00  0.00     0.193 C 
ATOM     84  H42 non d ame      -7.449  13.645  70.173  0.00  0.00     0.280 HD
ATOM     85  H43 non d ame      -6.089  14.375  69.350  0.00  0.00     0.280 HD
ATOM     86  H44 non d ame      -5.907  12.409  67.825  0.00  0.00     0.129 H 
ATOM     87  H37 non d ame      -5.119  11.196  68.570  0.00  0.00     0.046 H 
BRANCH  83  88
ATOM     88  O6  non d ame      -7.814  12.005  68.339  0.00  0.00    -0.369 OA
ATOM     89  H45 non d ame      -7.952  11.061  68.446  0.00  0.00     0.212 HD
ENDBRANCH  83  88
ENDBRANCH  72  75
ENDBRANCH  47  72
ENDBRANCH  45  47
ENDBRANCH   1  43
BRANCH   1  90
ATOM     90  C16 non d ame      -6.243  10.260  63.665  0.00  0.00    -0.035 C 
ATOM     91  H21 non d ame      -6.680  11.184  63.283  0.00  0.00     0.037 H 
ATOM     92  H22 non d ame      -5.268  10.278  64.149  0.00  0.00     0.037 H 
BRANCH  90  93
ATOM     93  C17 non d ame      -6.113   9.297  62.443  0.00  0.00    -0.059 C 
ATOM     94  H23 non d ame      -5.462   9.776  61.712  0.00  0.00     0.038 H 
BRANCH  93  95
ATOM     95  C18 non d ame      -5.467   7.930  62.835  0.00  0.00    -0.073 C 
ATOM     96  H24 non d ame      -5.420   7.285  61.956  0.00  0.00     0.028 H 
ATOM     97  H25 non d ame      -4.460   8.100  63.214  0.00  0.00     0.028 H 
ATOM     98  H26 non d ame      -6.070   7.450  63.606  0.00  0.00     0.028 H 
ENDBRANCH  93  95
BRANCH  93  99
ATOM     99  C19 non d ame      -7.472   9.084  61.768  0.00  0.00    -0.073 C 
ATOM    100  H27 non d ame      -7.322   8.891  60.706  0.00  0.00     0.028 H 
ATOM    101  H28 non d ame      -7.975   8.233  62.226  0.00  0.00     0.028 H 
ATOM    102  H29 non d ame      -8.082   9.978  61.892  0.00  0.00     0.028 H 
ENDBRANCH  93  99
ENDBRANCH  90  93
ENDBRANCH   1  90
TORSDOF 26
ENDMDL
MODEL 16
REMARK VINA RESULT:      -6.6      3.123      7.548
REMARK  26 active torsions:
REMARK  status: ('A' for Active; 'I' for Inactive)
REMARK    1  A    between atoms: C2_2  and  C3_3 
REMARK    2  A    between atoms: C4_6  and  C5_7 
REMARK       I    between atoms: C5_7  and  N2_9 
REMARK    3  A    between atoms: N2_9  and  C6_10 
REMARK    4  A    between atoms: C6_10  and  C7_11 
REMARK    5  A    between atoms: C6_10  and  C8_13 
REMARK       I    between atoms: C7_11  and  N3_14 
REMARK    6  A    between atoms: N3_14  and  C9_15 
REMARK    7  A    between atoms: C9_15  and  C10_16 
REMARK    8  A    between atoms: C9_15  and  C11_18 
REMARK       I    between atoms: C10_16  and  N4_21 
REMARK    9  A    between atoms: C11_18  and  C12_19 
REMARK   10  A    between atoms: C11_18  and  C13_20 
REMARK   11  A    between atoms: N4_21  and  C14_22 
REMARK   12  A    between atoms: C14_22  and  C15_23 
REMARK   13  A    between atoms: C14_22  and  C16_25 
REMARK       I    between atoms: C15_23  and  N6_40 
REMARK   14  A    between atoms: C16_25  and  C17_26 
REMARK   15  A    between atoms: C17_26  and  C18_27 
REMARK   16  A    between atoms: C17_26  and  C19_28 
REMARK   17  A    between atoms: C20_29  and  C21_30 
REMARK   18  A    between atoms: C20_29  and  C24_33 
REMARK   19  A    between atoms: C20_29  and  N6_40 
REMARK   20  A    between atoms: C21_30  and  C22_31 
REMARK   21  A    between atoms: C22_31  and  C23_32 
REMARK   22  A    between atoms: C23_32  and  O8_43 
REMARK   23  A    between atoms: C24_33  and  C25_34 
REMARK   24  A    between atoms: C28_38  and  O6_39 
REMARK   25  A    between atoms: C29_42  and  O8_43 
REMARK   26  A    between atoms: C29_42  and  C35_49 
ROOT
ATOM      1  C14 non d ame      -9.923  12.178  65.623  0.00  0.00     0.089 C 
ATOM      2  H20 non d ame      -9.854  12.694  64.665  0.00  0.00     0.087 H 
ENDROOT
BRANCH   1   3
ATOM      3  N4  non d ame      -9.078  10.995  65.546  0.00  0.00    -0.346 N 
ATOM      4  C10 non d ame      -9.131  10.099  64.334  0.00  0.00     0.241 C 
ATOM      5  O4  non d ame      -9.864  10.349  63.434  0.00  0.00    -0.271 OA
ATOM      6  H19 non d ame      -8.464  10.799  66.323  0.00  0.00     0.163 HD
BRANCH   4   7
ATOM      7  C9  non d ame      -8.246   8.883  64.268  0.00  0.00     0.092 C 
ATOM      8  H11 non d ame      -7.284   9.114  64.726  0.00  0.00     0.088 H 
BRANCH   7   9
ATOM      9  N3  non d ame      -8.847   7.798  65.051  0.00  0.00    -0.346 N 
ATOM     10  C7  non d ame      -8.448   7.589  66.420  0.00  0.00     0.240 C 
ATOM     11  O3  non d ame      -7.642   8.284  66.909  0.00  0.00    -0.271 OA
ATOM     12  H10 non d ame      -9.542   7.190  64.642  0.00  0.00     0.163 HD
BRANCH  10  13
ATOM     13  C6  non d ame      -9.088   6.431  67.246  0.00  0.00     0.086 C 
ATOM     14  H6  non d ame      -8.384   5.962  67.933  0.00  0.00     0.086 H 
BRANCH  13  15
ATOM     15  N2  non d ame     -10.164   6.973  68.060  0.00  0.00    -0.343 N 
ATOM     16  C5  non d ame     -10.136   6.781  69.512  0.00  0.00     0.273 C 
ATOM     17  O2  non d ame      -9.246   6.188  70.014  0.00  0.00    -0.266 OA
ATOM     18  H5  non d ame     -10.922   7.476  67.623  0.00  0.00     0.163 HD
BRANCH  16  19
ATOM     19  C4  non d ame     -11.265   7.349  70.385  0.00  0.00     0.154 A 
ATOM     20  C1  non d ame     -11.479   8.720  70.738  0.00  0.00    -0.017 A 
ATOM     21  C2  non d ame     -12.638   8.712  71.546  0.00  0.00     0.077 A 
ATOM     22  H1  non d ame     -10.884   9.588  70.452  0.00  0.00     0.091 H 
ATOM     23  O1  non d ame     -13.036   7.476  71.639  0.00  0.00    -0.218 OA
ATOM     24  N1  non d ame     -12.251   6.663  70.970  0.00  0.00    -0.123 NA
BRANCH  21  25
ATOM     25  C3  non d ame     -13.299   9.924  72.187  0.00  0.00    -0.029 C 
ATOM     26  H2  non d ame     -12.632  10.785  72.112  0.00  0.00     0.036 H 
ATOM     27  H3  non d ame     -14.234  10.143  71.672  0.00  0.00     0.036 H 
ATOM     28  H4  non d ame     -13.504   9.715  73.237  0.00  0.00     0.036 H 
ENDBRANCH  21  25
ENDBRANCH  16  19
ENDBRANCH  13  15
BRANCH  13  29
ATOM     29  C8  non d ame      -9.629   5.381  66.310  0.00  0.00    -0.049 C 
ATOM     30  H7  non d ame     -10.683   5.207  66.527  0.00  0.00     0.030 H 
ATOM     31  H8  non d ame      -9.522   5.724  65.279  0.00  0.00     0.030 H 
ATOM     32  H9  non d ame      -9.073   4.454  66.444  0.00  0.00     0.030 H 
ENDBRANCH  13  29
ENDBRANCH  10  13
ENDBRANCH   7   9
BRANCH   7  33
ATOM     33  C11 non d ame      -8.096   8.429  62.787  0.00  0.00    -0.033 C 
ATOM     34  H12 non d ame      -9.014   8.703  62.265  0.00  0.00     0.042 H 
BRANCH  33  35
ATOM     35  C12 non d ame      -6.917   9.169  62.082  0.00  0.00    -0.071 C 
ATOM     36  H13 non d ame      -6.854  10.191  62.457  0.00  0.00     0.028 H 
ATOM     37  H14 non d ame      -5.984   8.647  62.291  0.00  0.00     0.028 H 
ATOM     38  H15 non d ame      -7.091   9.186  61.006  0.00  0.00     0.028 H 
ENDBRANCH  33  35
BRANCH  33  39
ATOM     39  C13 non d ame      -7.930   6.878  62.691  0.00  0.00    -0.071 C 
ATOM     40  H16 non d ame      -7.053   6.571  63.260  0.00  0.00     0.028 H 
ATOM     41  H17 non d ame      -8.816   6.391  63.098  0.00  0.00     0.028 H 
ATOM     42  H18 non d ame      -7.805   6.591  61.647  0.00  0.00     0.028 H 
ENDBRANCH  33  39
ENDBRANCH   7  33
ENDBRANCH   4   7
ENDBRANCH   1   3
BRANCH   1  43
ATOM     43  C15 non d ame      -9.431  13.062  66.804  0.00  0.00     0.240 C 
ATOM     44  O5  non d ame      -9.878  12.896  67.894  0.00  0.00    -0.271 OA
ATOM     45  N6  non d ame      -8.395  14.111  66.580  0.00  0.00    -0.355 N 
ATOM     46  H46 non d ame      -8.005  14.259  65.660  0.00  0.00     0.162 HD
BRANCH  45  47
ATOM     47  C20 non d ame      -7.937  14.942  67.714  0.00  0.00     0.013 C 
ATOM     48  H30 non d ame      -8.614  14.770  68.551  0.00  0.00     0.072 H 
BRANCH  47  49
ATOM     49  C21 non d ame      -7.972  16.399  67.312  0.00  0.00    -0.038 C 
ATOM     50  H31 non d ame      -7.043  16.831  67.685  0.00  0.00     0.036 H 
ATOM     51  H32 non d ame      -8.186  16.404  66.243  0.00  0.00     0.036 H 
BRANCH  49  52
ATOM     52  C22 non d ame      -9.119  17.180  67.989  0.00  0.00     0.018 C 
ATOM     53  H33 non d ame      -8.979  17.042  69.062  0.00  0.00     0.048 H 
ATOM     54  H34 non d ame      -9.088  18.182  67.560  0.00  0.00     0.048 H 
BRANCH  52  55
ATOM     55  C23 non d ame     -10.533  16.620  67.668  0.00  0.00     0.259 C 
ATOM     56  O7  non d ame     -10.850  16.394  66.546  0.00  0.00    -0.265 OA
BRANCH  55  57
ATOM     57  O8  non d ame     -11.450  16.391  68.730  0.00  0.00    -0.317 OA
BRANCH  57  58
ATOM     58  C29 non d ame     -10.838  16.289  70.019  0.00  0.00     0.052 C 
ATOM     59  H47 non d ame      -9.923  15.718  69.867  0.00  0.00     0.082 H 
ATOM     60  H48 non d ame     -10.785  17.309  70.401  0.00  0.00     0.082 H 
BRANCH  58  61
ATOM     61  C35 non d ame     -11.784  15.469  70.935  0.00  0.00    -0.034 A 
ATOM     62  C30 non d ame     -12.158  15.971  72.177  0.00  0.00    -0.075 A 
ATOM     63  C31 non d ame     -13.008  15.235  73.001  0.00  0.00    -0.082 A 
ATOM     64  H49 non d ame     -11.786  16.941  72.505  0.00  0.00     0.084 H 
ATOM     65  C32 non d ame     -13.482  13.990  72.579  0.00  0.00    -0.083 A 
ATOM     66  H50 non d ame     -13.300  15.631  73.973  0.00  0.00     0.083 H 
ATOM     67  C33 non d ame     -13.103  13.491  71.340  0.00  0.00    -0.082 A 
ATOM     68  H51 non d ame     -14.147  13.407  73.217  0.00  0.00     0.083 H 
ATOM     69  C34 non d ame     -12.256  14.225  70.513  0.00  0.00    -0.075 A 
ATOM     70  H52 non d ame     -13.473  12.518  71.014  0.00  0.00     0.083 H 
ATOM     71  H53 non d ame     -11.964  13.827  69.540  0.00  0.00     0.084 H 
ENDBRANCH  58  61
ENDBRANCH  57  58
ENDBRANCH  55  57
ENDBRANCH  52  55
ENDBRANCH  49  52
ENDBRANCH  47  49
BRANCH  47  72
ATOM     72  C24 non d ame      -6.511  14.553  68.096  0.00  0.00    -0.039 C 
ATOM     73  H35 non d ame      -6.009  14.327  67.155  0.00  0.00     0.036 H 
ATOM     74  H36 non d ame      -6.147  15.365  68.726  0.00  0.00     0.036 H 
BRANCH  72  75
ATOM     75  C25 non d ame      -6.478  13.217  68.981  0.00  0.00    -0.001 C 
ATOM     76  C26 non d ame      -5.524  13.442  70.301  0.00  0.00    -0.035 C 
ATOM     77  C27 non d ame      -4.629  12.429  70.371  0.00  0.00     0.085 C 
ATOM     78  H38 non d ame      -4.900  14.325  70.164  0.00  0.00     0.036 H 
ATOM     79  H39 non d ame      -6.112  13.327  71.212  0.00  0.00     0.036 H 
ATOM     80  N5  non d ame      -4.671  11.710  69.044  0.00  0.00    -0.049 N 
ATOM     81  H40 non d ame      -3.656  12.906  70.486  0.00  0.00     0.075 H 
ATOM     82  H41 non d ame      -5.005  11.762  71.147  0.00  0.00     0.075 H 
ATOM     83  C28 non d ame      -6.013  12.220  68.305  0.00  0.00     0.193 C 
ATOM     84  H42 non d ame      -3.872  12.035  68.518  0.00  0.00     0.280 HD
ATOM     85  H43 non d ame      -4.772  10.728  69.253  0.00  0.00     0.280 HD
ATOM     86  H44 non d ame      -6.896  11.582  68.259  0.00  0.00     0.129 H 
ATOM     87  H37 non d ame      -7.475  12.812  69.153  0.00  0.00     0.046 H 
BRANCH  83  88
ATOM     88  O6  non d ame      -5.726  12.573  66.951  0.00  0.00    -0.369 OA
ATOM     89  H45 non d ame      -5.317  13.441  66.927  0.00  0.00     0.212 HD
ENDBRANCH  83  88
ENDBRANCH  72  75
ENDBRANCH  47  72
ENDBRANCH  45  47
ENDBRANCH   1  43
BRANCH   1  90
ATOM     90  C16 non d ame     -11.360  11.747  65.872  0.00  0.00    -0.035 C 
ATOM     91  H21 non d ame     -11.426  10.728  65.489  0.00  0.00     0.037 H 
ATOM     92  H22 non d ame     -11.542  11.944  66.927  0.00  0.00     0.037 H 
BRANCH  90  93
ATOM     93  C17 non d ame     -12.412  12.584  65.078  0.00  0.00    -0.059 C 
ATOM     94  H23 non d ame     -13.334  12.004  65.037  0.00  0.00     0.038 H 
BRANCH  93  95
ATOM     95  C18 non d ame     -12.734  13.943  65.777  0.00  0.00    -0.073 C 
ATOM     96  H24 non d ame     -12.342  13.930  66.794  0.00  0.00     0.028 H 
ATOM     97  H25 non d ame     -12.270  14.757  65.220  0.00  0.00     0.028 H 
ATOM     98  H26 non d ame     -13.813  14.091  65.805  0.00  0.00     0.028 H 
ENDBRANCH  93  95
BRANCH  93  99
ATOM     99  C19 non d ame     -11.954  12.809  63.634  0.00  0.00    -0.073 C 
ATOM    100  H27 non d ame     -12.640  13.495  63.138  0.00  0.00     0.028 H 
ATOM    101  H28 non d ame     -10.950  13.234  63.633  0.00  0.00     0.028 H 
ATOM    102  H29 non d ame     -11.946  11.858  63.103  0.00  0.00     0.028 H 
ENDBRANCH  93  99
ENDBRANCH  90  93
ENDBRANCH   1  90
TORSDOF 26
ENDMDL
MODEL 17
REMARK VINA RESULT:      -6.6      2.557      8.327
REMARK  26 active torsions:
REMARK  status: ('A' for Active; 'I' for Inactive)
REMARK    1  A    between atoms: C2_2  and  C3_3 
REMARK    2  A    between atoms: C4_6  and  C5_7 
REMARK       I    between atoms: C5_7  and  N2_9 
REMARK    3  A    between atoms: N2_9  and  C6_10 
REMARK    4  A    between atoms: C6_10  and  C7_11 
REMARK    5  A    between atoms: C6_10  and  C8_13 
REMARK       I    between atoms: C7_11  and  N3_14 
REMARK    6  A    between atoms: N3_14  and  C9_15 
REMARK    7  A    between atoms: C9_15  and  C10_16 
REMARK    8  A    between atoms: C9_15  and  C11_18 
REMARK       I    between atoms: C10_16  and  N4_21 
REMARK    9  A    between atoms: C11_18  and  C12_19 
REMARK   10  A    between atoms: C11_18  and  C13_20 
REMARK   11  A    between atoms: N4_21  and  C14_22 
REMARK   12  A    between atoms: C14_22  and  C15_23 
REMARK   13  A    between atoms: C14_22  and  C16_25 
REMARK       I    between atoms: C15_23  and  N6_40 
REMARK   14  A    between atoms: C16_25  and  C17_26 
REMARK   15  A    between atoms: C17_26  and  C18_27 
REMARK   16  A    between atoms: C17_26  and  C19_28 
REMARK   17  A    between atoms: C20_29  and  C21_30 
REMARK   18  A    between atoms: C20_29  and  C24_33 
REMARK   19  A    between atoms: C20_29  and  N6_40 
REMARK   20  A    between atoms: C21_30  and  C22_31 
REMARK   21  A    between atoms: C22_31  and  C23_32 
REMARK   22  A    between atoms: C23_32  and  O8_43 
REMARK   23  A    between atoms: C24_33  and  C25_34 
REMARK   24  A    between atoms: C28_38  and  O6_39 
REMARK   25  A    between atoms: C29_42  and  O8_43 
REMARK   26  A    between atoms: C29_42  and  C35_49 
ROOT
ATOM      1  C14 non d ame      -6.656  12.792  68.317  0.00  0.00     0.089 C 
ATOM      2  H20 non d ame      -5.777  12.768  67.673  0.00  0.00     0.087 H 
ENDROOT
BRANCH   1   3
ATOM      3  N4  non d ame      -6.988  14.189  68.554  0.00  0.00    -0.346 N 
ATOM      4  C10 non d ame      -6.125  15.285  67.980  0.00  0.00     0.241 C 
ATOM      5  O4  non d ame      -5.166  15.017  67.332  0.00  0.00    -0.271 OA
ATOM      6  H19 non d ame      -7.806  14.396  69.110  0.00  0.00     0.163 HD
BRANCH   4   7
ATOM      7  C9  non d ame      -6.485  16.725  68.230  0.00  0.00     0.092 C 
ATOM      8  H11 non d ame      -6.202  17.322  67.363  0.00  0.00     0.088 H 
BRANCH   7   9
ATOM      9  N3  non d ame      -7.938  16.847  68.381  0.00  0.00    -0.346 N 
ATOM     10  C7  non d ame      -8.721  17.482  67.350  0.00  0.00     0.240 C 
ATOM     11  O3  non d ame      -8.197  17.905  66.392  0.00  0.00    -0.271 OA
ATOM     12  H10 non d ame      -8.404  16.489  69.203  0.00  0.00     0.163 HD
BRANCH  10  13
ATOM     13  C6  non d ame     -10.266  17.611  67.519  0.00  0.00     0.086 C 
ATOM     14  H6  non d ame     -10.821  17.001  66.806  0.00  0.00     0.086 H 
BRANCH  13  15
ATOM     15  N2  non d ame     -10.636  17.142  68.844  0.00  0.00    -0.343 N 
ATOM     16  C5  non d ame     -11.548  16.003  68.977  0.00  0.00     0.273 C 
ATOM     17  O2  non d ame     -11.981  15.475  68.012  0.00  0.00    -0.266 OA
ATOM     18  H5  non d ame     -10.264  17.600  69.663  0.00  0.00     0.163 HD
BRANCH  16  19
ATOM     19  C4  non d ame     -11.946  15.495  70.371  0.00  0.00     0.154 A 
ATOM     20  C1  non d ame     -11.780  16.174  71.620  0.00  0.00    -0.017 A 
ATOM     21  C2  non d ame     -12.301  15.289  72.589  0.00  0.00     0.077 A 
ATOM     22  H1  non d ame     -11.346  17.159  71.796  0.00  0.00     0.091 H 
ATOM     23  O1  non d ame     -12.718  14.228  71.960  0.00  0.00    -0.218 OA
ATOM     24  N1  non d ame     -12.520  14.325  70.665  0.00  0.00    -0.123 NA
BRANCH  21  25
ATOM     25  C3  non d ame     -12.366  15.532  74.090  0.00  0.00    -0.029 C 
ATOM     26  H2  non d ame     -13.127  14.886  74.531  0.00  0.00     0.036 H 
ATOM     27  H3  non d ame     -11.397  15.308  74.536  0.00  0.00     0.036 H 
ATOM     28  H4  non d ame     -12.620  16.575  74.280  0.00  0.00     0.036 H 
ENDBRANCH  21  25
ENDBRANCH  16  19
ENDBRANCH  13  15
BRANCH  13  29
ATOM     29  C8  non d ame     -10.675  19.052  67.350  0.00  0.00    -0.049 C 
ATOM     30  H7  non d ame     -10.049  19.685  67.980  0.00  0.00     0.030 H 
ATOM     31  H8  non d ame     -10.553  19.344  66.306  0.00  0.00     0.030 H 
ATOM     32  H9  non d ame     -11.718  19.170  67.641  0.00  0.00     0.030 H 
ENDBRANCH  13  29
ENDBRANCH  10  13
ENDBRANCH   7   9
BRANCH   7  33
ATOM     33  C11 non d ame      -5.788  17.217  69.532  0.00  0.00    -0.033 C 
ATOM     34  H12 non d ame      -6.208  16.650  70.363  0.00  0.00     0.042 H 
BRANCH  33  35
ATOM     35  C12 non d ame      -4.254  16.931  69.497  0.00  0.00    -0.071 C 
ATOM     36  H13 non d ame      -3.927  16.586  70.478  0.00  0.00     0.028 H 
ATOM     37  H14 non d ame      -4.044  16.162  68.754  0.00  0.00     0.028 H 
ATOM     38  H15 non d ame      -3.721  17.845  69.236  0.00  0.00     0.028 H 
ENDBRANCH  33  35
BRANCH  33  39
ATOM     39  C13 non d ame      -6.076  18.731  69.783  0.00  0.00    -0.071 C 
ATOM     40  H16 non d ame      -6.844  19.075  69.091  0.00  0.00     0.028 H 
ATOM     41  H17 non d ame      -6.421  18.871  70.808  0.00  0.00     0.028 H 
ATOM     42  H18 non d ame      -5.163  19.305  69.626  0.00  0.00     0.028 H 
ENDBRANCH  33  39
ENDBRANCH   7  33
ENDBRANCH   4   7
ENDBRANCH   1   3
BRANCH   1  43
ATOM     43  C15 non d ame      -7.884  12.096  67.663  0.00  0.00     0.240 C 
ATOM     44  O5  non d ame      -7.808  11.691  66.547  0.00  0.00    -0.271 OA
ATOM     45  N6  non d ame      -9.151  11.926  68.429  0.00  0.00    -0.355 N 
ATOM     46  H46 non d ame      -9.225  12.261  69.378  0.00  0.00     0.162 HD
BRANCH  45  47
ATOM     47  C20 non d ame     -10.308  11.261  67.792  0.00  0.00     0.013 C 
ATOM     48  H30 non d ame      -9.966  10.811  66.860  0.00  0.00     0.072 H 
BRANCH  47  49
ATOM     49  C21 non d ame     -11.381  12.288  67.507  0.00  0.00    -0.038 C 
ATOM     50  H31 non d ame     -12.295  11.889  67.946  0.00  0.00     0.036 H 
ATOM     51  H32 non d ame     -10.977  13.239  67.856  0.00  0.00     0.036 H 
BRANCH  49  52
ATOM     52  C22 non d ame     -11.659  12.460  65.998  0.00  0.00     0.018 C 
ATOM     53  H33 non d ame     -11.656  11.452  65.580  0.00  0.00     0.048 H 
ATOM     54  H34 non d ame     -12.557  13.074  65.932  0.00  0.00     0.048 H 
BRANCH  52  55
ATOM     55  C23 non d ame     -10.548  13.240  65.242  0.00  0.00     0.259 C 
ATOM     56  O7  non d ame     -10.054  14.205  65.726  0.00  0.00    -0.265 OA
BRANCH  55  57
ATOM     57  O8  non d ame     -10.136  12.795  63.955  0.00  0.00    -0.317 OA
BRANCH  57  58
ATOM     58  C29 non d ame     -10.581  11.476  63.624  0.00  0.00     0.052 C 
ATOM     59  H47 non d ame     -10.973  11.056  64.549  0.00  0.00     0.082 H 
ATOM     60  H48 non d ame     -11.234  11.594  62.759  0.00  0.00     0.082 H 
BRANCH  58  61
ATOM     61  C35 non d ame      -9.342  10.647  63.193  0.00  0.00    -0.034 A 
ATOM     62  C30 non d ame      -8.601  11.029  62.080  0.00  0.00    -0.075 A 
ATOM     63  C31 non d ame      -7.488  10.285  61.692  0.00  0.00    -0.082 A 
ATOM     64  H49 non d ame      -8.893  11.911  61.510  0.00  0.00     0.084 H 
ATOM     65  C32 non d ame      -7.117   9.153  62.423  0.00  0.00    -0.083 A 
ATOM     66  H50 non d ame      -6.909  10.587  60.820  0.00  0.00     0.083 H 
ATOM     67  C33 non d ame      -7.861   8.773  63.532  0.00  0.00    -0.082 A 
ATOM     68  H51 non d ame      -6.248   8.565  62.128  0.00  0.00     0.083 H 
ATOM     69  C34 non d ame      -8.973   9.516  63.924  0.00  0.00    -0.075 A 
ATOM     70  H52 non d ame      -7.571   7.888  64.099  0.00  0.00     0.083 H 
ATOM     71  H53 non d ame      -9.552   9.212  64.797  0.00  0.00     0.084 H 
ENDBRANCH  58  61
ENDBRANCH  57  58
ENDBRANCH  55  57
ENDBRANCH  52  55
ENDBRANCH  49  52
ENDBRANCH  47  49
BRANCH  47  72
ATOM     72  C24 non d ame     -10.864  10.188  68.726  0.00  0.00    -0.039 C 
ATOM     73  H35 non d ame     -10.628  10.529  69.734  0.00  0.00     0.036 H 
ATOM     74  H36 non d ame     -11.904  10.053  68.427  0.00  0.00     0.036 H 
BRANCH  72  75
ATOM     75  C25 non d ame     -10.127   8.781  68.518  0.00  0.00    -0.001 C 
ATOM     76  C26 non d ame     -10.303   8.280  66.962  0.00  0.00    -0.035 C 
ATOM     77  C27 non d ame     -10.770   7.009  66.962  0.00  0.00     0.085 C 
ATOM     78  H38 non d ame     -11.100   8.843  66.476  0.00  0.00     0.036 H 
ATOM     79  H39 non d ame      -9.327   8.193  66.483  0.00  0.00     0.036 H 
ATOM     80  N5  non d ame     -11.237   6.710  68.366  0.00  0.00    -0.049 N 
ATOM     81  H40 non d ame     -11.632   7.014  66.295  0.00  0.00     0.075 H 
ATOM     82  H41 non d ame      -9.908   6.382  66.735  0.00  0.00     0.075 H 
ATOM     83  C28 non d ame     -10.619   7.876  69.297  0.00  0.00     0.193 C 
ATOM     84  H42 non d ame     -12.243   6.804  68.360  0.00  0.00     0.280 HD
ATOM     85  H43 non d ame     -10.814   5.832  68.629  0.00  0.00     0.280 HD
ATOM     86  H44 non d ame      -9.759   7.676  69.937  0.00  0.00     0.129 H 
ATOM     87  H37 non d ame      -9.117   8.780  68.928  0.00  0.00     0.046 H 
BRANCH  83  88
ATOM     88  O6  non d ame     -11.626   8.400  70.164  0.00  0.00    -0.369 OA
ATOM     89  H45 non d ame     -11.253   8.546  71.036  0.00  0.00     0.212 HD
ENDBRANCH  83  88
ENDBRANCH  72  75
ENDBRANCH  47  72
ENDBRANCH  45  47
ENDBRANCH   1  43
BRANCH   1  90
ATOM     90  C16 non d ame      -6.339  12.125  69.647  0.00  0.00    -0.035 C 
ATOM     91  H21 non d ame      -5.436  12.618  70.009  0.00  0.00     0.037 H 
ATOM     92  H22 non d ame      -7.260  12.183  70.225  0.00  0.00     0.037 H 
BRANCH  90  93
ATOM     93  C17 non d ame      -5.992  10.608  69.519  0.00  0.00    -0.059 C 
ATOM     94  H23 non d ame      -6.133  10.323  68.476  0.00  0.00     0.038 H 
BRANCH  93  95
ATOM     95  C18 non d ame      -4.507  10.308  69.898  0.00  0.00    -0.073 C 
ATOM     96  H24 non d ame      -4.178  11.012  70.664  0.00  0.00     0.028 H 
ATOM     97  H25 non d ame      -4.428   9.291  70.283  0.00  0.00     0.028 H 
ATOM     98  H26 non d ame      -3.877  10.411  69.014  0.00  0.00     0.028 H 
ENDBRANCH  93  95
BRANCH  93  99
ATOM     99  C19 non d ame      -6.951   9.756  70.355  0.00  0.00    -0.073 C 
ATOM    100  H27 non d ame      -7.579   9.161  69.692  0.00  0.00     0.028 H 
ATOM    101  H28 non d ame      -6.377   9.093  71.003  0.00  0.00     0.028 H 
ATOM    102  H29 non d ame      -7.578  10.406  70.963  0.00  0.00     0.028 H 
ENDBRANCH  93  99
ENDBRANCH  90  93
ENDBRANCH   1  90
TORSDOF 26
ENDMDL
MODEL 18
REMARK VINA RESULT:      -6.6      3.677      5.795
REMARK  26 active torsions:
REMARK  status: ('A' for Active; 'I' for Inactive)
REMARK    1  A    between atoms: C2_2  and  C3_3 
REMARK    2  A    between atoms: C4_6  and  C5_7 
REMARK       I    between atoms: C5_7  and  N2_9 
REMARK    3  A    between atoms: N2_9  and  C6_10 
REMARK    4  A    between atoms: C6_10  and  C7_11 
REMARK    5  A    between atoms: C6_10  and  C8_13 
REMARK       I    between atoms: C7_11  and  N3_14 
REMARK    6  A    between atoms: N3_14  and  C9_15 
REMARK    7  A    between atoms: C9_15  and  C10_16 
REMARK    8  A    between atoms: C9_15  and  C11_18 
REMARK       I    between atoms: C10_16  and  N4_21 
REMARK    9  A    between atoms: C11_18  and  C12_19 
REMARK   10  A    between atoms: C11_18  and  C13_20 
REMARK   11  A    between atoms: N4_21  and  C14_22 
REMARK   12  A    between atoms: C14_22  and  C15_23 
REMARK   13  A    between atoms: C14_22  and  C16_25 
REMARK       I    between atoms: C15_23  and  N6_40 
REMARK   14  A    between atoms: C16_25  and  C17_26 
REMARK   15  A    between atoms: C17_26  and  C18_27 
REMARK   16  A    between atoms: C17_26  and  C19_28 
REMARK   17  A    between atoms: C20_29  and  C21_30 
REMARK   18  A    between atoms: C20_29  and  C24_33 
REMARK   19  A    between atoms: C20_29  and  N6_40 
REMARK   20  A    between atoms: C21_30  and  C22_31 
REMARK   21  A    between atoms: C22_31  and  C23_32 
REMARK   22  A    between atoms: C23_32  and  O8_43 
REMARK   23  A    between atoms: C24_33  and  C25_34 
REMARK   24  A    between atoms: C28_38  and  O6_39 
REMARK   25  A    between atoms: C29_42  and  O8_43 
REMARK   26  A    between atoms: C29_42  and  C35_49 
ROOT
ATOM      1  C14 non d ame     -10.242   8.525  68.840  0.00  0.00     0.089 C 
ATOM      2  H20 non d ame     -11.283   8.239  68.693  0.00  0.00     0.087 H 
ENDROOT
BRANCH   1   3
ATOM      3  N4  non d ame      -9.421   7.617  68.054  0.00  0.00    -0.346 N 
ATOM      4  C10 non d ame     -10.059   6.691  67.048  0.00  0.00     0.241 C 
ATOM      5  O4  non d ame     -11.236   6.694  66.892  0.00  0.00    -0.271 OA
ATOM      6  H19 non d ame      -8.422   7.628  68.204  0.00  0.00     0.163 HD
BRANCH   4   7
ATOM      7  C9  non d ame      -9.194   5.761  66.239  0.00  0.00     0.092 C 
ATOM      8  H11 non d ame      -9.759   5.405  65.377  0.00  0.00     0.088 H 
BRANCH   7   9
ATOM      9  N3  non d ame      -8.036   6.497  65.721  0.00  0.00    -0.346 N 
ATOM     10  C7  non d ame      -7.636   6.337  64.345  0.00  0.00     0.240 C 
ATOM     11  O3  non d ame      -8.235   5.620  63.640  0.00  0.00    -0.271 OA
ATOM     12  H10 non d ame      -7.509   7.117  66.318  0.00  0.00     0.163 HD
BRANCH  10  13
ATOM     13  C6  non d ame      -6.401   7.120  63.802  0.00  0.00     0.086 C 
ATOM     14  H6  non d ame      -6.605   7.628  62.859  0.00  0.00     0.086 H 
BRANCH  13  15
ATOM     15  N2  non d ame      -6.038   8.151  64.760  0.00  0.00    -0.343 N 
ATOM     16  C5  non d ame      -5.614   9.467  64.277  0.00  0.00     0.273 C 
ATOM     17  O2  non d ame      -5.566   9.685  63.117  0.00  0.00    -0.266 OA
ATOM     18  H5  non d ame      -6.079   7.955  65.750  0.00  0.00     0.163 HD
BRANCH  16  19
ATOM     19  C4  non d ame      -5.229  10.567  65.279  0.00  0.00     0.154 A 
ATOM     20  C1  non d ame      -5.947  10.955  66.454  0.00  0.00    -0.017 A 
ATOM     21  C2  non d ame      -5.182  12.000  67.020  0.00  0.00     0.077 A 
ATOM     22  H1  non d ame      -6.881  10.543  66.839  0.00  0.00     0.091 H 
ATOM     23  O1  non d ame      -4.146  12.181  66.252  0.00  0.00    -0.218 OA
ATOM     24  N1  non d ame      -4.153  11.357  65.229  0.00  0.00    -0.123 NA
BRANCH  21  25
ATOM     25  C3  non d ame      -5.507  12.768  68.293  0.00  0.00    -0.029 C 
ATOM     26  H2  non d ame      -4.992  13.730  68.280  0.00  0.00     0.036 H 
ATOM     27  H3  non d ame      -6.583  12.933  68.353  0.00  0.00     0.036 H 
ATOM     28  H4  non d ame      -5.180  12.193  69.160  0.00  0.00     0.036 H 
ENDBRANCH  21  25
ENDBRANCH  16  19
ENDBRANCH  13  15
BRANCH  13  29
ATOM     29  C8  non d ame      -5.248   6.170  63.604  0.00  0.00    -0.049 C 
ATOM     30  H7  non d ame      -5.436   5.248  64.154  0.00  0.00     0.030 H 
ATOM     31  H8  non d ame      -5.142   5.944  62.542  0.00  0.00     0.030 H 
ATOM     32  H9  non d ame      -4.331   6.630  63.971  0.00  0.00     0.030 H 
ENDBRANCH  13  29
ENDBRANCH  10  13
ENDBRANCH   7   9
BRANCH   7  33
ATOM     33  C11 non d ame      -8.702   4.592  67.141  0.00  0.00    -0.033 C 
ATOM     34  H12 non d ame      -9.023   4.807  68.161  0.00  0.00     0.042 H 
BRANCH  33  35
ATOM     35  C12 non d ame      -9.353   3.237  66.721  0.00  0.00    -0.071 C 
ATOM     36  H13 non d ame     -10.327   3.427  66.269  0.00  0.00     0.028 H 
ATOM     37  H14 non d ame      -8.710   2.733  66.000  0.00  0.00     0.028 H 
ATOM     38  H15 non d ame      -9.477   2.606  67.601  0.00  0.00     0.028 H 
ENDBRANCH  33  35
BRANCH  33  39
ATOM     39  C13 non d ame      -7.143   4.498  67.134  0.00  0.00    -0.071 C 
ATOM     40  H16 non d ame      -6.825   3.797  66.362  0.00  0.00     0.028 H 
ATOM     41  H17 non d ame      -6.720   5.482  66.929  0.00  0.00     0.028 H 
ATOM     42  H18 non d ame      -6.797   4.148  68.106  0.00  0.00     0.028 H 
ENDBRANCH  33  39
ENDBRANCH   7  33
ENDBRANCH   4   7
ENDBRANCH   1   3
BRANCH   1  43
ATOM     43  C15 non d ame      -9.960   9.981  68.369  0.00  0.00     0.240 C 
ATOM     44  O5  non d ame      -8.974  10.539  68.730  0.00  0.00    -0.271 OA
ATOM     45  N6  non d ame     -10.915  10.677  67.460  0.00  0.00    -0.355 N 
ATOM     46  H46 non d ame     -11.754  10.212  67.144  0.00  0.00     0.162 HD
BRANCH  45  47
ATOM     47  C20 non d ame     -10.632  12.060  67.020  0.00  0.00     0.013 C 
ATOM     48  H30 non d ame     -10.167  12.588  67.853  0.00  0.00     0.072 H 
BRANCH  47  49
ATOM     49  C21 non d ame     -11.928  12.738  66.638  0.00  0.00    -0.038 C 
ATOM     50  H31 non d ame     -12.109  12.465  65.598  0.00  0.00     0.036 H 
ATOM     51  H32 non d ame     -12.646  12.456  67.409  0.00  0.00     0.036 H 
BRANCH  49  52
ATOM     52  C22 non d ame     -11.833  14.279  66.675  0.00  0.00     0.018 C 
ATOM     53  H33 non d ame     -12.799  14.626  67.043  0.00  0.00     0.048 H 
ATOM     54  H34 non d ame     -10.924  14.505  67.234  0.00  0.00     0.048 H 
BRANCH  52  55
ATOM     55  C23 non d ame     -11.649  14.928  65.275  0.00  0.00     0.259 C 
ATOM     56  O7  non d ame     -12.349  14.612  64.369  0.00  0.00    -0.265 OA
BRANCH  55  57
ATOM     57  O8  non d ame     -10.625  15.896  65.084  0.00  0.00    -0.317 OA
BRANCH  57  58
ATOM     58  C29 non d ame      -9.683  15.969  66.159  0.00  0.00     0.052 C 
ATOM     59  H47 non d ame     -10.061  15.297  66.928  0.00  0.00     0.082 H 
ATOM     60  H48 non d ame      -8.708  15.788  65.708  0.00  0.00     0.082 H 
BRANCH  58  61
ATOM     61  C35 non d ame      -9.705  17.417  66.717  0.00  0.00    -0.034 A 
ATOM     62  C30 non d ame     -10.477  18.391  66.095  0.00  0.00    -0.075 A 
ATOM     63  C31 non d ame     -10.497  19.692  66.596  0.00  0.00    -0.082 A 
ATOM     64  H49 non d ame     -11.068  18.137  65.215  0.00  0.00     0.084 H 
ATOM     65  C32 non d ame      -9.737  20.017  67.723  0.00  0.00    -0.083 A 
ATOM     66  H50 non d ame     -11.105  20.453  66.107  0.00  0.00     0.083 H 
ATOM     67  C33 non d ame      -8.965  19.041  68.339  0.00  0.00    -0.082 A 
ATOM     68  H51 non d ame      -9.746  21.031  68.122  0.00  0.00     0.083 H 
ATOM     69  C34 non d ame      -8.945  17.739  67.842  0.00  0.00    -0.075 A 
ATOM     70  H52 non d ame      -8.371  19.298  69.217  0.00  0.00     0.083 H 
ATOM     71  H53 non d ame      -8.336  16.978  68.333  0.00  0.00     0.084 H 
ENDBRANCH  58  61
ENDBRANCH  57  58
ENDBRANCH  55  57
ENDBRANCH  52  55
ENDBRANCH  49  52
ENDBRANCH  47  49
BRANCH  47  72
ATOM     72  C24 non d ame      -9.694  12.037  65.816  0.00  0.00    -0.039 C 
ATOM     73  H35 non d ame      -9.668  13.062  65.448  0.00  0.00     0.036 H 
ATOM     74  H36 non d ame      -8.778  11.562  66.170  0.00  0.00     0.036 H 
BRANCH  72  75
ATOM     75  C25 non d ame     -10.272  11.124  64.633  0.00  0.00    -0.001 C 
ATOM     76  C26 non d ame      -9.311   9.806  64.421  0.00  0.00    -0.035 C 
ATOM     77  C27 non d ame      -8.980   9.713  63.111  0.00  0.00     0.085 C 
ATOM     78  H38 non d ame      -8.352   9.960  64.915  0.00  0.00     0.036 H 
ATOM     79  H39 non d ame      -9.880   8.895  64.606  0.00  0.00     0.036 H 
ATOM     80  N5  non d ame      -9.356  11.024  62.466  0.00  0.00    -0.049 N 
ATOM     81  H40 non d ame      -7.896   9.605  63.091  0.00  0.00     0.075 H 
ATOM     82  H41 non d ame      -9.615   8.924  62.706  0.00  0.00     0.075 H 
ATOM     83  C28 non d ame     -10.320  11.778  63.520  0.00  0.00     0.193 C 
ATOM     84  H42 non d ame      -8.501  11.555  62.376  0.00  0.00     0.280 HD
ATOM     85  H43 non d ame      -9.896  10.796  61.644  0.00  0.00     0.280 HD
ATOM     86  H44 non d ame     -11.398  11.813  63.357  0.00  0.00     0.129 H 
ATOM     87  H37 non d ame     -11.342  10.947  64.733  0.00  0.00     0.046 H 
BRANCH  83  88
ATOM     88  O6  non d ame      -9.913  13.138  63.675  0.00  0.00    -0.369 OA
ATOM     89  H45 non d ame      -9.370  13.221  64.461  0.00  0.00     0.212 HD
ENDBRANCH  83  88
ENDBRANCH  72  75
ENDBRANCH  47  72
ENDBRANCH  45  47
ENDBRANCH   1  43
BRANCH   1  90
ATOM     90  C16 non d ame      -9.872   8.383  70.309  0.00  0.00    -0.035 C 
ATOM     91  H21 non d ame      -9.172   7.549  70.351  0.00  0.00     0.037 H 
ATOM     92  H22 non d ame      -9.555   9.377  70.624  0.00  0.00     0.037 H 
BRANCH  90  93
ATOM     93  C17 non d ame     -11.077   7.993  71.223  0.00  0.00    -0.059 C 
ATOM     94  H23 non d ame     -11.488   7.057  70.846  0.00  0.00     0.038 H 
BRANCH  93  95
ATOM     95  C18 non d ame     -10.642   7.762  72.705  0.00  0.00    -0.073 C 
ATOM     96  H24 non d ame     -11.488   7.955  73.366  0.00  0.00     0.028 H 
ATOM     97  H25 non d ame     -10.314   6.730  72.830  0.00  0.00     0.028 H 
ATOM     98  H26 non d ame      -9.824   8.436  72.954  0.00  0.00     0.028 H 
ENDBRANCH  93  95
BRANCH  93  99
ATOM     99  C19 non d ame     -12.188   9.043  71.138  0.00  0.00    -0.073 C 
ATOM    100  H27 non d ame     -12.395   9.433  72.135  0.00  0.00     0.028 H 
ATOM    101  H28 non d ame     -11.870   9.858  70.488  0.00  0.00     0.028 H 
ATOM    102  H29 non d ame     -13.090   8.585  70.734  0.00  0.00     0.028 H 
ENDBRANCH  93  99
ENDBRANCH  90  93
ENDBRANCH   1  90
TORSDOF 26
ENDMDL
MODEL 19
REMARK VINA RESULT:      -6.6      2.774      5.650
REMARK  26 active torsions:
REMARK  status: ('A' for Active; 'I' for Inactive)
REMARK    1  A    between atoms: C2_2  and  C3_3 
REMARK    2  A    between atoms: C4_6  and  C5_7 
REMARK       I    between atoms: C5_7  and  N2_9 
REMARK    3  A    between atoms: N2_9  and  C6_10 
REMARK    4  A    between atoms: C6_10  and  C7_11 
REMARK    5  A    between atoms: C6_10  and  C8_13 
REMARK       I    between atoms: C7_11  and  N3_14 
REMARK    6  A    between atoms: N3_14  and  C9_15 
REMARK    7  A    between atoms: C9_15  and  C10_16 
REMARK    8  A    between atoms: C9_15  and  C11_18 
REMARK       I    between atoms: C10_16  and  N4_21 
REMARK    9  A    between atoms: C11_18  and  C12_19 
REMARK   10  A    between atoms: C11_18  and  C13_20 
REMARK   11  A    between atoms: N4_21  and  C14_22 
REMARK   12  A    between atoms: C14_22  and  C15_23 
REMARK   13  A    between atoms: C14_22  and  C16_25 
REMARK       I    between atoms: C15_23  and  N6_40 
REMARK   14  A    between atoms: C16_25  and  C17_26 
REMARK   15  A    between atoms: C17_26  and  C18_27 
REMARK   16  A    between atoms: C17_26  and  C19_28 
REMARK   17  A    between atoms: C20_29  and  C21_30 
REMARK   18  A    between atoms: C20_29  and  C24_33 
REMARK   19  A    between atoms: C20_29  and  N6_40 
REMARK   20  A    between atoms: C21_30  and  C22_31 
REMARK   21  A    between atoms: C22_31  and  C23_32 
REMARK   22  A    between atoms: C23_32  and  O8_43 
REMARK   23  A    between atoms: C24_33  and  C25_34 
REMARK   24  A    between atoms: C28_38  and  O6_39 
REMARK   25  A    between atoms: C29_42  and  O8_43 
REMARK   26  A    between atoms: C29_42  and  C35_49 
ROOT
ATOM      1  C14 non d ame     -10.857   9.207  69.401  0.00  0.00     0.089 C 
ATOM      2  H20 non d ame     -11.728   8.559  69.307  0.00  0.00     0.087 H 
ENDROOT
BRANCH   1   3
ATOM      3  N4  non d ame      -9.719   8.497  68.837  0.00  0.00    -0.346 N 
ATOM      4  C10 non d ame      -9.881   7.092  68.313  0.00  0.00     0.241 C 
ATOM      5  O4  non d ame     -10.937   6.553  68.359  0.00  0.00    -0.271 OA
ATOM      6  H19 non d ame      -8.827   8.973  68.810  0.00  0.00     0.163 HD
BRANCH   4   7
ATOM      7  C9  non d ame      -8.694   6.374  67.728  0.00  0.00     0.092 C 
ATOM      8  H11 non d ame      -9.036   5.480  67.207  0.00  0.00     0.088 H 
BRANCH   7   9
ATOM      9  N3  non d ame      -8.046   7.232  66.731  0.00  0.00    -0.346 N 
ATOM     10  C7  non d ame      -8.278   7.008  65.326  0.00  0.00     0.240 C 
ATOM     11  O3  non d ame      -8.982   6.140  64.979  0.00  0.00    -0.271 OA
ATOM     12  H10 non d ame      -7.434   7.984  67.016  0.00  0.00     0.163 HD
BRANCH  10  13
ATOM     13  C6  non d ame      -7.582   7.923  64.271  0.00  0.00     0.086 C 
ATOM     14  H6  non d ame      -7.281   7.380  63.375  0.00  0.00     0.086 H 
BRANCH  13  15
ATOM     15  N2  non d ame      -8.522   8.945  63.841  0.00  0.00    -0.343 N 
ATOM     16  C5  non d ame      -9.019   9.921  64.814  0.00  0.00     0.273 C 
ATOM     17  O2  non d ame      -8.659   9.874  65.938  0.00  0.00    -0.266 OA
ATOM     18  H5  non d ame      -8.826   8.977  62.879  0.00  0.00     0.163 HD
BRANCH  16  19
ATOM     19  C4  non d ame     -10.012  11.009  64.373  0.00  0.00     0.154 A 
ATOM     20  C1  non d ame     -10.350  12.208  65.079  0.00  0.00    -0.017 A 
ATOM     21  C2  non d ame     -11.297  12.858  64.258  0.00  0.00     0.077 A 
ATOM     22  H1  non d ame      -9.966  12.553  66.040  0.00  0.00     0.091 H 
ATOM     23  O1  non d ame     -11.474  12.113  63.205  0.00  0.00    -0.218 OA
ATOM     24  N1  non d ame     -10.735  11.028  63.251  0.00  0.00    -0.123 NA
BRANCH  21  25
ATOM     25  C3  non d ame     -11.982  14.186  64.549  0.00  0.00    -0.029 C 
ATOM     26  H2  non d ame     -11.385  14.755  65.264  0.00  0.00     0.036 H 
ATOM     27  H3  non d ame     -12.079  14.755  63.625  0.00  0.00     0.036 H 
ATOM     28  H4  non d ame     -12.972  14.002  64.967  0.00  0.00     0.036 H 
ENDBRANCH  21  25
ENDBRANCH  16  19
ENDBRANCH  13  15
BRANCH  13  29
ATOM     29  C8  non d ame      -6.364   8.566  64.883  0.00  0.00    -0.049 C 
ATOM     30  H7  non d ame      -6.619   8.968  65.864  0.00  0.00     0.030 H 
ATOM     31  H8  non d ame      -5.575   7.821  64.989  0.00  0.00     0.030 H 
ATOM     32  H9  non d ame      -6.018   9.374  64.240  0.00  0.00     0.030 H 
ENDBRANCH  13  29
ENDBRANCH  10  13
ENDBRANCH   7   9
BRANCH   7  33
ATOM     33  C11 non d ame      -7.679   6.040  68.860  0.00  0.00    -0.033 C 
ATOM     34  H12 non d ame      -7.704   6.862  69.576  0.00  0.00     0.042 H 
BRANCH  33  35
ATOM     35  C12 non d ame      -8.085   4.741  69.622  0.00  0.00    -0.071 C 
ATOM     36  H13 non d ame      -7.438   4.611  70.490  0.00  0.00     0.028 H 
ATOM     37  H14 non d ame      -9.121   4.821  69.951  0.00  0.00     0.028 H 
ATOM     38  H15 non d ame      -7.981   3.883  68.958  0.00  0.00     0.028 H 
ENDBRANCH  33  35
BRANCH  33  39
ATOM     39  C13 non d ame      -6.226   5.935  68.295  0.00  0.00    -0.071 C 
ATOM     40  H16 non d ame      -5.545   5.647  69.095  0.00  0.00     0.028 H 
ATOM     41  H17 non d ame      -6.196   5.185  67.504  0.00  0.00     0.028 H 
ATOM     42  H18 non d ame      -5.924   6.901  67.891  0.00  0.00     0.028 H 
ENDBRANCH  33  39
ENDBRANCH   7  33
ENDBRANCH   4   7
ENDBRANCH   1   3
BRANCH   1  43
ATOM     43  C15 non d ame     -11.035  10.547  68.632  0.00  0.00     0.240 C 
ATOM     44  O5  non d ame     -11.607  10.559  67.589  0.00  0.00    -0.271 OA
ATOM     45  N6  non d ame     -10.501  11.819  69.198  0.00  0.00    -0.355 N 
ATOM     46  H46 non d ame     -10.017  11.822  70.085  0.00  0.00     0.162 HD
BRANCH  45  47
ATOM     47  C20 non d ame     -10.680  13.084  68.455  0.00  0.00     0.013 C 
ATOM     48  H30 non d ame     -10.710  12.847  67.391  0.00  0.00     0.072 H 
BRANCH  47  49
ATOM     49  C21 non d ame      -9.516  14.005  68.746  0.00  0.00    -0.038 C 
ATOM     50  H31 non d ame      -9.859  14.672  69.537  0.00  0.00     0.036 H 
ATOM     51  H32 non d ame      -8.660  13.351  68.917  0.00  0.00     0.036 H 
BRANCH  49  52
ATOM     52  C22 non d ame      -9.147  14.902  67.546  0.00  0.00     0.018 C 
ATOM     53  H33 non d ame      -8.057  14.942  67.531  0.00  0.00     0.048 H 
ATOM     54  H34 non d ame      -9.689  14.493  66.693  0.00  0.00     0.048 H 
BRANCH  52  55
ATOM     55  C23 non d ame      -9.626  16.373  67.693  0.00  0.00     0.259 C 
ATOM     56  O7  non d ame     -10.560  16.767  67.074  0.00  0.00    -0.265 OA
BRANCH  55  57
ATOM     57  O8  non d ame      -8.927  17.250  68.567  0.00  0.00    -0.317 OA
BRANCH  57  58
ATOM     58  C29 non d ame      -9.319  18.621  68.455  0.00  0.00     0.052 C 
ATOM     59  H47 non d ame      -9.959  18.674  67.575  0.00  0.00     0.082 H 
ATOM     60  H48 non d ame      -9.714  18.896  69.433  0.00  0.00     0.082 H 
BRANCH  58  61
ATOM     61  C35 non d ame      -8.044  19.464  68.186  0.00  0.00    -0.034 A 
ATOM     62  C30 non d ame      -7.832  20.027  66.933  0.00  0.00    -0.075 A 
ATOM     63  C31 non d ame      -6.687  20.784  66.691  0.00  0.00    -0.082 A 
ATOM     64  H49 non d ame      -8.564  19.876  66.139  0.00  0.00     0.084 H 
ATOM     65  C32 non d ame      -5.749  20.974  67.710  0.00  0.00    -0.083 A 
ATOM     66  H50 non d ame      -6.525  21.226  65.708  0.00  0.00     0.083 H 
ATOM     67  C33 non d ame      -5.962  20.407  68.959  0.00  0.00    -0.082 A 
ATOM     68  H51 non d ame      -4.851  21.565  67.530  0.00  0.00     0.083 H 
ATOM     69  C34 non d ame      -7.108  19.652  69.205  0.00  0.00    -0.075 A 
ATOM     70  H52 non d ame      -5.228  20.556  69.751  0.00  0.00     0.083 H 
ATOM     71  H53 non d ame      -7.269  19.211  70.189  0.00  0.00     0.084 H 
ENDBRANCH  58  61
ENDBRANCH  57  58
ENDBRANCH  55  57
ENDBRANCH  52  55
ENDBRANCH  49  52
ENDBRANCH  47  49
BRANCH  47  72
ATOM     72  C24 non d ame     -11.982  13.756  68.885  0.00  0.00    -0.039 C 
ATOM     73  H35 non d ame     -12.087  14.627  68.239  0.00  0.00     0.036 H 
ATOM     74  H36 non d ame     -12.736  12.969  68.865  0.00  0.00     0.036 H 
BRANCH  72  75
ATOM     75  C25 non d ame     -11.901  14.293  70.393  0.00  0.00    -0.001 C 
ATOM     76  C26 non d ame     -12.833  13.357  71.372  0.00  0.00    -0.035 C 
ATOM     77  C27 non d ame     -13.656  14.159  72.089  0.00  0.00     0.085 C 
ATOM     78  H38 non d ame     -13.519  12.758  70.773  0.00  0.00     0.036 H 
ATOM     79  H39 non d ame     -12.215  12.880  72.133  0.00  0.00     0.036 H 
ATOM     80  N5  non d ame     -13.601  15.528  71.455  0.00  0.00    -0.049 N 
ATOM     81  H40 non d ame     -14.656  13.745  71.955  0.00  0.00     0.075 H 
ATOM     82  H41 non d ame     -13.216  14.212  73.085  0.00  0.00     0.075 H 
ATOM     83  C28 non d ame     -12.316  15.513  70.477  0.00  0.00     0.193 C 
ATOM     84  H42 non d ame     -14.434  15.615  70.889  0.00  0.00     0.280 HD
ATOM     85  H43 non d ame     -13.428  16.184  72.203  0.00  0.00     0.280 HD
ATOM     86  H44 non d ame     -11.394  16.017  70.767  0.00  0.00     0.129 H 
ATOM     87  H37 non d ame     -10.875  14.476  70.711  0.00  0.00     0.046 H 
BRANCH  83  88
ATOM     88  O6  non d ame     -12.662  16.055  69.201  0.00  0.00    -0.369 OA
ATOM     89  H45 non d ame     -12.033  15.751  68.544  0.00  0.00     0.212 HD
ENDBRANCH  83  88
ENDBRANCH  72  75
ENDBRANCH  47  72
ENDBRANCH  45  47
ENDBRANCH   1  43
BRANCH   1  90
ATOM     90  C16 non d ame     -10.585   9.494  70.870  0.00  0.00    -0.035 C 
ATOM     91  H21 non d ame      -9.671   8.949  71.106  0.00  0.00     0.037 H 
ATOM     92  H22 non d ame     -10.611  10.579  70.962  0.00  0.00     0.037 H 
BRANCH  90  93
ATOM     93  C17 non d ame     -11.686   8.942  71.830  0.00  0.00    -0.059 C 
ATOM     94  H23 non d ame     -11.336   9.085  72.852  0.00  0.00     0.038 H 
BRANCH  93  95
ATOM     95  C18 non d ame     -13.039   9.708  71.679  0.00  0.00    -0.073 C 
ATOM     96  H24 non d ame     -13.638   9.236  70.899  0.00  0.00     0.028 H 
ATOM     97  H25 non d ame     -13.583   9.675  72.623  0.00  0.00     0.028 H 
ATOM     98  H26 non d ame     -12.842  10.745  71.409  0.00  0.00     0.028 H 
ENDBRANCH  93  95
BRANCH  93  99
ATOM     99  C19 non d ame     -11.885   7.438  71.625  0.00  0.00    -0.073 C 
ATOM    100  H27 non d ame     -10.922   6.968  71.428  0.00  0.00     0.028 H 
ATOM    101  H28 non d ame     -12.325   7.004  72.523  0.00  0.00     0.028 H 
ATOM    102  H29 non d ame     -12.550   7.272  70.778  0.00  0.00     0.028 H 
ENDBRANCH  93  99
ENDBRANCH  90  93
ENDBRANCH   1  90
TORSDOF 26
ENDMDL
MODEL 20
REMARK VINA RESULT:      -6.6      3.298      9.215
REMARK  26 active torsions:
REMARK  status: ('A' for Active; 'I' for Inactive)
REMARK    1  A    between atoms: C2_2  and  C3_3 
REMARK    2  A    between atoms: C4_6  and  C5_7 
REMARK       I    between atoms: C5_7  and  N2_9 
REMARK    3  A    between atoms: N2_9  and  C6_10 
REMARK    4  A    between atoms: C6_10  and  C7_11 
REMARK    5  A    between atoms: C6_10  and  C8_13 
REMARK       I    between atoms: C7_11  and  N3_14 
REMARK    6  A    between atoms: N3_14  and  C9_15 
REMARK    7  A    between atoms: C9_15  and  C10_16 
REMARK    8  A    between atoms: C9_15  and  C11_18 
REMARK       I    between atoms: C10_16  and  N4_21 
REMARK    9  A    between atoms: C11_18  and  C12_19 
REMARK   10  A    between atoms: C11_18  and  C13_20 
REMARK   11  A    between atoms: N4_21  and  C14_22 
REMARK   12  A    between atoms: C14_22  and  C15_23 
REMARK   13  A    between atoms: C14_22  and  C16_25 
REMARK       I    between atoms: C15_23  and  N6_40 
REMARK   14  A    between atoms: C16_25  and  C17_26 
REMARK   15  A    between atoms: C17_26  and  C18_27 
REMARK   16  A    between atoms: C17_26  and  C19_28 
REMARK   17  A    between atoms: C20_29  and  C21_30 
REMARK   18  A    between atoms: C20_29  and  C24_33 
REMARK   19  A    between atoms: C20_29  and  N6_40 
REMARK   20  A    between atoms: C21_30  and  C22_31 
REMARK   21  A    between atoms: C22_31  and  C23_32 
REMARK   22  A    between atoms: C23_32  and  O8_43 
REMARK   23  A    between atoms: C24_33  and  C25_34 
REMARK   24  A    between atoms: C28_38  and  O6_39 
REMARK   25  A    between atoms: C29_42  and  O8_43 
REMARK   26  A    between atoms: C29_42  and  C35_49 
ROOT
ATOM      1  C14 non d ame     -11.182  13.963  69.394  0.00  0.00     0.089 C 
ATOM      2  H20 non d ame     -10.269  14.113  69.969  0.00  0.00     0.087 H 
ENDROOT
BRANCH   1   3
ATOM      3  N4  non d ame     -11.003  14.617  68.106  0.00  0.00    -0.346 N 
ATOM      4  C10 non d ame      -9.781  14.329  67.270  0.00  0.00     0.241 C 
ATOM      5  O4  non d ame      -8.955  13.568  67.656  0.00  0.00    -0.271 OA
ATOM      6  H19 non d ame     -11.716  15.263  67.797  0.00  0.00     0.163 HD
BRANCH   4   7
ATOM      7  C9  non d ame      -9.613  15.009  65.937  0.00  0.00     0.092 C 
ATOM      8  H11 non d ame      -8.597  15.396  65.857  0.00  0.00     0.088 H 
BRANCH   7   9
ATOM      9  N3  non d ame      -9.788  14.029  64.862  0.00  0.00    -0.346 N 
ATOM     10  C7  non d ame     -10.936  13.156  64.860  0.00  0.00     0.240 C 
ATOM     11  O3  non d ame     -11.729  13.229  65.718  0.00  0.00    -0.271 OA
ATOM     12  H10 non d ame      -9.112  13.954  64.116  0.00  0.00     0.163 HD
BRANCH  10  13
ATOM     13  C6  non d ame     -11.115  12.113  63.714  0.00  0.00     0.086 C 
ATOM     14  H6  non d ame     -10.730  12.466  62.758  0.00  0.00     0.086 H 
BRANCH  13  15
ATOM     15  N2  non d ame     -10.363  10.914  64.048  0.00  0.00    -0.343 N 
ATOM     16  C5  non d ame      -9.267  10.484  63.175  0.00  0.00     0.273 C 
ATOM     17  O2  non d ame      -9.001  11.108  62.207  0.00  0.00    -0.266 OA
ATOM     18  H5  non d ame     -10.598  10.386  64.875  0.00  0.00     0.163 HD
BRANCH  16  19
ATOM     19  C4  non d ame      -8.462   9.221  63.517  0.00  0.00     0.154 A 
ATOM     20  C1  non d ame      -8.232   8.088  62.672  0.00  0.00    -0.017 A 
ATOM     21  C2  non d ame      -7.443   7.210  63.448  0.00  0.00     0.077 A 
ATOM     22  H1  non d ame      -8.584   7.928  61.653  0.00  0.00     0.091 H 
ATOM     23  O1  non d ame      -7.247   7.782  64.601  0.00  0.00    -0.218 OA
ATOM     24  N1  non d ame      -7.833   8.956  64.665  0.00  0.00    -0.123 NA
BRANCH  21  25
ATOM     25  C3  non d ame      -6.917   5.849  63.015  0.00  0.00    -0.029 C 
ATOM     26  H2  non d ame      -7.746   5.233  62.663  0.00  0.00     0.036 H 
ATOM     27  H3  non d ame      -6.195   5.979  62.209  0.00  0.00     0.036 H 
ATOM     28  H4  non d ame      -6.434   5.359  63.860  0.00  0.00     0.036 H 
ENDBRANCH  21  25
ENDBRANCH  16  19
ENDBRANCH  13  15
BRANCH  13  29
ATOM     29  C8  non d ame     -12.576  11.778  63.558  0.00  0.00    -0.049 C 
ATOM     30  H7  non d ame     -12.965  12.259  62.660  0.00  0.00     0.030 H 
ATOM     31  H8  non d ame     -12.693  10.697  63.471  0.00  0.00     0.030 H 
ATOM     32  H9  non d ame     -13.126  12.135  64.428  0.00  0.00     0.030 H 
ENDBRANCH  13  29
ENDBRANCH  10  13
ENDBRANCH   7   9
BRANCH   7  33
ATOM     33  C11 non d ame     -10.681  16.133  65.791  0.00  0.00    -0.033 C 
ATOM     34  H12 non d ame     -11.510  15.887  66.454  0.00  0.00     0.042 H 
BRANCH  33  35
ATOM     35  C12 non d ame     -10.115  17.517  66.239  0.00  0.00    -0.071 C 
ATOM     36  H13 non d ame      -9.545  17.958  65.421  0.00  0.00     0.028 H 
ATOM     37  H14 non d ame     -10.939  18.178  66.505  0.00  0.00     0.028 H 
ATOM     38  H15 non d ame      -9.466  17.380  67.103  0.00  0.00     0.028 H 
ENDBRANCH  33  35
BRANCH  33  39
ATOM     39  C13 non d ame     -11.232  16.193  64.330  0.00  0.00    -0.071 C 
ATOM     40  H16 non d ame     -11.269  17.230  63.998  0.00  0.00     0.028 H 
ATOM     41  H17 non d ame     -10.578  15.622  63.670  0.00  0.00     0.028 H 
ATOM     42  H18 non d ame     -12.235  15.768  64.304  0.00  0.00     0.028 H 
ENDBRANCH  33  39
ENDBRANCH   7  33
ENDBRANCH   4   7
ENDBRANCH   1   3
BRANCH   1  43
ATOM     43  C15 non d ame     -11.481  12.457  69.147  0.00  0.00     0.240 C 
ATOM     44  O5  non d ame     -12.489  12.135  68.604  0.00  0.00    -0.271 OA
ATOM     45  N6  non d ame     -10.507  11.415  69.580  0.00  0.00    -0.355 N 
ATOM     46  H46 non d ame      -9.646  11.676  70.038  0.00  0.00     0.162 HD
BRANCH  45  47
ATOM     47  C20 non d ame     -10.806   9.987  69.337  0.00  0.00     0.013 C 
ATOM     48  H30 non d ame     -11.800   9.923  68.894  0.00  0.00     0.072 H 
BRANCH  47  49
ATOM     49  C21 non d ame     -10.776   9.239  70.650  0.00  0.00    -0.038 C 
ATOM     50  H31 non d ame     -10.705   8.183  70.387  0.00  0.00     0.036 H 
ATOM     51  H32 non d ame      -9.987   9.709  71.239  0.00  0.00     0.036 H 
BRANCH  49  52
ATOM     52  C22 non d ame     -12.080   9.400  71.462  0.00  0.00     0.018 C 
ATOM     53  H33 non d ame     -11.768   9.547  72.496  0.00  0.00     0.048 H 
ATOM     54  H34 non d ame     -12.652  10.174  70.950  0.00  0.00     0.048 H 
BRANCH  52  55
ATOM     55  C23 non d ame     -12.978   8.132  71.462  0.00  0.00     0.259 C 
ATOM     56  O7  non d ame     -14.121   8.203  71.777  0.00  0.00    -0.265 OA
BRANCH  55  57
ATOM     57  O8  non d ame     -12.414   6.879  71.094  0.00  0.00    -0.317 OA
BRANCH  57  58
ATOM     58  C29 non d ame     -11.982   6.085  72.203  0.00  0.00     0.052 C 
ATOM     59  H47 non d ame     -12.063   6.730  73.077  0.00  0.00     0.082 H 
ATOM     60  H48 non d ame     -12.563   5.164  72.150  0.00  0.00     0.082 H 
BRANCH  58  61
ATOM     61  C35 non d ame     -10.486   5.735  71.987  0.00  0.00    -0.034 A 
ATOM     62  C30 non d ame     -10.131   4.694  71.136  0.00  0.00    -0.075 A 
ATOM     63  C31 non d ame      -8.787   4.378  70.942  0.00  0.00    -0.082 A 
ATOM     64  H49 non d ame     -10.904   4.125  70.622  0.00  0.00     0.084 H 
ATOM     65  C32 non d ame      -7.796   5.108  71.605  0.00  0.00    -0.083 A 
ATOM     66  H50 non d ame      -8.511   3.563  70.273  0.00  0.00     0.083 H 
ATOM     67  C33 non d ame      -8.155   6.145  72.456  0.00  0.00    -0.082 A 
ATOM     68  H51 non d ame      -6.743   4.869  71.459  0.00  0.00     0.083 H 
ATOM     69  C34 non d ame      -9.498   6.464  72.650  0.00  0.00    -0.075 A 
ATOM     70  H52 non d ame      -7.380   6.710  72.973  0.00  0.00     0.083 H 
ATOM     71  H53 non d ame      -9.772   7.281  73.320  0.00  0.00     0.084 H 
ENDBRANCH  58  61
ENDBRANCH  57  58
ENDBRANCH  55  57
ENDBRANCH  52  55
ENDBRANCH  49  52
ENDBRANCH  47  49
BRANCH  47  72
ATOM     72  C24 non d ame      -9.764   9.396  68.390  0.00  0.00    -0.039 C 
ATOM     73  H35 non d ame      -9.953   9.862  67.423  0.00  0.00     0.036 H 
ATOM     74  H36 non d ame      -8.804   9.540  68.886  0.00  0.00     0.036 H 
BRANCH  72  75
ATOM     75  C25 non d ame      -9.964   7.817  68.200  0.00  0.00    -0.001 C 
ATOM     76  C26 non d ame      -8.561   7.030  68.539  0.00  0.00    -0.035 C 
ATOM     77  C27 non d ame      -8.265   6.201  67.509  0.00  0.00     0.085 C 
ATOM     78  H38 non d ame      -7.730   7.734  68.545  0.00  0.00     0.036 H 
ATOM     79  H39 non d ame      -8.707   6.351  69.379  0.00  0.00     0.036 H 
ATOM     80  N5  non d ame      -9.161   6.590  66.358  0.00  0.00    -0.049 N 
ATOM     81  H40 non d ame      -7.231   6.421  67.245  0.00  0.00     0.075 H 
ATOM     82  H41 non d ame      -8.541   5.203  67.851  0.00  0.00     0.075 H 
ATOM     83  C28 non d ame     -10.311   7.533  66.988  0.00  0.00     0.193 C 
ATOM     84  H42 non d ame      -8.597   7.147  65.732  0.00  0.00     0.280 HD
ATOM     85  H43 non d ame      -9.590   5.738  66.028  0.00  0.00     0.280 HD
ATOM     86  H44 non d ame     -11.315   7.144  67.155  0.00  0.00     0.129 H 
ATOM     87  H37 non d ame     -10.868   7.454  68.689  0.00  0.00     0.046 H 
BRANCH  83  88
ATOM     88  O6  non d ame     -10.482   8.703  66.187  0.00  0.00    -0.369 OA
ATOM     89  H45 non d ame     -10.503   9.478  66.753  0.00  0.00     0.212 HD
ENDBRANCH  83  88
ENDBRANCH  72  75
ENDBRANCH  47  72
ENDBRANCH  45  47
ENDBRANCH   1  43
BRANCH   1  90
ATOM     90  C16 non d ame     -12.357  14.606  70.117  0.00  0.00    -0.035 C 
ATOM     91  H21 non d ame     -12.275  15.672  69.908  0.00  0.00     0.037 H 
ATOM     92  H22 non d ame     -13.235  14.052  69.788  0.00  0.00     0.037 H 
BRANCH  90  93
ATOM     93  C17 non d ame     -12.294  14.454  71.670  0.00  0.00    -0.059 C 
ATOM     94  H23 non d ame     -11.390  13.896  71.912  0.00  0.00     0.038 H 
BRANCH  93  95
ATOM     95  C18 non d ame     -12.209  15.835  72.395  0.00  0.00    -0.073 C 
ATOM     96  H24 non d ame     -12.020  16.619  71.661  0.00  0.00     0.028 H 
ATOM     97  H25 non d ame     -13.151  16.036  72.905  0.00  0.00     0.028 H 
ATOM     98  H26 non d ame     -11.399  15.815  73.123  0.00  0.00     0.028 H 
ENDBRANCH  93  95
BRANCH  93  99
ATOM     99  C19 non d ame     -13.482  13.639  72.188  0.00  0.00    -0.073 C 
ATOM    100  H27 non d ame     -13.752  13.984  73.186  0.00  0.00     0.028 H 
ATOM    101  H28 non d ame     -14.331  13.768  71.516  0.00  0.00     0.028 H 
ATOM    102  H29 non d ame     -13.209  12.585  72.230  0.00  0.00     0.028 H 
ENDBRANCH  93  99
ENDBRANCH  90  93
ENDBRANCH   1  90
TORSDOF 26
ENDMDL
