MODEL 1
REMARK VINA RESULT:      -7.0      0.000      0.000
REMARK  26 active torsions:
REMARK  status: ('A' for Active; 'I' for Inactive)
REMARK    1  A    between atoms: C2_2  and  C3_3 
REMARK    2  A    between atoms: C4_6  and  C5_7 
REMARK       I    between atoms: C5_7  and  N2_9 
REMARK    3  A    between atoms: N2_9  and  C6_10 
REMARK    4  A    between atoms: C6_10  and  C7_11 
REMARK    5  A    between atoms: C6_10  and  C8_13 
REMARK       I    between atoms: C7_11  and  N3_14 
REMARK    6  A    between atoms: N3_14  and  C9_15 
REMARK    7  A    between atoms: C9_15  and  C10_16 
REMARK    8  A    between atoms: C9_15  and  C11_18 
REMARK       I    between atoms: C10_16  and  N4_21 
REMARK    9  A    between atoms: C11_18  and  C12_19 
REMARK   10  A    between atoms: C11_18  and  C13_20 
REMARK   11  A    between atoms: N4_21  and  C14_22 
REMARK   12  A    between atoms: C14_22  and  C15_23 
REMARK   13  A    between atoms: C14_22  and  C16_25 
REMARK       I    between atoms: C15_23  and  N6_40 
REMARK   14  A    between atoms: C16_25  and  C17_26 
REMARK   15  A    between atoms: C17_26  and  C18_27 
REMARK   16  A    between atoms: C17_26  and  C19_28 
REMARK   17  A    between atoms: C20_29  and  C21_30 
REMARK   18  A    between atoms: C20_29  and  C24_33 
REMARK   19  A    between atoms: C20_29  and  N6_40 
REMARK   20  A    between atoms: C21_30  and  C22_31 
REMARK   21  A    between atoms: C22_31  and  C23_32 
REMARK   22  A    between atoms: C23_32  and  O8_43 
REMARK   23  A    between atoms: C24_33  and  C25_34 
REMARK   24  A    between atoms: C28_38  and  O6_39 
REMARK   25  A    between atoms: C29_42  and  O8_43 
REMARK   26  A    between atoms: C29_42  and  C35_49 
ROOT
ATOM      1  C14 non d ame     -10.695   9.656  69.654  0.00  0.00     0.089 C 
ATOM      2  H20 non d ame     -11.081   8.774  69.143  0.00  0.00     0.087 H 
ENDROOT
BRANCH   1   3
ATOM      3  N4  non d ame      -9.348   9.895  69.159  0.00  0.00    -0.346 N 
ATOM      4  C10 non d ame      -8.494   8.745  68.688  0.00  0.00     0.241 C 
ATOM      5  O4  non d ame      -8.912   7.634  68.720  0.00  0.00    -0.271 OA
ATOM      6  H19 non d ame      -9.009  10.848  69.142  0.00  0.00     0.163 HD
BRANCH   4   7
ATOM      7  C9  non d ame      -7.104   9.011  68.173  0.00  0.00     0.092 C 
ATOM      8  H11 non d ame      -6.595   8.062  68.007  0.00  0.00     0.088 H 
BRANCH   7   9
ATOM      9  N3  non d ame      -7.184   9.691  66.877  0.00  0.00    -0.346 N 
ATOM     10  C7  non d ame      -6.819   8.990  65.671  0.00  0.00     0.240 C 
ATOM     11  O3  non d ame      -6.457   7.878  65.725  0.00  0.00    -0.271 OA
ATOM     12  H10 non d ame      -7.493  10.650  66.814  0.00  0.00     0.163 HD
BRANCH  10  13
ATOM     13  C6  non d ame      -6.904   9.720  64.295  0.00  0.00     0.086 C 
ATOM     14  H6  non d ame      -7.147   9.046  63.473  0.00  0.00     0.086 H 
BRANCH  13  15
ATOM     15  N2  non d ame      -7.968  10.708  64.350  0.00  0.00    -0.343 N 
ATOM     16  C5  non d ame      -9.211  10.472  63.612  0.00  0.00     0.273 C 
ATOM     17  O2  non d ame      -9.343   9.485  62.975  0.00  0.00    -0.266 OA
ATOM     18  H5  non d ame      -7.846  11.549  64.895  0.00  0.00     0.163 HD
BRANCH  16  19
ATOM     19  C4  non d ame     -10.346  11.507  63.664  0.00  0.00     0.154 A 
ATOM     20  C1  non d ame     -10.340  12.762  64.350  0.00  0.00    -0.017 A 
ATOM     21  C2  non d ame     -11.607  13.327  64.086  0.00  0.00     0.077 A 
ATOM     22  H1  non d ame      -9.539  13.197  64.949  0.00  0.00     0.091 H 
ATOM     23  O1  non d ame     -12.257  12.488  63.333  0.00  0.00    -0.218 OA
ATOM     24  N1  non d ame     -11.541  11.417  63.074  0.00  0.00    -0.123 NA
BRANCH  21  25
ATOM     25  C3  non d ame     -12.117  14.671  64.587  0.00  0.00    -0.029 C 
ATOM     26  H2  non d ame     -11.335  15.424  64.473  0.00  0.00     0.036 H 
ATOM     27  H3  non d ame     -12.992  14.967  64.008  0.00  0.00     0.036 H 
ATOM     28  H4  non d ame     -12.390  14.588  65.640  0.00  0.00     0.036 H 
ENDBRANCH  21  25
ENDBRANCH  16  19
ENDBRANCH  13  15
BRANCH  13  29
ATOM     29  C8  non d ame      -5.589  10.394  63.998  0.00  0.00    -0.049 C 
ATOM     30  H7  non d ame      -5.685  11.468  64.162  0.00  0.00     0.030 H 
ATOM     31  H8  non d ame      -4.818   9.994  64.659  0.00  0.00     0.030 H 
ATOM     32  H9  non d ame      -5.311  10.209  62.962  0.00  0.00     0.030 H 
ENDBRANCH  13  29
ENDBRANCH  10  13
ENDBRANCH   7   9
BRANCH   7  33
ATOM     33  C11 non d ame      -6.340   9.916  69.184  0.00  0.00    -0.033 C 
ATOM     34  H12 non d ame      -7.034  10.173  69.984  0.00  0.00     0.042 H 
BRANCH  33  35
ATOM     35  C12 non d ame      -5.139   9.157  69.831  0.00  0.00    -0.071 C 
ATOM     36  H13 non d ame      -4.223   9.726  69.672  0.00  0.00     0.028 H 
ATOM     37  H14 non d ame      -5.315   9.044  70.900  0.00  0.00     0.028 H 
ATOM     38  H15 non d ame      -5.042   8.174  69.372  0.00  0.00     0.028 H 
ENDBRANCH  33  35
BRANCH  33  39
ATOM     39  C13 non d ame      -5.872  11.242  68.504  0.00  0.00    -0.071 C 
ATOM     40  H16 non d ame      -4.935  11.069  67.977  0.00  0.00     0.028 H 
ATOM     41  H17 non d ame      -6.632  11.577  67.797  0.00  0.00     0.028 H 
ATOM     42  H18 non d ame      -5.724  12.007  69.267  0.00  0.00     0.028 H 
ENDBRANCH  33  39
ENDBRANCH   7  33
ENDBRANCH   4   7
ENDBRANCH   1   3
BRANCH   1  43
ATOM     43  C15 non d ame     -11.556  10.921  69.376  0.00  0.00     0.240 C 
ATOM     44  O5  non d ame     -12.241  10.969  68.404  0.00  0.00    -0.271 OA
ATOM     45  N6  non d ame     -11.536  12.070  70.326  0.00  0.00    -0.355 N 
ATOM     46  H46 non d ame     -10.963  12.039  71.156  0.00  0.00     0.162 HD
BRANCH  45  47
ATOM     47  C20 non d ame     -12.362  13.265  70.048  0.00  0.00     0.013 C 
ATOM     48  H30 non d ame     -13.046  13.018  69.235  0.00  0.00     0.072 H 
BRANCH  47  49
ATOM     49  C21 non d ame     -11.464  14.410  69.637  0.00  0.00    -0.038 C 
ATOM     50  H31 non d ame     -12.042  15.317  69.815  0.00  0.00     0.036 H 
ATOM     51  H32 non d ame     -10.523  14.249  70.166  0.00  0.00     0.036 H 
BRANCH  49  52
ATOM     52  C22 non d ame     -11.125  14.395  68.131  0.00  0.00     0.018 C 
ATOM     53  H33 non d ame     -11.746  13.611  67.695  0.00  0.00     0.048 H 
ATOM     54  H34 non d ame     -11.232  15.426  67.794  0.00  0.00     0.048 H 
BRANCH  52  55
ATOM     55  C23 non d ame      -9.655  13.994  67.825  0.00  0.00     0.259 C 
ATOM     56  O7  non d ame      -9.210  12.973  68.239  0.00  0.00    -0.265 OA
BRANCH  55  57
ATOM     57  O8  non d ame      -8.840  14.869  67.054  0.00  0.00    -0.317 OA
BRANCH  57  58
ATOM     58  C29 non d ame      -8.249  15.931  67.808  0.00  0.00     0.052 C 
ATOM     59  H47 non d ame      -8.374  15.656  68.855  0.00  0.00     0.082 H 
ATOM     60  H48 non d ame      -7.248  16.064  67.396  0.00  0.00     0.082 H 
BRANCH  58  61
ATOM     61  C35 non d ame      -9.066  17.222  67.539  0.00  0.00    -0.034 A 
ATOM     62  C30 non d ame      -9.149  18.211  68.514  0.00  0.00    -0.075 A 
ATOM     63  C31 non d ame      -9.883  19.370  68.272  0.00  0.00    -0.082 A 
ATOM     64  H49 non d ame      -8.638  18.077  69.467  0.00  0.00     0.084 H 
ATOM     65  C32 non d ame     -10.539  19.539  67.049  0.00  0.00    -0.083 A 
ATOM     66  H50 non d ame      -9.944  20.144  69.037  0.00  0.00     0.083 H 
ATOM     67  C33 non d ame     -10.457  18.548  66.080  0.00  0.00    -0.082 A 
ATOM     68  H51 non d ame     -11.116  20.442  66.852  0.00  0.00     0.083 H 
ATOM     69  C34 non d ame      -9.722  17.388  66.317  0.00  0.00    -0.075 A 
ATOM     70  H52 non d ame     -10.972  18.681  65.128  0.00  0.00     0.083 H 
ATOM     71  H53 non d ame      -9.661  16.615  65.550  0.00  0.00     0.084 H 
ENDBRANCH  58  61
ENDBRANCH  57  58
ENDBRANCH  55  57
ENDBRANCH  52  55
ENDBRANCH  49  52
ENDBRANCH  47  49
BRANCH  47  72
ATOM     72  C24 non d ame     -13.144  13.654  71.300  0.00  0.00    -0.039 C 
ATOM     73  H35 non d ame     -14.169  13.814  70.965  0.00  0.00     0.036 H 
ATOM     74  H36 non d ame     -12.926  12.877  72.033  0.00  0.00     0.036 H 
BRANCH  72  75
ATOM     75  C25 non d ame     -12.626  15.040  71.915  0.00  0.00    -0.001 C 
ATOM     76  C26 non d ame     -11.937  14.779  73.385  0.00  0.00    -0.035 C 
ATOM     77  C27 non d ame     -12.489  15.628  74.283  0.00  0.00     0.085 C 
ATOM     78  H38 non d ame     -12.218  13.795  73.759  0.00  0.00     0.036 H 
ATOM     79  H39 non d ame     -10.888  15.075  73.364  0.00  0.00     0.036 H 
ATOM     80  N5  non d ame     -13.718  16.219  73.636  0.00  0.00    -0.049 N 
ATOM     81  H40 non d ame     -12.795  15.006  75.125  0.00  0.00     0.075 H 
ATOM     82  H41 non d ame     -11.751  16.418  74.429  0.00  0.00     0.075 H 
ATOM     83  C28 non d ame     -13.598  15.878  72.062  0.00  0.00     0.193 C 
ATOM     84  H42 non d ame     -14.510  15.718  74.014  0.00  0.00     0.280 HD
ATOM     85  H43 non d ame     -13.652  17.220  73.754  0.00  0.00     0.280 HD
ATOM     86  H44 non d ame     -13.305  16.650  71.349  0.00  0.00     0.129 H 
ATOM     87  H37 non d ame     -12.052  15.623  71.195  0.00  0.00     0.046 H 
BRANCH  83  88
ATOM     88  O6  non d ame     -14.837  15.359  71.575  0.00  0.00    -0.369 OA
ATOM     89  H45 non d ame     -15.560  15.898  71.902  0.00  0.00     0.212 HD
ENDBRANCH  83  88
ENDBRANCH  72  75
ENDBRANCH  47  72
ENDBRANCH  45  47
ENDBRANCH   1  43
BRANCH   1  90
ATOM     90  C16 non d ame     -10.635   9.397  71.152  0.00  0.00    -0.035 C 
ATOM     91  H21 non d ame      -9.662   8.936  71.326  0.00  0.00     0.037 H 
ATOM     92  H22 non d ame     -10.877  10.351  71.619  0.00  0.00     0.037 H 
BRANCH  90  93
ATOM     93  C17 non d ame     -11.703   8.375  71.654  0.00  0.00    -0.059 C 
ATOM     94  H23 non d ame     -11.982   7.746  70.808  0.00  0.00     0.038 H 
BRANCH  93  95
ATOM     95  C18 non d ame     -11.148   7.445  72.778  0.00  0.00    -0.073 C 
ATOM     96  H24 non d ame     -10.061   7.526  72.813  0.00  0.00     0.028 H 
ATOM     97  H25 non d ame     -11.564   7.747  73.739  0.00  0.00     0.028 H 
ATOM     98  H26 non d ame     -11.429   6.413  72.569  0.00  0.00     0.028 H 
ENDBRANCH  93  95
BRANCH  93  99
ATOM     99  C19 non d ame     -12.972   9.096  72.120  0.00  0.00    -0.073 C 
ATOM    100  H27 non d ame     -13.847   8.527  71.808  0.00  0.00     0.028 H 
ATOM    101  H28 non d ame     -12.962   9.182  73.206  0.00  0.00     0.028 H 
ATOM    102  H29 non d ame     -13.008  10.090  71.676  0.00  0.00     0.028 H 
ENDBRANCH  93  99
ENDBRANCH  90  93
ENDBRANCH   1  90
TORSDOF 26
ENDMDL
MODEL 2
REMARK VINA RESULT:      -6.8      3.323      7.907
REMARK  26 active torsions:
REMARK  status: ('A' for Active; 'I' for Inactive)
REMARK    1  A    between atoms: C2_2  and  C3_3 
REMARK    2  A    between atoms: C4_6  and  C5_7 
REMARK       I    between atoms: C5_7  and  N2_9 
REMARK    3  A    between atoms: N2_9  and  C6_10 
REMARK    4  A    between atoms: C6_10  and  C7_11 
REMARK    5  A    between atoms: C6_10  and  C8_13 
REMARK       I    between atoms: C7_11  and  N3_14 
REMARK    6  A    between atoms: N3_14  and  C9_15 
REMARK    7  A    between atoms: C9_15  and  C10_16 
REMARK    8  A    between atoms: C9_15  and  C11_18 
REMARK       I    between atoms: C10_16  and  N4_21 
REMARK    9  A    between atoms: C11_18  and  C12_19 
REMARK   10  A    between atoms: C11_18  and  C13_20 
REMARK   11  A    between atoms: N4_21  and  C14_22 
REMARK   12  A    between atoms: C14_22  and  C15_23 
REMARK   13  A    between atoms: C14_22  and  C16_25 
REMARK       I    between atoms: C15_23  and  N6_40 
REMARK   14  A    between atoms: C16_25  and  C17_26 
REMARK   15  A    between atoms: C17_26  and  C18_27 
REMARK   16  A    between atoms: C17_26  and  C19_28 
REMARK   17  A    between atoms: C20_29  and  C21_30 
REMARK   18  A    between atoms: C20_29  and  C24_33 
REMARK   19  A    between atoms: C20_29  and  N6_40 
REMARK   20  A    between atoms: C21_30  and  C22_31 
REMARK   21  A    between atoms: C22_31  and  C23_32 
REMARK   22  A    between atoms: C23_32  and  O8_43 
REMARK   23  A    between atoms: C24_33  and  C25_34 
REMARK   24  A    between atoms: C28_38  and  O6_39 
REMARK   25  A    between atoms: C29_42  and  O8_43 
REMARK   26  A    between atoms: C29_42  and  C35_49 
ROOT
ATOM      1  C14 non d ame     -11.834  14.085  69.942  0.00  0.00     0.089 C 
ATOM      2  H20 non d ame     -12.842  14.014  69.534  0.00  0.00     0.087 H 
ENDROOT
BRANCH   1   3
ATOM      3  N4  non d ame     -11.286  12.738  69.995  0.00  0.00    -0.346 N 
ATOM      4  C10 non d ame     -11.455  11.800  68.826  0.00  0.00     0.241 C 
ATOM      5  O4  non d ame     -12.039  12.153  67.854  0.00  0.00    -0.271 OA
ATOM      6  H19 non d ame     -10.795  12.457  70.832  0.00  0.00     0.163 HD
BRANCH   4   7
ATOM      7  C9  non d ame     -10.877  10.412  68.895  0.00  0.00     0.092 C 
ATOM      8  H11 non d ame      -9.994  10.422  69.535  0.00  0.00     0.088 H 
BRANCH   7   9
ATOM      9  N3  non d ame     -11.850   9.507  69.515  0.00  0.00    -0.346 N 
ATOM     10  C7  non d ame     -11.766   9.214  70.924  0.00  0.00     0.240 C 
ATOM     11  O3  non d ame     -10.920   9.696  71.575  0.00  0.00    -0.271 OA
ATOM     12  H10 non d ame     -12.583   9.082  68.966  0.00  0.00     0.163 HD
BRANCH  10  13
ATOM     13  C6  non d ame     -12.802   8.248  71.577  0.00  0.00     0.086 C 
ATOM     14  H6  non d ame     -13.303   7.611  70.848  0.00  0.00     0.086 H 
BRANCH  13  15
ATOM     15  N2  non d ame     -12.106   7.361  72.495  0.00  0.00    -0.343 N 
ATOM     16  C5  non d ame     -11.401   6.189  71.970  0.00  0.00     0.273 C 
ATOM     17  O2  non d ame     -11.402   5.968  70.810  0.00  0.00    -0.266 OA
ATOM     18  H5  non d ame     -12.112   7.557  73.486  0.00  0.00     0.163 HD
BRANCH  16  19
ATOM     19  C4  non d ame     -10.659   5.245  72.929  0.00  0.00     0.154 A 
ATOM     20  C1  non d ame     -11.157   4.034  73.506  0.00  0.00    -0.017 A 
ATOM     21  C2  non d ame     -10.096   3.548  74.304  0.00  0.00     0.077 A 
ATOM     22  H1  non d ame     -12.137   3.576  73.368  0.00  0.00     0.091 H 
ATOM     23  O1  non d ame      -9.109   4.389  74.189  0.00  0.00    -0.218 OA
ATOM     24  N1  non d ame      -9.415   5.387  73.393  0.00  0.00    -0.123 NA
BRANCH  21  25
ATOM     25  C3  non d ame     -10.107   2.276  75.140  0.00  0.00    -0.029 C 
ATOM     26  H2  non d ame     -10.809   2.389  75.967  0.00  0.00     0.036 H 
ATOM     27  H3  non d ame     -10.411   1.435  74.517  0.00  0.00     0.036 H 
ATOM     28  H4  non d ame      -9.107   2.092  75.536  0.00  0.00     0.036 H 
ENDBRANCH  21  25
ENDBRANCH  16  19
ENDBRANCH  13  15
BRANCH  13  29
ATOM     29  C8  non d ame     -13.841   9.048  72.321  0.00  0.00    -0.049 C 
ATOM     30  H7  non d ame     -13.412   9.428  73.248  0.00  0.00     0.030 H 
ATOM     31  H8  non d ame     -14.167   9.884  71.701  0.00  0.00     0.030 H 
ATOM     32  H9  non d ame     -14.694   8.411  72.551  0.00  0.00     0.030 H 
ENDBRANCH  13  29
ENDBRANCH  10  13
ENDBRANCH   7   9
BRANCH   7  33
ATOM     33  C11 non d ame     -10.551   9.913  67.456  0.00  0.00    -0.033 C 
ATOM     34  H12 non d ame     -11.310  10.321  66.788  0.00  0.00     0.042 H 
BRANCH  33  35
ATOM     35  C12 non d ame      -9.165  10.441  66.972  0.00  0.00    -0.071 C 
ATOM     36  H13 non d ame      -9.275  10.900  65.989  0.00  0.00     0.028 H 
ATOM     37  H14 non d ame      -8.791  11.181  67.678  0.00  0.00     0.028 H 
ATOM     38  H15 non d ame      -8.462   9.611  66.910  0.00  0.00     0.028 H 
ENDBRANCH  33  35
BRANCH  33  39
ATOM     39  C13 non d ame     -10.623   8.354  67.376  0.00  0.00    -0.071 C 
ATOM     40  H16 non d ame     -11.117   8.061  66.450  0.00  0.00     0.028 H 
ATOM     41  H17 non d ame      -9.615   7.942  67.397  0.00  0.00     0.028 H 
ATOM     42  H18 non d ame     -11.190   7.974  68.226  0.00  0.00     0.028 H 
ENDBRANCH  33  39
ENDBRANCH   7  33
ENDBRANCH   4   7
ENDBRANCH   1   3
BRANCH   1  43
ATOM     43  C15 non d ame     -10.903  14.964  69.059  0.00  0.00     0.240 C 
ATOM     44  O5  non d ame      -9.884  15.382  69.508  0.00  0.00    -0.271 OA
ATOM     45  N6  non d ame     -11.276  15.278  67.651  0.00  0.00    -0.355 N 
ATOM     46  H46 non d ame     -12.137  14.926  67.257  0.00  0.00     0.162 HD
BRANCH  45  47
ATOM     47  C20 non d ame     -10.379  16.115  66.824  0.00  0.00     0.013 C 
ATOM     48  H30 non d ame      -9.380  16.064  67.257  0.00  0.00     0.072 H 
BRANCH  47  49
ATOM     49  C21 non d ame     -10.875  17.543  66.836  0.00  0.00    -0.038 C 
ATOM     50  H31 non d ame     -10.790  17.893  65.807  0.00  0.00     0.036 H 
ATOM     51  H32 non d ame     -11.851  17.511  67.323  0.00  0.00     0.036 H 
BRANCH  49  52
ATOM     52  C22 non d ame      -9.992  18.477  67.691  0.00  0.00     0.018 C 
ATOM     53  H33 non d ame     -10.623  18.806  68.518  0.00  0.00     0.048 H 
ATOM     54  H34 non d ame      -9.078  17.917  67.892  0.00  0.00     0.048 H 
BRANCH  52  55
ATOM     55  C23 non d ame      -9.550  19.770  66.951  0.00  0.00     0.259 C 
ATOM     56  O7  non d ame     -10.152  20.158  66.004  0.00  0.00    -0.265 OA
BRANCH  55  57
ATOM     57  O8  non d ame      -8.406  20.480  67.411  0.00  0.00    -0.317 OA
BRANCH  57  58
ATOM     58  C29 non d ame      -7.219  19.685  67.491  0.00  0.00     0.052 C 
ATOM     59  H47 non d ame      -6.771  19.920  68.455  0.00  0.00     0.082 H 
ATOM     60  H48 non d ame      -7.533  18.664  67.271  0.00  0.00     0.082 H 
BRANCH  58  61
ATOM     61  C35 non d ame      -6.252  20.153  66.371  0.00  0.00    -0.034 A 
ATOM     62  C30 non d ame      -5.150  20.940  66.687  0.00  0.00    -0.075 A 
ATOM     63  C31 non d ame      -4.282  21.361  65.681  0.00  0.00    -0.082 A 
ATOM     64  H49 non d ame      -4.967  21.228  67.722  0.00  0.00     0.084 H 
ATOM     65  C32 non d ame      -4.520  20.993  64.354  0.00  0.00    -0.083 A 
ATOM     66  H50 non d ame      -3.418  21.977  65.932  0.00  0.00     0.083 H 
ATOM     67  C33 non d ame      -5.623  20.210  64.043  0.00  0.00    -0.082 A 
ATOM     68  H51 non d ame      -3.846  21.318  63.562  0.00  0.00     0.083 H 
ATOM     69  C34 non d ame      -6.492  19.785  65.046  0.00  0.00    -0.075 A 
ATOM     70  H52 non d ame      -5.807  19.926  63.006  0.00  0.00     0.083 H 
ATOM     71  H53 non d ame      -7.356  19.168  64.793  0.00  0.00     0.084 H 
ENDBRANCH  58  61
ENDBRANCH  57  58
ENDBRANCH  55  57
ENDBRANCH  52  55
ENDBRANCH  49  52
ENDBRANCH  47  49
BRANCH  47  72
ATOM     72  C24 non d ame     -10.364  15.592  65.390  0.00  0.00    -0.039 C 
ATOM     73  H35 non d ame     -10.723  16.418  64.775  0.00  0.00     0.036 H 
ATOM     74  H36 non d ame      -9.360  15.196  65.235  0.00  0.00     0.036 H 
BRANCH  72  75
ATOM     75  C25 non d ame     -11.387  14.375  65.191  0.00  0.00    -0.001 C 
ATOM     76  C26 non d ame     -10.569  13.022  64.739  0.00  0.00    -0.035 C 
ATOM     77  C27 non d ame     -11.154  12.508  63.631  0.00  0.00     0.085 C 
ATOM     78  H38 non d ame      -9.568  13.288  64.398  0.00  0.00     0.036 H 
ATOM     79  H39 non d ame     -10.701  12.238  65.485  0.00  0.00     0.036 H 
ATOM     80  N5  non d ame     -12.092  13.563  63.097  0.00  0.00    -0.049 N 
ATOM     81  H40 non d ame     -10.344  12.358  62.916  0.00  0.00     0.075 H 
ATOM     82  H41 non d ame     -11.739  11.657  63.979  0.00  0.00     0.075 H 
ATOM     83  C28 non d ame     -12.264  14.646  64.282  0.00  0.00     0.193 C 
ATOM     84  H42 non d ame     -11.616  14.005  62.324  0.00  0.00     0.280 HD
ATOM     85  H43 non d ame     -12.981  13.107  62.947  0.00  0.00     0.280 HD
ATOM     86  H44 non d ame     -13.173  14.669  64.883  0.00  0.00     0.129 H 
ATOM     87  H37 non d ame     -12.081  14.280  66.025  0.00  0.00     0.046 H 
BRANCH  83  88
ATOM     88  O6  non d ame     -12.114  15.969  63.765  0.00  0.00    -0.369 OA
ATOM     89  H45 non d ame     -11.473  15.963  63.051  0.00  0.00     0.212 HD
ENDBRANCH  83  88
ENDBRANCH  72  75
ENDBRANCH  47  72
ENDBRANCH  45  47
ENDBRANCH   1  43
BRANCH   1  90
ATOM     90  C16 non d ame     -11.889  14.654  71.352  0.00  0.00    -0.035 C 
ATOM     91  H21 non d ame     -11.399  13.912  71.982  0.00  0.00     0.037 H 
ATOM     92  H22 non d ame     -11.476  15.659  71.273  0.00  0.00     0.037 H 
BRANCH  90  93
ATOM     93  C17 non d ame     -13.340  14.814  71.906  0.00  0.00    -0.059 C 
ATOM     94  H23 non d ame     -13.957  15.222  71.106  0.00  0.00     0.038 H 
BRANCH  93  95
ATOM     95  C18 non d ame     -13.961  13.448  72.338  0.00  0.00    -0.073 C 
ATOM     96  H24 non d ame     -13.314  12.634  72.009  0.00  0.00     0.028 H 
ATOM     97  H25 non d ame     -14.056  13.419  73.423  0.00  0.00     0.028 H 
ATOM     98  H26 non d ame     -14.945  13.336  71.885  0.00  0.00     0.028 H 
ENDBRANCH  93  95
BRANCH  93  99
ATOM     99  C19 non d ame     -13.375  15.818  73.062  0.00  0.00    -0.073 C 
ATOM    100  H27 non d ame     -13.754  16.774  72.700  0.00  0.00     0.028 H 
ATOM    101  H28 non d ame     -14.028  15.443  73.850  0.00  0.00     0.028 H 
ATOM    102  H29 non d ame     -12.369  15.953  73.457  0.00  0.00     0.028 H 
ENDBRANCH  93  99
ENDBRANCH  90  93
ENDBRANCH   1  90
TORSDOF 26
ENDMDL
MODEL 3
REMARK VINA RESULT:      -6.7      2.441      6.439
REMARK  26 active torsions:
REMARK  status: ('A' for Active; 'I' for Inactive)
REMARK    1  A    between atoms: C2_2  and  C3_3 
REMARK    2  A    between atoms: C4_6  and  C5_7 
REMARK       I    between atoms: C5_7  and  N2_9 
REMARK    3  A    between atoms: N2_9  and  C6_10 
REMARK    4  A    between atoms: C6_10  and  C7_11 
REMARK    5  A    between atoms: C6_10  and  C8_13 
REMARK       I    between atoms: C7_11  and  N3_14 
REMARK    6  A    between atoms: N3_14  and  C9_15 
REMARK    7  A    between atoms: C9_15  and  C10_16 
REMARK    8  A    between atoms: C9_15  and  C11_18 
REMARK       I    between atoms: C10_16  and  N4_21 
REMARK    9  A    between atoms: C11_18  and  C12_19 
REMARK   10  A    between atoms: C11_18  and  C13_20 
REMARK   11  A    between atoms: N4_21  and  C14_22 
REMARK   12  A    between atoms: C14_22  and  C15_23 
REMARK   13  A    between atoms: C14_22  and  C16_25 
REMARK       I    between atoms: C15_23  and  N6_40 
REMARK   14  A    between atoms: C16_25  and  C17_26 
REMARK   15  A    between atoms: C17_26  and  C18_27 
REMARK   16  A    between atoms: C17_26  and  C19_28 
REMARK   17  A    between atoms: C20_29  and  C21_30 
REMARK   18  A    between atoms: C20_29  and  C24_33 
REMARK   19  A    between atoms: C20_29  and  N6_40 
REMARK   20  A    between atoms: C21_30  and  C22_31 
REMARK   21  A    between atoms: C22_31  and  C23_32 
REMARK   22  A    between atoms: C23_32  and  O8_43 
REMARK   23  A    between atoms: C24_33  and  C25_34 
REMARK   24  A    between atoms: C28_38  and  O6_39 
REMARK   25  A    between atoms: C29_42  and  O8_43 
REMARK   26  A    between atoms: C29_42  and  C35_49 
ROOT
ATOM      1  C14 non d ame     -11.772  14.533  70.038  0.00  0.00     0.089 C 
ATOM      2  H20 non d ame     -12.774  14.615  69.616  0.00  0.00     0.087 H 
ENDROOT
BRANCH   1   3
ATOM      3  N4  non d ame     -11.488  13.118  70.223  0.00  0.00    -0.346 N 
ATOM      4  C10 non d ame     -11.740  12.138  69.105  0.00  0.00     0.241 C 
ATOM      5  O4  non d ame     -12.174  12.512  68.065  0.00  0.00    -0.271 OA
ATOM      6  H19 non d ame     -11.122  12.820  71.117  0.00  0.00     0.163 HD
BRANCH   4   7
ATOM      7  C9  non d ame     -11.435  10.678  69.312  0.00  0.00     0.092 C 
ATOM      8  H11 non d ame     -12.075  10.082  68.661  0.00  0.00     0.088 H 
BRANCH   7   9
ATOM      9  N3  non d ame     -10.049  10.407  68.920  0.00  0.00    -0.346 N 
ATOM     10  C7  non d ame      -9.763   9.832  67.629  0.00  0.00     0.240 C 
ATOM     11  O3  non d ame     -10.638   9.579  66.893  0.00  0.00    -0.271 OA
ATOM     12  H10 non d ame      -9.284  10.618  69.545  0.00  0.00     0.163 HD
BRANCH  10  13
ATOM     13  C6  non d ame      -8.286   9.543  67.219  0.00  0.00     0.086 C 
ATOM     14  H6  non d ame      -8.003  10.030  66.286  0.00  0.00     0.086 H 
BRANCH  13  15
ATOM     15  N2  non d ame      -7.401  10.068  68.246  0.00  0.00    -0.343 N 
ATOM     16  C5  non d ame      -6.446  11.124  67.903  0.00  0.00     0.273 C 
ATOM     17  O2  non d ame      -6.396  11.542  66.799  0.00  0.00    -0.266 OA
ATOM     18  H5  non d ame      -7.449   9.704  69.187  0.00  0.00     0.163 HD
BRANCH  16  19
ATOM     19  C4  non d ame      -5.506  11.691  68.979  0.00  0.00     0.154 A 
ATOM     20  C1  non d ame      -5.826  11.972  70.346  0.00  0.00    -0.017 A 
ATOM     21  C2  non d ame      -4.628  12.471  70.904  0.00  0.00     0.077 A 
ATOM     22  H1  non d ame      -6.781  11.835  70.854  0.00  0.00     0.091 H 
ATOM     23  O1  non d ame      -3.731  12.471  69.961  0.00  0.00    -0.218 OA
ATOM     24  N1  non d ame      -4.220  12.021  68.829  0.00  0.00    -0.123 NA
BRANCH  21  25
ATOM     25  C3  non d ame      -4.425  12.923  72.344  0.00  0.00    -0.029 C 
ATOM     26  H2  non d ame      -3.363  12.883  72.592  0.00  0.00     0.036 H 
ATOM     27  H3  non d ame      -4.786  13.945  72.458  0.00  0.00     0.036 H 
ATOM     28  H4  non d ame      -4.979  12.266  73.014  0.00  0.00     0.036 H 
ENDBRANCH  21  25
ENDBRANCH  16  19
ENDBRANCH  13  15
BRANCH  13  29
ATOM     29  C8  non d ame      -8.082   8.056  67.075  0.00  0.00    -0.049 C 
ATOM     30  H7  non d ame      -7.236   7.743  67.686  0.00  0.00     0.030 H 
ATOM     31  H8  non d ame      -8.981   7.533  67.404  0.00  0.00     0.030 H 
ATOM     32  H9  non d ame      -7.884   7.817  66.031  0.00  0.00     0.030 H 
ENDBRANCH  13  29
ENDBRANCH  10  13
ENDBRANCH   7   9
BRANCH   7  33
ATOM     33  C11 non d ame     -11.627  10.315  70.814  0.00  0.00    -0.033 C 
ATOM     34  H12 non d ame     -11.330  11.183  71.402  0.00  0.00     0.042 H 
BRANCH  33  35
ATOM     35  C12 non d ame     -13.124  10.018  71.140  0.00  0.00    -0.071 C 
ATOM     36  H13 non d ame     -13.612   9.600  70.259  0.00  0.00     0.028 H 
ATOM     37  H14 non d ame     -13.183   9.303  71.960  0.00  0.00     0.028 H 
ATOM     38  H15 non d ame     -13.623  10.943  71.428  0.00  0.00     0.028 H 
ENDBRANCH  33  35
BRANCH  33  39
ATOM     39  C13 non d ame     -10.710   9.118  71.222  0.00  0.00    -0.071 C 
ATOM     40  H16 non d ame      -9.986   8.928  70.430  0.00  0.00     0.028 H 
ATOM     41  H17 non d ame     -10.185   9.360  72.145  0.00  0.00     0.028 H 
ATOM     42  H18 non d ame     -11.322   8.229  71.374  0.00  0.00     0.028 H 
ENDBRANCH  33  39
ENDBRANCH   7  33
ENDBRANCH   4   7
ENDBRANCH   1   3
BRANCH   1  43
ATOM     43  C15 non d ame     -10.688  15.137  69.100  0.00  0.00     0.240 C 
ATOM     44  O5  non d ame      -9.568  15.250  69.486  0.00  0.00    -0.271 OA
ATOM     45  N6  non d ame     -11.042  15.566  67.717  0.00  0.00    -0.355 N 
ATOM     46  H46 non d ame     -11.988  15.472  67.377  0.00  0.00     0.162 HD
BRANCH  45  47
ATOM     47  C20 non d ame      -9.999  16.137  66.837  0.00  0.00     0.013 C 
ATOM     48  H30 non d ame      -9.034  15.990  67.323  0.00  0.00     0.072 H 
BRANCH  47  49
ATOM     49  C21 non d ame     -10.261  17.614  66.645  0.00  0.00    -0.038 C 
ATOM     50  H31 non d ame      -9.390  18.001  66.114  0.00  0.00     0.036 H 
ATOM     51  H32 non d ame     -11.251  17.681  66.192  0.00  0.00     0.036 H 
BRANCH  49  52
ATOM     52  C22 non d ame     -10.339  18.388  67.979  0.00  0.00     0.018 C 
ATOM     53  H33 non d ame     -11.355  18.781  68.033  0.00  0.00     0.048 H 
ATOM     54  H34 non d ame      -9.980  17.697  68.742  0.00  0.00     0.048 H 
BRANCH  52  55
ATOM     55  C23 non d ame      -9.398  19.623  68.041  0.00  0.00     0.259 C 
ATOM     56  O7  non d ame      -9.610  20.577  67.364  0.00  0.00    -0.265 OA
BRANCH  55  57
ATOM     57  O8  non d ame      -8.271  19.598  68.907  0.00  0.00    -0.317 OA
BRANCH  57  58
ATOM     58  C29 non d ame      -7.022  19.411  68.234  0.00  0.00     0.052 C 
ATOM     59  H47 non d ame      -7.214  19.642  67.187  0.00  0.00     0.082 H 
ATOM     60  H48 non d ame      -6.294  19.995  68.797  0.00  0.00     0.082 H 
BRANCH  58  61
ATOM     61  C35 non d ame      -6.639  17.911  68.345  0.00  0.00    -0.034 A 
ATOM     62  C30 non d ame      -6.321  17.363  69.583  0.00  0.00    -0.075 A 
ATOM     63  C31 non d ame      -5.977  16.016  69.683  0.00  0.00    -0.082 A 
ATOM     64  H49 non d ame      -6.342  17.988  70.475  0.00  0.00     0.084 H 
ATOM     65  C32 non d ame      -5.949  15.217  68.537  0.00  0.00    -0.083 A 
ATOM     66  H50 non d ame      -5.730  15.589  70.655  0.00  0.00     0.083 H 
ATOM     67  C33 non d ame      -6.263  15.768  67.302  0.00  0.00    -0.082 A 
ATOM     68  H51 non d ame      -5.680  14.162  68.606  0.00  0.00     0.083 H 
ATOM     69  C34 non d ame      -6.610  17.114  67.199  0.00  0.00    -0.075 A 
ATOM     70  H52 non d ame      -6.238  15.143  66.410  0.00  0.00     0.083 H 
ATOM     71  H53 non d ame      -6.857  17.540  66.225  0.00  0.00     0.084 H 
ENDBRANCH  58  61
ENDBRANCH  57  58
ENDBRANCH  55  57
ENDBRANCH  52  55
ENDBRANCH  49  52
ENDBRANCH  47  49
BRANCH  47  72
ATOM     72  C24 non d ame     -10.025  15.434  65.483  0.00  0.00    -0.039 C 
ATOM     73  H35 non d ame     -10.098  16.231  64.743  0.00  0.00     0.036 H 
ATOM     74  H36 non d ame      -9.161  14.769  65.484  0.00  0.00     0.036 H 
BRANCH  72  75
ATOM     75  C25 non d ame     -11.327  14.514  65.317  0.00  0.00    -0.001 C 
ATOM     76  C26 non d ame     -10.884  12.977  64.937  0.00  0.00    -0.035 C 
ATOM     77  C27 non d ame     -11.574  12.582  63.842  0.00  0.00     0.085 C 
ATOM     78  H38 non d ame      -9.846  12.960  64.603  0.00  0.00     0.036 H 
ATOM     79  H39 non d ame     -11.218  12.288  65.713  0.00  0.00     0.036 H 
ATOM     80  N5  non d ame     -12.206  13.818  63.247  0.00  0.00    -0.049 N 
ATOM     81  H40 non d ame     -10.827  12.196  63.148  0.00  0.00     0.075 H 
ATOM     82  H41 non d ame     -12.362  11.927  64.215  0.00  0.00     0.075 H 
ATOM     83  C28 non d ame     -12.099  14.961  64.383  0.00  0.00     0.193 C 
ATOM     84  H42 non d ame     -11.626  14.087  62.465  0.00  0.00     0.280 HD
ATOM     85  H43 non d ame     -13.181  13.600  63.102  0.00  0.00     0.280 HD
ATOM     86  H44 non d ame     -12.975  15.245  64.967  0.00  0.00     0.129 H 
ATOM     87  H37 non d ame     -12.027  14.639  66.143  0.00  0.00     0.046 H 
BRANCH  83  88
ATOM     88  O6  non d ame     -11.609  16.176  63.813  0.00  0.00    -0.369 OA
ATOM     89  H45 non d ame     -10.808  16.443  64.269  0.00  0.00     0.212 HD
ENDBRANCH  83  88
ENDBRANCH  72  75
ENDBRANCH  47  72
ENDBRANCH  45  47
ENDBRANCH   1  43
BRANCH   1  90
ATOM     90  C16 non d ame     -11.725  15.230  71.389  0.00  0.00    -0.035 C 
ATOM     91  H21 non d ame     -10.769  14.943  71.828  0.00  0.00     0.037 H 
ATOM     92  H22 non d ame     -11.934  16.279  71.180  0.00  0.00     0.037 H 
BRANCH  90  93
ATOM     93  C17 non d ame     -12.829  14.748  72.382  0.00  0.00    -0.059 C 
ATOM     94  H23 non d ame     -12.738  13.666  72.476  0.00  0.00     0.038 H 
BRANCH  93  95
ATOM     95  C18 non d ame     -12.655  15.367  73.805  0.00  0.00    -0.073 C 
ATOM     96  H24 non d ame     -12.990  16.404  73.794  0.00  0.00     0.028 H 
ATOM     97  H25 non d ame     -13.249  14.801  74.522  0.00  0.00     0.028 H 
ATOM     98  H26 non d ame     -11.604  15.327  74.093  0.00  0.00     0.028 H 
ENDBRANCH  93  95
BRANCH  93  99
ATOM     99  C19 non d ame     -14.226  15.039  71.828  0.00  0.00    -0.073 C 
ATOM    100  H27 non d ame     -14.568  16.007  72.196  0.00  0.00     0.028 H 
ATOM    101  H28 non d ame     -14.189  15.056  70.739  0.00  0.00     0.028 H 
ATOM    102  H29 non d ame     -14.916  14.262  72.156  0.00  0.00     0.028 H 
ENDBRANCH  93  99
ENDBRANCH  90  93
ENDBRANCH   1  90
TORSDOF 26
ENDMDL
MODEL 4
REMARK VINA RESULT:      -6.4      3.155      6.785
REMARK  26 active torsions:
REMARK  status: ('A' for Active; 'I' for Inactive)
REMARK    1  A    between atoms: C2_2  and  C3_3 
REMARK    2  A    between atoms: C4_6  and  C5_7 
REMARK       I    between atoms: C5_7  and  N2_9 
REMARK    3  A    between atoms: N2_9  and  C6_10 
REMARK    4  A    between atoms: C6_10  and  C7_11 
REMARK    5  A    between atoms: C6_10  and  C8_13 
REMARK       I    between atoms: C7_11  and  N3_14 
REMARK    6  A    between atoms: N3_14  and  C9_15 
REMARK    7  A    between atoms: C9_15  and  C10_16 
REMARK    8  A    between atoms: C9_15  and  C11_18 
REMARK       I    between atoms: C10_16  and  N4_21 
REMARK    9  A    between atoms: C11_18  and  C12_19 
REMARK   10  A    between atoms: C11_18  and  C13_20 
REMARK   11  A    between atoms: N4_21  and  C14_22 
REMARK   12  A    between atoms: C14_22  and  C15_23 
REMARK   13  A    between atoms: C14_22  and  C16_25 
REMARK       I    between atoms: C15_23  and  N6_40 
REMARK   14  A    between atoms: C16_25  and  C17_26 
REMARK   15  A    between atoms: C17_26  and  C18_27 
REMARK   16  A    between atoms: C17_26  and  C19_28 
REMARK   17  A    between atoms: C20_29  and  C21_30 
REMARK   18  A    between atoms: C20_29  and  C24_33 
REMARK   19  A    between atoms: C20_29  and  N6_40 
REMARK   20  A    between atoms: C21_30  and  C22_31 
REMARK   21  A    between atoms: C22_31  and  C23_32 
REMARK   22  A    between atoms: C23_32  and  O8_43 
REMARK   23  A    between atoms: C24_33  and  C25_34 
REMARK   24  A    between atoms: C28_38  and  O6_39 
REMARK   25  A    between atoms: C29_42  and  O8_43 
REMARK   26  A    between atoms: C29_42  and  C35_49 
ROOT
ATOM      1  C14 non d ame     -11.698  14.700  70.120  0.00  0.00     0.089 C 
ATOM      2  H20 non d ame     -12.702  14.815  69.710  0.00  0.00     0.087 H 
ENDROOT
BRANCH   1   3
ATOM      3  N4  non d ame     -11.442  13.274  70.257  0.00  0.00    -0.346 N 
ATOM      4  C10 non d ame     -11.721  12.336  69.110  0.00  0.00     0.241 C 
ATOM      5  O4  non d ame     -12.153  12.752  68.086  0.00  0.00    -0.271 OA
ATOM      6  H19 non d ame     -11.076  12.940  71.138  0.00  0.00     0.163 HD
BRANCH   4   7
ATOM      7  C9  non d ame     -11.444  10.864  69.267  0.00  0.00     0.092 C 
ATOM      8  H11 non d ame     -12.109  10.302  68.611  0.00  0.00     0.088 H 
BRANCH   7   9
ATOM      9  N3  non d ame     -10.072  10.575  68.842  0.00  0.00    -0.346 N 
ATOM     10  C7  non d ame      -9.811  10.138  67.493  0.00  0.00     0.240 C 
ATOM     11  O3  non d ame     -10.696  10.011  66.736  0.00  0.00    -0.271 OA
ATOM     12  H10 non d ame      -9.299  10.678  69.484  0.00  0.00     0.163 HD
BRANCH  10  13
ATOM     13  C6  non d ame      -8.349   9.829  67.047  0.00  0.00     0.086 C 
ATOM     14  H6  non d ame      -7.603  10.258  67.718  0.00  0.00     0.086 H 
BRANCH  13  15
ATOM     15  N2  non d ame      -8.145   8.390  67.064  0.00  0.00    -0.343 N 
ATOM     16  C5  non d ame      -7.818   7.723  68.327  0.00  0.00     0.273 C 
ATOM     17  O2  non d ame      -7.719   8.354  69.322  0.00  0.00    -0.266 OA
ATOM     18  H5  non d ame      -8.229   7.860  66.210  0.00  0.00     0.163 HD
BRANCH  16  19
ATOM     19  C4  non d ame      -7.602   6.202  68.360  0.00  0.00     0.154 A 
ATOM     20  C1  non d ame      -6.834   5.418  67.443  0.00  0.00    -0.017 A 
ATOM     21  C2  non d ame      -6.953   4.090  67.910  0.00  0.00     0.077 A 
ATOM     22  H1  non d ame      -6.275   5.759  66.571  0.00  0.00     0.091 H 
ATOM     23  O1  non d ame      -7.703   4.120  68.974  0.00  0.00    -0.218 OA
ATOM     24  N1  non d ame      -8.094   5.341  69.255  0.00  0.00    -0.123 NA
BRANCH  21  25
ATOM     25  C3  non d ame      -6.320   2.854  67.286  0.00  0.00    -0.029 C 
ATOM     26  H2  non d ame      -6.591   2.799  66.231  0.00  0.00     0.036 H 
ATOM     27  H3  non d ame      -5.235   2.916  67.380  0.00  0.00     0.036 H 
ATOM     28  H4  non d ame      -6.678   1.962  67.801  0.00  0.00     0.036 H 
ENDBRANCH  21  25
ENDBRANCH  16  19
ENDBRANCH  13  15
BRANCH  13  29
ATOM     29  C8  non d ame      -8.119  10.366  65.657  0.00  0.00    -0.049 C 
ATOM     30  H7  non d ame      -7.564  11.303  65.716  0.00  0.00     0.030 H 
ATOM     31  H8  non d ame      -7.547   9.640  65.078  0.00  0.00     0.030 H 
ATOM     32  H9  non d ame      -9.078  10.543  65.173  0.00  0.00     0.030 H 
ENDBRANCH  13  29
ENDBRANCH  10  13
ENDBRANCH   7   9
BRANCH   7  33
ATOM     33  C11 non d ame     -11.618  10.460  70.761  0.00  0.00    -0.033 C 
ATOM     34  H12 non d ame     -11.343  11.323  71.368  0.00  0.00     0.042 H 
BRANCH  33  35
ATOM     35  C12 non d ame     -13.103  10.111  71.087  0.00  0.00    -0.071 C 
ATOM     36  H13 non d ame     -13.142   9.480  71.975  0.00  0.00     0.028 H 
ATOM     37  H14 non d ame     -13.661  11.030  71.270  0.00  0.00     0.028 H 
ATOM     38  H15 non d ame     -13.545   9.581  70.243  0.00  0.00     0.028 H 
ENDBRANCH  33  35
BRANCH  33  39
ATOM     39  C13 non d ame     -10.664   9.281  71.136  0.00  0.00    -0.071 C 
ATOM     40  H16 non d ame     -10.768   8.482  70.402  0.00  0.00     0.028 H 
ATOM     41  H17 non d ame      -9.633   9.636  71.144  0.00  0.00     0.028 H 
ATOM     42  H18 non d ame     -10.926   8.903  72.124  0.00  0.00     0.028 H 
ENDBRANCH  33  39
ENDBRANCH   7  33
ENDBRANCH   4   7
ENDBRANCH   1   3
BRANCH   1  43
ATOM     43  C15 non d ame     -10.611  15.311  69.190  0.00  0.00     0.240 C 
ATOM     44  O5  non d ame      -9.511  15.490  69.606  0.00  0.00    -0.271 OA
ATOM     45  N6  non d ame     -10.937  15.665  67.780  0.00  0.00    -0.355 N 
ATOM     46  H46 non d ame     -11.866  15.513  67.414  0.00  0.00     0.162 HD
BRANCH  45  47
ATOM     47  C20 non d ame      -9.891  16.244  66.909  0.00  0.00     0.013 C 
ATOM     48  H30 non d ame      -8.921  15.989  67.336  0.00  0.00     0.072 H 
BRANCH  47  49
ATOM     49  C21 non d ame     -10.055  17.746  66.861  0.00  0.00    -0.038 C 
ATOM     50  H31 non d ame      -9.848  18.032  65.829  0.00  0.00     0.036 H 
ATOM     51  H32 non d ame     -11.034  17.948  67.297  0.00  0.00     0.036 H 
BRANCH  49  52
ATOM     52  C22 non d ame      -9.025  18.490  67.737  0.00  0.00     0.018 C 
ATOM     53  H33 non d ame      -9.381  18.388  68.763  0.00  0.00     0.048 H 
ATOM     54  H34 non d ame      -8.052  18.088  67.455  0.00  0.00     0.048 H 
BRANCH  52  55
ATOM     55  C23 non d ame      -8.955  20.018  67.460  0.00  0.00     0.259 C 
ATOM     56  O7  non d ame      -9.951  20.653  67.333  0.00  0.00    -0.265 OA
BRANCH  55  57
ATOM     57  O8  non d ame      -7.685  20.648  67.345  0.00  0.00    -0.317 OA
BRANCH  57  58
ATOM     58  C29 non d ame      -6.583  19.737  67.305  0.00  0.00     0.052 C 
ATOM     59  H47 non d ame      -5.899  20.066  68.086  0.00  0.00     0.082 H 
ATOM     60  H48 non d ame      -7.023  18.740  67.351  0.00  0.00     0.082 H 
BRANCH  58  61
ATOM     61  C35 non d ame      -5.877  19.900  65.933  0.00  0.00    -0.034 A 
ATOM     62  C30 non d ame      -4.963  20.929  65.738  0.00  0.00    -0.075 A 
ATOM     63  C31 non d ame      -4.328  21.075  64.505  0.00  0.00    -0.082 A 
ATOM     64  H49 non d ame      -4.743  21.621  66.550  0.00  0.00     0.084 H 
ATOM     65  C32 non d ame      -4.614  20.188  63.464  0.00  0.00    -0.083 A 
ATOM     66  H50 non d ame      -3.611  21.882  64.356  0.00  0.00     0.083 H 
ATOM     67  C33 non d ame      -5.530  19.164  63.662  0.00  0.00    -0.082 A 
ATOM     68  H51 non d ame      -4.123  20.295  62.497  0.00  0.00     0.083 H 
ATOM     69  C34 non d ame      -6.164  19.013  64.893  0.00  0.00    -0.075 A 
ATOM     70  H52 non d ame      -5.752  18.474  62.847  0.00  0.00     0.083 H 
ATOM     71  H53 non d ame      -6.882  18.204  65.041  0.00  0.00     0.084 H 
ENDBRANCH  58  61
ENDBRANCH  57  58
ENDBRANCH  55  57
ENDBRANCH  52  55
ENDBRANCH  49  52
ENDBRANCH  47  49
BRANCH  47  72
ATOM     72  C24 non d ame     -10.018  15.671  65.499  0.00  0.00    -0.039 C 
ATOM     73  H35 non d ame     -10.235  16.525  64.857  0.00  0.00     0.036 H 
ATOM     74  H36 non d ame      -9.111  15.087  65.340  0.00  0.00     0.036 H 
BRANCH  72  75
ATOM     75  C25 non d ame     -11.257  14.662  65.379  0.00  0.00    -0.001 C 
ATOM     76  C26 non d ame     -10.716  13.146  65.044  0.00  0.00    -0.035 C 
ATOM     77  C27 non d ame     -11.389  12.669  63.970  0.00  0.00     0.085 C 
ATOM     78  H38 non d ame      -9.682  13.187  64.699  0.00  0.00     0.036 H 
ATOM     79  H39 non d ame     -10.996  12.463  65.846  0.00  0.00     0.036 H 
ATOM     80  N5  non d ame     -12.107  13.840  63.343  0.00  0.00    -0.049 N 
ATOM     81  H40 non d ame     -10.624  12.311  63.281  0.00  0.00     0.075 H 
ATOM     82  H41 non d ame     -12.127  11.976  64.374  0.00  0.00     0.075 H 
ATOM     83  C28 non d ame     -12.066  15.025  64.439  0.00  0.00     0.193 C 
ATOM     84  H42 non d ame     -11.554  14.121  62.546  0.00  0.00     0.280 HD
ATOM     85  H43 non d ame     -13.066  13.553  63.216  0.00  0.00     0.280 HD
ATOM     86  H44 non d ame     -12.953  15.269  65.024  0.00  0.00     0.129 H 
ATOM     87  H37 non d ame     -11.957  14.767  66.208  0.00  0.00     0.046 H 
BRANCH  83  88
ATOM     88  O6  non d ame     -11.663  16.250  63.825  0.00  0.00    -0.369 OA
ATOM     89  H45 non d ame     -10.709  16.337  63.878  0.00  0.00     0.212 HD
ENDBRANCH  83  88
ENDBRANCH  72  75
ENDBRANCH  47  72
ENDBRANCH  45  47
ENDBRANCH   1  43
BRANCH   1  90
ATOM     90  C16 non d ame     -11.624  15.353  71.492  0.00  0.00    -0.035 C 
ATOM     91  H21 non d ame     -10.654  15.062  71.897  0.00  0.00     0.037 H 
ATOM     92  H22 non d ame     -11.851  16.405  71.323  0.00  0.00     0.037 H 
BRANCH  90  93
ATOM     93  C17 non d ame     -12.697  14.824  72.495  0.00  0.00    -0.059 C 
ATOM     94  H23 non d ame     -12.616  13.737  72.524  0.00  0.00     0.038 H 
BRANCH  93  95
ATOM     95  C18 non d ame     -12.463  15.358  73.944  0.00  0.00    -0.073 C 
ATOM     96  H24 non d ame     -13.104  16.222  74.121  0.00  0.00     0.028 H 
ATOM     97  H25 non d ame     -12.705  14.575  74.663  0.00  0.00     0.028 H 
ATOM     98  H26 non d ame     -11.420  15.648  74.061  0.00  0.00     0.028 H 
ENDBRANCH  93  95
BRANCH  93  99
ATOM     99  C19 non d ame     -14.110  15.161  72.012  0.00  0.00    -0.073 C 
ATOM    100  H27 non d ame     -14.056  15.625  71.027  0.00  0.00     0.028 H 
ATOM    101  H28 non d ame     -14.701  14.246  71.950  0.00  0.00     0.028 H 
ATOM    102  H29 non d ame     -14.579  15.850  72.713  0.00  0.00     0.028 H 
ENDBRANCH  93  99
ENDBRANCH  90  93
ENDBRANCH   1  90
TORSDOF 26
ENDMDL
MODEL 5
REMARK VINA RESULT:      -6.4      2.693      4.769
REMARK  26 active torsions:
REMARK  status: ('A' for Active; 'I' for Inactive)
REMARK    1  A    between atoms: C2_2  and  C3_3 
REMARK    2  A    between atoms: C4_6  and  C5_7 
REMARK       I    between atoms: C5_7  and  N2_9 
REMARK    3  A    between atoms: N2_9  and  C6_10 
REMARK    4  A    between atoms: C6_10  and  C7_11 
REMARK    5  A    between atoms: C6_10  and  C8_13 
REMARK       I    between atoms: C7_11  and  N3_14 
REMARK    6  A    between atoms: N3_14  and  C9_15 
REMARK    7  A    between atoms: C9_15  and  C10_16 
REMARK    8  A    between atoms: C9_15  and  C11_18 
REMARK       I    between atoms: C10_16  and  N4_21 
REMARK    9  A    between atoms: C11_18  and  C12_19 
REMARK   10  A    between atoms: C11_18  and  C13_20 
REMARK   11  A    between atoms: N4_21  and  C14_22 
REMARK   12  A    between atoms: C14_22  and  C15_23 
REMARK   13  A    between atoms: C14_22  and  C16_25 
REMARK       I    between atoms: C15_23  and  N6_40 
REMARK   14  A    between atoms: C16_25  and  C17_26 
REMARK   15  A    between atoms: C17_26  and  C18_27 
REMARK   16  A    between atoms: C17_26  and  C19_28 
REMARK   17  A    between atoms: C20_29  and  C21_30 
REMARK   18  A    between atoms: C20_29  and  C24_33 
REMARK   19  A    between atoms: C20_29  and  N6_40 
REMARK   20  A    between atoms: C21_30  and  C22_31 
REMARK   21  A    between atoms: C22_31  and  C23_32 
REMARK   22  A    between atoms: C23_32  and  O8_43 
REMARK   23  A    between atoms: C24_33  and  C25_34 
REMARK   24  A    between atoms: C28_38  and  O6_39 
REMARK   25  A    between atoms: C29_42  and  O8_43 
REMARK   26  A    between atoms: C29_42  and  C35_49 
ROOT
ATOM      1  C14 non d ame     -10.107  10.452  68.364  0.00  0.00     0.089 C 
ATOM      2  H20 non d ame      -9.338  10.533  69.132  0.00  0.00     0.087 H 
ENDROOT
BRANCH   1   3
ATOM      3  N4  non d ame     -10.671   9.113  68.446  0.00  0.00    -0.346 N 
ATOM      4  C10 non d ame     -10.008   8.059  69.296  0.00  0.00     0.241 C 
ATOM      5  O4  non d ame      -9.020   8.311  69.904  0.00  0.00    -0.271 OA
ATOM      6  H19 non d ame     -11.511   8.918  67.919  0.00  0.00     0.163 HD
BRANCH   4   7
ATOM      7  C9  non d ame     -10.608   6.680  69.374  0.00  0.00     0.092 C 
ATOM      8  H11 non d ame     -11.661   6.730  69.096  0.00  0.00     0.088 H 
BRANCH   7   9
ATOM      9  N3  non d ame      -9.946   5.803  68.403  0.00  0.00    -0.346 N 
ATOM     10  C7  non d ame     -10.334   5.842  67.015  0.00  0.00     0.240 C 
ATOM     11  O3  non d ame     -11.178   6.572  66.661  0.00  0.00    -0.271 OA
ATOM     12  H10 non d ame      -9.218   5.167  68.694  0.00  0.00     0.163 HD
BRANCH  10  13
ATOM     13  C6  non d ame      -9.628   4.904  65.987  0.00  0.00     0.086 C 
ATOM     14  H6  non d ame     -10.229   4.727  65.095  0.00  0.00     0.086 H 
BRANCH  13  15
ATOM     15  N2  non d ame      -8.398   5.536  65.540  0.00  0.00    -0.343 N 
ATOM     16  C5  non d ame      -8.066   5.539  64.114  0.00  0.00     0.273 C 
ATOM     17  O2  non d ame      -8.793   5.028  63.335  0.00  0.00    -0.266 OA
ATOM     18  H5  non d ame      -7.780   5.968  66.212  0.00  0.00     0.163 HD
BRANCH  16  19
ATOM     19  C4  non d ame      -6.769   6.205  63.626  0.00  0.00     0.154 A 
ATOM     20  C1  non d ame      -6.514   7.607  63.495  0.00  0.00    -0.017 A 
ATOM     21  C2  non d ame      -5.189   7.693  63.013  0.00  0.00     0.077 A 
ATOM     22  H1  non d ame      -7.188   8.436  63.715  0.00  0.00     0.091 H 
ATOM     23  O1  non d ame      -4.743   6.476  62.888  0.00  0.00    -0.218 OA
ATOM     24  N1  non d ame      -5.648   5.591  63.239  0.00  0.00    -0.123 NA
BRANCH  21  25
ATOM     25  C3  non d ame      -4.424   8.971  62.702  0.00  0.00    -0.029 C 
ATOM     26  H2  non d ame      -3.425   8.720  62.341  0.00  0.00     0.036 H 
ATOM     27  H3  non d ame      -4.955   9.535  61.935  0.00  0.00     0.036 H 
ATOM     28  H4  non d ame      -4.342   9.576  63.605  0.00  0.00     0.036 H 
ENDBRANCH  21  25
ENDBRANCH  16  19
ENDBRANCH  13  15
BRANCH  13  29
ATOM     29  C8  non d ame      -9.320   3.580  66.639  0.00  0.00    -0.049 C 
ATOM     30  H7  non d ame     -10.192   3.238  67.197  0.00  0.00     0.030 H 
ATOM     31  H8  non d ame      -9.071   2.847  65.871  0.00  0.00     0.030 H 
ATOM     32  H9  non d ame      -8.477   3.696  67.318  0.00  0.00     0.030 H 
ENDBRANCH  13  29
ENDBRANCH  10  13
ENDBRANCH   7   9
BRANCH   7  33
ATOM     33  C11 non d ame     -10.407   6.106  70.808  0.00  0.00    -0.033 C 
ATOM     34  H12 non d ame      -9.610   6.679  71.282  0.00  0.00     0.042 H 
BRANCH  33  35
ATOM     35  C12 non d ame     -11.692   6.285  71.676  0.00  0.00    -0.071 C 
ATOM     36  H13 non d ame     -11.492   5.950  72.694  0.00  0.00     0.028 H 
ATOM     37  H14 non d ame     -11.978   7.336  71.690  0.00  0.00     0.028 H 
ATOM     38  H15 non d ame     -12.502   5.693  71.250  0.00  0.00     0.028 H 
ENDBRANCH  33  35
BRANCH  33  39
ATOM     39  C13 non d ame      -9.963   4.610  70.754  0.00  0.00    -0.071 C 
ATOM     40  H16 non d ame     -10.842   3.968  70.792  0.00  0.00     0.028 H 
ATOM     41  H17 non d ame      -9.417   4.425  69.829  0.00  0.00     0.028 H 
ATOM     42  H18 non d ame      -9.318   4.393  71.606  0.00  0.00     0.028 H 
ENDBRANCH  33  39
ENDBRANCH   7  33
ENDBRANCH   4   7
ENDBRANCH   1   3
BRANCH   1  43
ATOM     43  C15 non d ame     -11.252  11.485  68.570  0.00  0.00     0.240 C 
ATOM     44  O5  non d ame     -12.337  11.259  68.138  0.00  0.00    -0.271 OA
ATOM     45  N6  non d ame     -11.000  12.752  69.313  0.00  0.00    -0.355 N 
ATOM     46  H46 non d ame     -10.085  12.953  69.688  0.00  0.00     0.162 HD
BRANCH  45  47
ATOM     47  C20 non d ame     -12.100  13.723  69.501  0.00  0.00     0.013 C 
ATOM     48  H30 non d ame     -12.962  13.367  68.937  0.00  0.00     0.072 H 
BRANCH  47  49
ATOM     49  C21 non d ame     -11.667  15.076  68.983  0.00  0.00    -0.038 C 
ATOM     50  H31 non d ame     -12.513  15.742  69.154  0.00  0.00     0.036 H 
ATOM     51  H32 non d ame     -10.707  15.279  69.459  0.00  0.00     0.036 H 
BRANCH  49  52
ATOM     52  C22 non d ame     -11.408  15.080  67.461  0.00  0.00     0.018 C 
ATOM     53  H33 non d ame     -11.705  14.091  67.108  0.00  0.00     0.048 H 
ATOM     54  H34 non d ame     -11.911  15.969  67.078  0.00  0.00     0.048 H 
BRANCH  52  55
ATOM     55  C23 non d ame      -9.909  15.237  67.082  0.00  0.00     0.259 C 
ATOM     56  O7  non d ame      -9.173  14.307  67.140  0.00  0.00    -0.265 OA
BRANCH  55  57
ATOM     57  O8  non d ame      -9.422  16.510  66.677  0.00  0.00    -0.317 OA
BRANCH  57  58
ATOM     58  C29 non d ame      -8.006  16.558  66.480  0.00  0.00     0.052 C 
ATOM     59  H47 non d ame      -7.591  15.792  67.135  0.00  0.00     0.082 H 
ATOM     60  H48 non d ame      -7.856  16.492  65.403  0.00  0.00     0.082 H 
BRANCH  58  61
ATOM     61  C35 non d ame      -7.501  17.943  66.963  0.00  0.00    -0.034 A 
ATOM     62  C30 non d ame      -7.049  18.104  68.268  0.00  0.00    -0.075 A 
ATOM     63  C31 non d ame      -6.596  19.349  68.702  0.00  0.00    -0.082 A 
ATOM     64  H49 non d ame      -7.050  17.255  68.951  0.00  0.00     0.084 H 
ATOM     65  C32 non d ame      -6.598  20.437  67.825  0.00  0.00    -0.083 A 
ATOM     66  H50 non d ame      -6.241  19.471  69.725  0.00  0.00     0.083 H 
ATOM     67  C33 non d ame      -7.054  20.273  66.523  0.00  0.00    -0.082 A 
ATOM     68  H51 non d ame      -6.246  21.414  68.156  0.00  0.00     0.083 H 
ATOM     69  C34 non d ame      -7.505  19.029  66.085  0.00  0.00    -0.075 A 
ATOM     70  H52 non d ame      -7.056  21.124  65.842  0.00  0.00     0.083 H 
ATOM     71  H53 non d ame      -7.860  18.908  65.061  0.00  0.00     0.084 H 
ENDBRANCH  58  61
ENDBRANCH  57  58
ENDBRANCH  55  57
ENDBRANCH  52  55
ENDBRANCH  49  52
ENDBRANCH  47  49
BRANCH  47  72
ATOM     72  C24 non d ame     -12.444  13.831  70.985  0.00  0.00    -0.039 C 
ATOM     73  H35 non d ame     -13.344  13.230  71.119  0.00  0.00     0.036 H 
ATOM     74  H36 non d ame     -11.529  13.568  71.516  0.00  0.00     0.036 H 
BRANCH  72  75
ATOM     75  C25 non d ame     -12.815  15.334  71.399  0.00  0.00    -0.001 C 
ATOM     76  C26 non d ame     -11.759  15.879  72.535  0.00  0.00    -0.035 C 
ATOM     77  C27 non d ame     -12.460  16.380  73.580  0.00  0.00     0.085 C 
ATOM     78  H38 non d ame     -11.215  15.041  72.972  0.00  0.00     0.036 H 
ATOM     79  H39 non d ame     -11.214  16.744  72.156  0.00  0.00     0.036 H 
ATOM     80  N5  non d ame     -13.891  15.931  73.406  0.00  0.00    -0.049 N 
ATOM     81  H40 non d ame     -12.044  15.903  74.467  0.00  0.00     0.075 H 
ATOM     82  H41 non d ame     -12.413  17.463  73.469  0.00  0.00     0.075 H 
ATOM     83  C28 non d ame     -14.010  15.404  71.884  0.00  0.00     0.193 C 
ATOM     84  H42 non d ame     -14.023  15.147  74.028  0.00  0.00     0.280 HD
ATOM     85  H43 non d ame     -14.465  16.756  73.505  0.00  0.00     0.280 HD
ATOM     86  H44 non d ame     -14.497  16.015  71.123  0.00  0.00     0.129 H 
ATOM     87  H37 non d ame     -12.982  15.972  70.531  0.00  0.00     0.046 H 
BRANCH  83  88
ATOM     88  O6  non d ame     -14.680  14.144  71.850  0.00  0.00    -0.369 OA
ATOM     89  H45 non d ame     -15.462  14.182  72.406  0.00  0.00     0.212 HD
ENDBRANCH  83  88
ENDBRANCH  72  75
ENDBRANCH  47  72
ENDBRANCH  45  47
ENDBRANCH   1  43
BRANCH   1  90
ATOM     90  C16 non d ame      -9.485  10.646  66.990  0.00  0.00    -0.035 C 
ATOM     91  H21 non d ame     -10.274  11.082  66.375  0.00  0.00     0.037 H 
ATOM     92  H22 non d ame      -8.564  11.200  67.166  0.00  0.00     0.037 H 
BRANCH  90  93
ATOM     93  C17 non d ame      -9.073   9.310  66.295  0.00  0.00    -0.059 C 
ATOM     94  H23 non d ame      -9.687   8.515  66.717  0.00  0.00     0.038 H 
BRANCH  93  95
ATOM     95  C18 non d ame      -9.327   9.343  64.754  0.00  0.00    -0.073 C 
ATOM     96  H24 non d ame     -10.062   8.582  64.491  0.00  0.00     0.028 H 
ATOM     97  H25 non d ame      -9.704  10.325  64.469  0.00  0.00     0.028 H 
ATOM     98  H26 non d ame      -8.394   9.145  64.227  0.00  0.00     0.028 H 
ENDBRANCH  93  95
BRANCH  93  99
ATOM     99  C19 non d ame      -7.613   8.964  66.599  0.00  0.00    -0.073 C 
ATOM    100  H27 non d ame      -7.439   9.039  67.673  0.00  0.00     0.028 H 
ATOM    101  H28 non d ame      -7.403   7.948  66.266  0.00  0.00     0.028 H 
ATOM    102  H29 non d ame      -6.958   9.661  66.077  0.00  0.00     0.028 H 
ENDBRANCH  93  99
ENDBRANCH  90  93
ENDBRANCH   1  90
TORSDOF 26
ENDMDL
MODEL 6
REMARK VINA RESULT:      -6.3      2.434      5.848
REMARK  26 active torsions:
REMARK  status: ('A' for Active; 'I' for Inactive)
REMARK    1  A    between atoms: C2_2  and  C3_3 
REMARK    2  A    between atoms: C4_6  and  C5_7 
REMARK       I    between atoms: C5_7  and  N2_9 
REMARK    3  A    between atoms: N2_9  and  C6_10 
REMARK    4  A    between atoms: C6_10  and  C7_11 
REMARK    5  A    between atoms: C6_10  and  C8_13 
REMARK       I    between atoms: C7_11  and  N3_14 
REMARK    6  A    between atoms: N3_14  and  C9_15 
REMARK    7  A    between atoms: C9_15  and  C10_16 
REMARK    8  A    between atoms: C9_15  and  C11_18 
REMARK       I    between atoms: C10_16  and  N4_21 
REMARK    9  A    between atoms: C11_18  and  C12_19 
REMARK   10  A    between atoms: C11_18  and  C13_20 
REMARK   11  A    between atoms: N4_21  and  C14_22 
REMARK   12  A    between atoms: C14_22  and  C15_23 
REMARK   13  A    between atoms: C14_22  and  C16_25 
REMARK       I    between atoms: C15_23  and  N6_40 
REMARK   14  A    between atoms: C16_25  and  C17_26 
REMARK   15  A    between atoms: C17_26  and  C18_27 
REMARK   16  A    between atoms: C17_26  and  C19_28 
REMARK   17  A    between atoms: C20_29  and  C21_30 
REMARK   18  A    between atoms: C20_29  and  C24_33 
REMARK   19  A    between atoms: C20_29  and  N6_40 
REMARK   20  A    between atoms: C21_30  and  C22_31 
REMARK   21  A    between atoms: C22_31  and  C23_32 
REMARK   22  A    between atoms: C23_32  and  O8_43 
REMARK   23  A    between atoms: C24_33  and  C25_34 
REMARK   24  A    between atoms: C28_38  and  O6_39 
REMARK   25  A    between atoms: C29_42  and  O8_43 
REMARK   26  A    between atoms: C29_42  and  C35_49 
ROOT
ATOM      1  C14 non d ame      -7.619   9.986  69.167  0.00  0.00     0.089 C 
ATOM      2  H20 non d ame      -7.814  10.349  70.176  0.00  0.00     0.087 H 
ENDROOT
BRANCH   1   3
ATOM      3  N4  non d ame      -8.362   8.746  68.996  0.00  0.00    -0.346 N 
ATOM      4  C10 non d ame      -9.733   8.590  69.603  0.00  0.00     0.241 C 
ATOM      5  O4  non d ame     -10.217   9.476  70.228  0.00  0.00    -0.271 OA
ATOM      6  H19 non d ame      -7.931   8.004  68.463  0.00  0.00     0.163 HD
BRANCH   4   7
ATOM      7  C9  non d ame     -10.491   7.303  69.412  0.00  0.00     0.092 C 
ATOM      8  H11 non d ame     -11.455   7.519  68.951  0.00  0.00     0.088 H 
BRANCH   7   9
ATOM      9  N3  non d ame      -9.755   6.435  68.487  0.00  0.00    -0.346 N 
ATOM     10  C7  non d ame     -10.273   6.184  67.166  0.00  0.00     0.240 C 
ATOM     11  O3  non d ame     -11.283   6.671  66.829  0.00  0.00    -0.271 OA
ATOM     12  H10 non d ame      -8.883   6.007  68.764  0.00  0.00     0.163 HD
BRANCH  10  13
ATOM     13  C6  non d ame      -9.487   5.257  66.188  0.00  0.00     0.086 C 
ATOM     14  H6  non d ame     -10.095   4.440  65.800  0.00  0.00     0.086 H 
BRANCH  13  15
ATOM     15  N2  non d ame      -9.058   6.039  65.040  0.00  0.00    -0.343 N 
ATOM     16  C5  non d ame      -8.182   7.196  65.242  0.00  0.00     0.273 C 
ATOM     17  O2  non d ame      -7.831   7.490  66.331  0.00  0.00    -0.266 OA
ATOM     18  H5  non d ame      -9.364   5.782  64.113  0.00  0.00     0.163 HD
BRANCH  16  19
ATOM     19  C4  non d ame      -7.720   8.030  64.037  0.00  0.00     0.154 A 
ATOM     20  C1  non d ame      -8.439   9.082  63.387  0.00  0.00    -0.017 A 
ATOM     21  C2  non d ame      -7.586   9.519  62.349  0.00  0.00     0.077 A 
ATOM     22  H1  non d ame      -9.429   9.470  63.630  0.00  0.00     0.091 H 
ATOM     23  O1  non d ame      -6.505   8.797  62.407  0.00  0.00    -0.218 OA
ATOM     24  N1  non d ame      -6.560   7.921  63.384  0.00  0.00    -0.123 NA
BRANCH  21  25
ATOM     25  C3  non d ame      -7.877  10.631  61.350  0.00  0.00    -0.029 C 
ATOM     26  H2  non d ame      -6.953  11.158  61.112  0.00  0.00     0.036 H 
ATOM     27  H3  non d ame      -8.294  10.200  60.439  0.00  0.00     0.036 H 
ATOM     28  H4  non d ame      -8.594  11.330  61.782  0.00  0.00     0.036 H 
ENDBRANCH  21  25
ENDBRANCH  16  19
ENDBRANCH  13  15
BRANCH  13  29
ATOM     29  C8  non d ame      -8.287   4.679  66.895  0.00  0.00    -0.049 C 
ATOM     30  H7  non d ame      -7.826   3.918  66.265  0.00  0.00     0.030 H 
ATOM     31  H8  non d ame      -7.566   5.472  67.094  0.00  0.00     0.030 H 
ATOM     32  H9  non d ame      -8.602   4.228  67.835  0.00  0.00     0.030 H 
ENDBRANCH  13  29
ENDBRANCH  10  13
ENDBRANCH   7   9
BRANCH   7  33
ATOM     33  C11 non d ame     -10.646   6.583  70.783  0.00  0.00    -0.033 C 
ATOM     34  H12 non d ame     -10.012   7.104  71.501  0.00  0.00     0.042 H 
BRANCH  33  35
ATOM     35  C12 non d ame     -12.114   6.667  71.306  0.00  0.00    -0.071 C 
ATOM     36  H13 non d ame     -12.323   7.684  71.640  0.00  0.00     0.028 H 
ATOM     37  H14 non d ame     -12.802   6.400  70.504  0.00  0.00     0.028 H 
ATOM     38  H15 non d ame     -12.243   5.976  72.139  0.00  0.00     0.028 H 
ENDBRANCH  33  35
BRANCH  33  39
ATOM     39  C13 non d ame     -10.161   5.101  70.694  0.00  0.00    -0.071 C 
ATOM     40  H16 non d ame      -9.624   4.839  71.606  0.00  0.00     0.028 H 
ATOM     41  H17 non d ame     -11.021   4.442  70.576  0.00  0.00     0.028 H 
ATOM     42  H18 non d ame      -9.497   4.988  69.837  0.00  0.00     0.028 H 
ENDBRANCH  33  39
ENDBRANCH   7  33
ENDBRANCH   4   7
ENDBRANCH   1   3
BRANCH   1  43
ATOM     43  C15 non d ame      -8.082  10.995  68.078  0.00  0.00     0.240 C 
ATOM     44  O5  non d ame      -7.556  10.996  67.011  0.00  0.00    -0.271 OA
ATOM     45  N6  non d ame      -9.186  11.955  68.361  0.00  0.00    -0.355 N 
ATOM     46  H46 non d ame      -9.643  11.961  69.262  0.00  0.00     0.162 HD
BRANCH  45  47
ATOM     47  C20 non d ame      -9.615  12.908  67.315  0.00  0.00     0.013 C 
ATOM     48  H30 non d ame      -9.134  12.619  66.381  0.00  0.00     0.072 H 
BRANCH  47  49
ATOM     49  C21 non d ame      -9.188  14.305  67.704  0.00  0.00    -0.038 C 
ATOM     50  H31 non d ame      -9.597  14.471  68.701  0.00  0.00     0.036 H 
ATOM     51  H32 non d ame      -8.110  14.338  67.544  0.00  0.00     0.036 H 
BRANCH  49  52
ATOM     52  C22 non d ame      -9.797  15.394  66.795  0.00  0.00     0.018 C 
ATOM     53  H33 non d ame      -8.951  15.884  66.313  0.00  0.00     0.048 H 
ATOM     54  H34 non d ame     -10.550  14.887  66.191  0.00  0.00     0.048 H 
BRANCH  52  55
ATOM     55  C23 non d ame     -10.551  16.509  67.572  0.00  0.00     0.259 C 
ATOM     56  O7  non d ame     -10.343  17.654  67.334  0.00  0.00    -0.265 OA
BRANCH  55  57
ATOM     57  O8  non d ame     -11.483  16.146  68.583  0.00  0.00    -0.317 OA
BRANCH  57  58
ATOM     58  C29 non d ame     -11.037  16.422  69.914  0.00  0.00     0.052 C 
ATOM     59  H47 non d ame      -9.995  16.104  69.948  0.00  0.00     0.082 H 
ATOM     60  H48 non d ame     -11.294  17.464  70.101  0.00  0.00     0.082 H 
BRANCH  58  61
ATOM     61  C35 non d ame     -11.855  15.532  70.887  0.00  0.00    -0.034 A 
ATOM     62  C30 non d ame     -12.252  14.257  70.498  0.00  0.00    -0.075 A 
ATOM     63  C31 non d ame     -12.987  13.457  71.371  0.00  0.00    -0.082 A 
ATOM     64  H49 non d ame     -11.988  13.885  69.508  0.00  0.00     0.084 H 
ATOM     65  C32 non d ame     -13.326  13.938  72.639  0.00  0.00    -0.083 A 
ATOM     66  H50 non d ame     -13.295  12.458  71.064  0.00  0.00     0.083 H 
ATOM     67  C33 non d ame     -12.930  15.212  73.023  0.00  0.00    -0.082 A 
ATOM     68  H51 non d ame     -13.900  13.319  73.329  0.00  0.00     0.083 H 
ATOM     69  C34 non d ame     -12.193  16.014  72.153  0.00  0.00    -0.075 A 
ATOM     70  H52 non d ame     -13.198  15.585  74.011  0.00  0.00     0.083 H 
ATOM     71  H53 non d ame     -11.885  17.013  72.462  0.00  0.00     0.084 H 
ENDBRANCH  58  61
ENDBRANCH  57  58
ENDBRANCH  55  57
ENDBRANCH  52  55
ENDBRANCH  49  52
ENDBRANCH  47  49
BRANCH  47  72
ATOM     72  C24 non d ame     -11.134  12.862  67.166  0.00  0.00    -0.039 C 
ATOM     73  H35 non d ame     -11.489  12.254  67.998  0.00  0.00     0.036 H 
ATOM     74  H36 non d ame     -11.450  13.901  67.078  0.00  0.00     0.036 H 
BRANCH  72  75
ATOM     75  C25 non d ame     -11.575  12.119  65.817  0.00  0.00    -0.001 C 
ATOM     76  C26 non d ame     -10.259  11.847  64.870  0.00  0.00    -0.035 C 
ATOM     77  C27 non d ame     -10.512  12.315  63.625  0.00  0.00     0.085 C 
ATOM     78  H38 non d ame      -9.423  12.461  65.207  0.00  0.00     0.036 H 
ATOM     79  H39 non d ame     -10.122  10.776  64.717  0.00  0.00     0.036 H 
ATOM     80  N5  non d ame     -11.752  13.172  63.719  0.00  0.00    -0.049 N 
ATOM     81  H40 non d ame      -9.661  12.948  63.372  0.00  0.00     0.075 H 
ATOM     82  H41 non d ame     -10.735  11.434  63.023  0.00  0.00     0.075 H 
ATOM     83  C28 non d ame     -12.421  12.829  65.148  0.00  0.00     0.193 C 
ATOM     84  H42 non d ame     -11.436  14.131  63.734  0.00  0.00     0.280 HD
ATOM     85  H43 non d ame     -12.374  12.857  62.989  0.00  0.00     0.280 HD
ATOM     86  H44 non d ame     -13.305  12.193  65.206  0.00  0.00     0.129 H 
ATOM     87  H37 non d ame     -12.232  11.270  66.009  0.00  0.00     0.046 H 
BRANCH  83  88
ATOM     88  O6  non d ame     -12.772  14.034  65.829  0.00  0.00    -0.369 OA
ATOM     89  H45 non d ame     -13.721  14.061  65.964  0.00  0.00     0.212 HD
ENDBRANCH  83  88
ENDBRANCH  72  75
ENDBRANCH  47  72
ENDBRANCH  45  47
ENDBRANCH   1  43
BRANCH   1  90
ATOM     90  C16 non d ame      -6.134   9.701  69.002  0.00  0.00    -0.035 C 
ATOM     91  H21 non d ame      -6.051   8.615  68.960  0.00  0.00     0.037 H 
ATOM     92  H22 non d ame      -5.817  10.305  68.152  0.00  0.00     0.037 H 
BRANCH  90  93
ATOM     93  C17 non d ame      -5.269  10.161  70.218  0.00  0.00    -0.059 C 
ATOM     94  H23 non d ame      -4.221  10.045  69.941  0.00  0.00     0.038 H 
BRANCH  93  95
ATOM     95  C18 non d ame      -5.504  11.663  70.576  0.00  0.00    -0.073 C 
ATOM     96  H24 non d ame      -5.409  11.800  71.653  0.00  0.00     0.028 H 
ATOM     97  H25 non d ame      -4.763  12.279  70.066  0.00  0.00     0.028 H 
ATOM     98  H26 non d ame      -6.504  11.960  70.258  0.00  0.00     0.028 H 
ENDBRANCH  93  95
BRANCH  93  99
ATOM     99  C19 non d ame      -5.518   9.266  71.435  0.00  0.00    -0.073 C 
ATOM    100  H27 non d ame      -4.765   9.471  72.196  0.00  0.00     0.028 H 
ATOM    101  H28 non d ame      -6.509   9.470  71.840  0.00  0.00     0.028 H 
ATOM    102  H29 non d ame      -5.455   8.220  71.135  0.00  0.00     0.028 H 
ENDBRANCH  93  99
ENDBRANCH  90  93
ENDBRANCH   1  90
TORSDOF 26
ENDMDL
MODEL 7
REMARK VINA RESULT:      -6.2      2.648      5.328
REMARK  26 active torsions:
REMARK  status: ('A' for Active; 'I' for Inactive)
REMARK    1  A    between atoms: C2_2  and  C3_3 
REMARK    2  A    between atoms: C4_6  and  C5_7 
REMARK       I    between atoms: C5_7  and  N2_9 
REMARK    3  A    between atoms: N2_9  and  C6_10 
REMARK    4  A    between atoms: C6_10  and  C7_11 
REMARK    5  A    between atoms: C6_10  and  C8_13 
REMARK       I    between atoms: C7_11  and  N3_14 
REMARK    6  A    between atoms: N3_14  and  C9_15 
REMARK    7  A    between atoms: C9_15  and  C10_16 
REMARK    8  A    between atoms: C9_15  and  C11_18 
REMARK       I    between atoms: C10_16  and  N4_21 
REMARK    9  A    between atoms: C11_18  and  C12_19 
REMARK   10  A    between atoms: C11_18  and  C13_20 
REMARK   11  A    between atoms: N4_21  and  C14_22 
REMARK   12  A    between atoms: C14_22  and  C15_23 
REMARK   13  A    between atoms: C14_22  and  C16_25 
REMARK       I    between atoms: C15_23  and  N6_40 
REMARK   14  A    between atoms: C16_25  and  C17_26 
REMARK   15  A    between atoms: C17_26  and  C18_27 
REMARK   16  A    between atoms: C17_26  and  C19_28 
REMARK   17  A    between atoms: C20_29  and  C21_30 
REMARK   18  A    between atoms: C20_29  and  C24_33 
REMARK   19  A    between atoms: C20_29  and  N6_40 
REMARK   20  A    between atoms: C21_30  and  C22_31 
REMARK   21  A    between atoms: C22_31  and  C23_32 
REMARK   22  A    between atoms: C23_32  and  O8_43 
REMARK   23  A    between atoms: C24_33  and  C25_34 
REMARK   24  A    between atoms: C28_38  and  O6_39 
REMARK   25  A    between atoms: C29_42  and  O8_43 
REMARK   26  A    between atoms: C29_42  and  C35_49 
ROOT
ATOM      1  C14 non d ame     -10.371  10.539  67.605  0.00  0.00     0.089 C 
ATOM      2  H20 non d ame      -9.345  10.637  67.959  0.00  0.00     0.087 H 
ENDROOT
BRANCH   1   3
ATOM      3  N4  non d ame     -10.986   9.443  68.338  0.00  0.00    -0.346 N 
ATOM      4  C10 non d ame     -10.640   9.207  69.787  0.00  0.00     0.241 C 
ATOM      5  O4  non d ame      -9.862   9.912  70.341  0.00  0.00    -0.271 OA
ATOM      6  H19 non d ame     -11.644   8.853  67.848  0.00  0.00     0.163 HD
BRANCH   4   7
ATOM      7  C9  non d ame     -11.290   8.071  70.533  0.00  0.00     0.092 C 
ATOM      8  H11 non d ame     -12.264   7.862  70.090  0.00  0.00     0.088 H 
BRANCH   7   9
ATOM      9  N3  non d ame     -10.478   6.860  70.382  0.00  0.00    -0.346 N 
ATOM     10  C7  non d ame     -10.713   5.967  69.274  0.00  0.00     0.240 C 
ATOM     11  O3  non d ame     -11.552   6.208  68.494  0.00  0.00    -0.271 OA
ATOM     12  H10 non d ame      -9.752   6.638  71.047  0.00  0.00     0.163 HD
BRANCH  10  13
ATOM     13  C6  non d ame      -9.848   4.678  69.121  0.00  0.00     0.086 C 
ATOM     14  H6  non d ame     -10.431   3.763  69.227  0.00  0.00     0.086 H 
BRANCH  13  15
ATOM     15  N2  non d ame      -9.273   4.652  67.786  0.00  0.00    -0.343 N 
ATOM     16  C5  non d ame      -8.502   5.803  67.310  0.00  0.00     0.273 C 
ATOM     17  O2  non d ame      -8.352   6.745  68.008  0.00  0.00    -0.266 OA
ATOM     18  H5  non d ame      -9.408   3.844  67.195  0.00  0.00     0.163 HD
BRANCH  16  19
ATOM     19  C4  non d ame      -7.887   5.789  65.902  0.00  0.00     0.154 A 
ATOM     20  C1  non d ame      -6.564   6.191  65.532  0.00  0.00    -0.017 A 
ATOM     21  C2  non d ame      -6.499   5.987  64.136  0.00  0.00     0.077 A 
ATOM     22  H1  non d ame      -5.773   6.573  66.178  0.00  0.00     0.091 H 
ATOM     23  O1  non d ame      -7.653   5.519  63.758  0.00  0.00    -0.218 OA
ATOM     24  N1  non d ame      -8.480   5.396  64.771  0.00  0.00    -0.123 NA
BRANCH  21  25
ATOM     25  C3  non d ame      -5.298   6.260  63.240  0.00  0.00    -0.029 C 
ATOM     26  H2  non d ame      -4.626   6.961  63.736  0.00  0.00     0.036 H 
ATOM     27  H3  non d ame      -4.771   5.326  63.046  0.00  0.00     0.036 H 
ATOM     28  H4  non d ame      -5.638   6.688  62.297  0.00  0.00     0.036 H 
ENDBRANCH  21  25
ENDBRANCH  16  19
ENDBRANCH  13  15
BRANCH  13  29
ATOM     29  C8  non d ame      -8.750   4.680  70.154  0.00  0.00    -0.049 C 
ATOM     30  H7  non d ame      -7.999   5.422  69.886  0.00  0.00     0.030 H 
ATOM     31  H8  non d ame      -9.171   4.925  71.130  0.00  0.00     0.030 H 
ATOM     32  H9  non d ame      -8.288   3.694  70.195  0.00  0.00     0.030 H 
ENDBRANCH  13  29
ENDBRANCH  10  13
ENDBRANCH   7   9
BRANCH   7  33
ATOM     33  C11 non d ame     -11.398   8.435  72.042  0.00  0.00    -0.033 C 
ATOM     34  H12 non d ame     -10.761   9.303  72.217  0.00  0.00     0.042 H 
BRANCH  33  35
ATOM     35  C12 non d ame     -12.856   8.838  72.426  0.00  0.00    -0.071 C 
ATOM     36  H13 non d ame     -12.982   9.913  72.296  0.00  0.00     0.028 H 
ATOM     37  H14 non d ame     -13.560   8.310  71.784  0.00  0.00     0.028 H 
ATOM     38  H15 non d ame     -13.044   8.573  73.466  0.00  0.00     0.028 H 
ENDBRANCH  33  35
BRANCH  33  39
ATOM     39  C13 non d ame     -10.879   7.265  72.938  0.00  0.00    -0.071 C 
ATOM     40  H16 non d ame     -11.438   7.249  73.874  0.00  0.00     0.028 H 
ATOM     41  H17 non d ame     -11.016   6.318  72.416  0.00  0.00     0.028 H 
ATOM     42  H18 non d ame      -9.821   7.413  73.150  0.00  0.00     0.028 H 
ENDBRANCH  33  39
ENDBRANCH   7  33
ENDBRANCH   4   7
ENDBRANCH   1   3
BRANCH   1  43
ATOM     43  C15 non d ame     -11.204  11.830  67.854  0.00  0.00     0.240 C 
ATOM     44  O5  non d ame     -12.068  12.132  67.094  0.00  0.00    -0.271 OA
ATOM     45  N6  non d ame     -10.932  12.685  69.044  0.00  0.00    -0.355 N 
ATOM     46  H46 non d ame     -10.204  12.437  69.699  0.00  0.00     0.162 HD
BRANCH  45  47
ATOM     47  C20 non d ame     -11.733  13.908  69.267  0.00  0.00     0.013 C 
ATOM     48  H30 non d ame     -12.485  13.963  68.480  0.00  0.00     0.072 H 
BRANCH  47  49
ATOM     49  C21 non d ame     -10.828  15.117  69.203  0.00  0.00    -0.038 C 
ATOM     50  H31 non d ame     -11.359  15.910  69.731  0.00  0.00     0.036 H 
ATOM     51  H32 non d ame      -9.857  14.777  69.563  0.00  0.00     0.036 H 
BRANCH  49  52
ATOM     52  C22 non d ame     -10.606  15.624  67.762  0.00  0.00     0.018 C 
ATOM     53  H33 non d ame      -9.733  15.087  67.391  0.00  0.00     0.048 H 
ATOM     54  H34 non d ame     -11.567  15.516  67.259  0.00  0.00     0.048 H 
BRANCH  52  55
ATOM     55  C23 non d ame     -10.245  17.134  67.678  0.00  0.00     0.259 C 
ATOM     56  O7  non d ame     -11.029  17.960  68.017  0.00  0.00    -0.265 OA
BRANCH  55  57
ATOM     57  O8  non d ame      -8.971  17.519  67.178  0.00  0.00    -0.317 OA
BRANCH  57  58
ATOM     58  C29 non d ame      -8.902  18.881  66.744  0.00  0.00     0.052 C 
ATOM     59  H47 non d ame      -8.643  18.841  65.687  0.00  0.00     0.082 H 
ATOM     60  H48 non d ame      -9.841  19.338  67.057  0.00  0.00     0.082 H 
BRANCH  58  61
ATOM     61  C35 non d ame      -7.742  19.570  67.510  0.00  0.00    -0.034 A 
ATOM     62  C30 non d ame      -6.958  20.526  66.873  0.00  0.00    -0.075 A 
ATOM     63  C31 non d ame      -5.915  21.145  67.560  0.00  0.00    -0.082 A 
ATOM     64  H49 non d ame      -7.160  20.790  65.835  0.00  0.00     0.084 H 
ATOM     65  C32 non d ame      -5.657  20.803  68.890  0.00  0.00    -0.083 A 
ATOM     66  H50 non d ame      -5.304  21.895  67.059  0.00  0.00     0.083 H 
ATOM     67  C33 non d ame      -6.440  19.846  69.522  0.00  0.00    -0.082 A 
ATOM     68  H51 non d ame      -4.844  21.282  69.436  0.00  0.00     0.083 H 
ATOM     69  C34 non d ame      -7.484  19.227  68.838  0.00  0.00    -0.075 A 
ATOM     70  H52 non d ame      -6.234  19.580  70.559  0.00  0.00     0.083 H 
ATOM     71  H53 non d ame      -8.096  18.476  69.342  0.00  0.00     0.084 H 
ENDBRANCH  58  61
ENDBRANCH  57  58
ENDBRANCH  55  57
ENDBRANCH  52  55
ENDBRANCH  49  52
ENDBRANCH  47  49
BRANCH  47  72
ATOM     72  C24 non d ame     -12.403  13.843  70.637  0.00  0.00    -0.039 C 
ATOM     73  H35 non d ame     -13.416  13.488  70.450  0.00  0.00     0.036 H 
ATOM     74  H36 non d ame     -11.728  13.258  71.263  0.00  0.00     0.036 H 
BRANCH  72  75
ATOM     75  C25 non d ame     -12.527  15.294  71.305  0.00  0.00    -0.001 C 
ATOM     76  C26 non d ame     -11.720  15.324  72.737  0.00  0.00    -0.035 C 
ATOM     77  C27 non d ame     -12.546  15.807  73.695  0.00  0.00     0.085 C 
ATOM     78  H38 non d ame     -11.513  14.306  73.070  0.00  0.00     0.036 H 
ATOM     79  H39 non d ame     -10.915  16.059  72.699  0.00  0.00     0.036 H 
ATOM     80  N5  non d ame     -13.941  15.805  73.117  0.00  0.00    -0.049 N 
ATOM     81  H40 non d ame     -12.499  15.088  74.513  0.00  0.00     0.075 H 
ATOM     82  H41 non d ame     -12.231  16.839  73.856  0.00  0.00     0.075 H 
ATOM     83  C28 non d ame     -13.762  15.603  71.525  0.00  0.00     0.193 C 
ATOM     84  H42 non d ame     -14.405  14.991  73.494  0.00  0.00     0.280 HD
ATOM     85  H43 non d ame     -14.322  16.725  73.284  0.00  0.00     0.280 HD
ATOM     86  H44 non d ame     -13.880  16.446  70.844  0.00  0.00     0.129 H 
ATOM     87  H37 non d ame     -12.310  16.094  70.597  0.00  0.00     0.046 H 
BRANCH  83  88
ATOM     88  O6  non d ame     -14.661  14.600  71.052  0.00  0.00    -0.369 OA
ATOM     89  H45 non d ame     -14.196  14.008  70.457  0.00  0.00     0.212 HD
ENDBRANCH  83  88
ENDBRANCH  72  75
ENDBRANCH  47  72
ENDBRANCH  45  47
ENDBRANCH   1  43
BRANCH   1  90
ATOM     90  C16 non d ame     -10.374  10.208  66.121  0.00  0.00    -0.035 C 
ATOM     91  H21 non d ame     -11.264   9.598  65.963  0.00  0.00     0.037 H 
ATOM     92  H22 non d ame     -10.273  11.165  65.611  0.00  0.00     0.037 H 
BRANCH  90  93
ATOM     93  C17 non d ame      -9.159   9.337  65.672  0.00  0.00    -0.059 C 
ATOM     94  H23 non d ame      -9.353   8.311  65.985  0.00  0.00     0.038 H 
BRANCH  93  95
ATOM     95  C18 non d ame      -8.974   9.335  64.121  0.00  0.00    -0.073 C 
ATOM     96  H24 non d ame      -9.883   8.963  63.647  0.00  0.00     0.028 H 
ATOM     97  H25 non d ame      -8.777  10.351  63.777  0.00  0.00     0.028 H 
ATOM     98  H26 non d ame      -8.136   8.692  63.855  0.00  0.00     0.028 H 
ENDBRANCH  93  95
BRANCH  93  99
ATOM     99  C19 non d ame      -7.874   9.789  66.373  0.00  0.00    -0.073 C 
ATOM    100  H27 non d ame      -7.675  10.832  66.128  0.00  0.00     0.028 H 
ATOM    101  H28 non d ame      -7.993   9.684  67.451  0.00  0.00     0.028 H 
ATOM    102  H29 non d ame      -7.041   9.172  66.037  0.00  0.00     0.028 H 
ENDBRANCH  93  99
ENDBRANCH  90  93
ENDBRANCH   1  90
TORSDOF 26
ENDMDL
MODEL 8
REMARK VINA RESULT:      -6.2      2.267      6.315
REMARK  26 active torsions:
REMARK  status: ('A' for Active; 'I' for Inactive)
REMARK    1  A    between atoms: C2_2  and  C3_3 
REMARK    2  A    between atoms: C4_6  and  C5_7 
REMARK       I    between atoms: C5_7  and  N2_9 
REMARK    3  A    between atoms: N2_9  and  C6_10 
REMARK    4  A    between atoms: C6_10  and  C7_11 
REMARK    5  A    between atoms: C6_10  and  C8_13 
REMARK       I    between atoms: C7_11  and  N3_14 
REMARK    6  A    between atoms: N3_14  and  C9_15 
REMARK    7  A    between atoms: C9_15  and  C10_16 
REMARK    8  A    between atoms: C9_15  and  C11_18 
REMARK       I    between atoms: C10_16  and  N4_21 
REMARK    9  A    between atoms: C11_18  and  C12_19 
REMARK   10  A    between atoms: C11_18  and  C13_20 
REMARK   11  A    between atoms: N4_21  and  C14_22 
REMARK   12  A    between atoms: C14_22  and  C15_23 
REMARK   13  A    between atoms: C14_22  and  C16_25 
REMARK       I    between atoms: C15_23  and  N6_40 
REMARK   14  A    between atoms: C16_25  and  C17_26 
REMARK   15  A    between atoms: C17_26  and  C18_27 
REMARK   16  A    between atoms: C17_26  and  C19_28 
REMARK   17  A    between atoms: C20_29  and  C21_30 
REMARK   18  A    between atoms: C20_29  and  C24_33 
REMARK   19  A    between atoms: C20_29  and  N6_40 
REMARK   20  A    between atoms: C21_30  and  C22_31 
REMARK   21  A    between atoms: C22_31  and  C23_32 
REMARK   22  A    between atoms: C23_32  and  O8_43 
REMARK   23  A    between atoms: C24_33  and  C25_34 
REMARK   24  A    between atoms: C28_38  and  O6_39 
REMARK   25  A    between atoms: C29_42  and  O8_43 
REMARK   26  A    between atoms: C29_42  and  C35_49 
ROOT
ATOM      1  C14 non d ame     -12.039  13.685  69.601  0.00  0.00     0.089 C 
ATOM      2  H20 non d ame     -13.031  13.571  69.163  0.00  0.00     0.087 H 
ENDROOT
BRANCH   1   3
ATOM      3  N4  non d ame     -11.658  12.399  70.165  0.00  0.00    -0.346 N 
ATOM      4  C10 non d ame     -11.796  11.138  69.349  0.00  0.00     0.241 C 
ATOM      5  O4  non d ame     -12.219  11.184  68.241  0.00  0.00    -0.271 OA
ATOM      6  H19 non d ame     -11.302  12.381  71.111  0.00  0.00     0.163 HD
BRANCH   4   7
ATOM      7  C9  non d ame     -11.391   9.816  69.946  0.00  0.00     0.092 C 
ATOM      8  H11 non d ame     -11.775   9.008  69.323  0.00  0.00     0.088 H 
BRANCH   7   9
ATOM      9  N3  non d ame      -9.930   9.706  69.945  0.00  0.00    -0.346 N 
ATOM     10  C7  non d ame      -9.286   8.659  69.191  0.00  0.00     0.240 C 
ATOM     11  O3  non d ame      -9.929   7.895  68.580  0.00  0.00    -0.271 OA
ATOM     12  H10 non d ame      -9.362  10.356  70.469  0.00  0.00     0.163 HD
BRANCH  10  13
ATOM     13  C6  non d ame      -7.730   8.545  69.196  0.00  0.00     0.086 C 
ATOM     14  H6  non d ame      -7.377   7.608  69.625  0.00  0.00     0.086 H 
BRANCH  13  15
ATOM     15  N2  non d ame      -7.250   8.582  67.825  0.00  0.00    -0.343 N 
ATOM     16  C5  non d ame      -6.835   7.338  67.173  0.00  0.00     0.273 C 
ATOM     17  O2  non d ame      -6.889   6.314  67.761  0.00  0.00    -0.266 OA
ATOM     18  H5  non d ame      -7.205   9.461  67.331  0.00  0.00     0.163 HD
BRANCH  16  19
ATOM     19  C4  non d ame      -6.328   7.361  65.722  0.00  0.00     0.154 A 
ATOM     20  C1  non d ame      -5.751   8.471  65.026  0.00  0.00    -0.017 A 
ATOM     21  C2  non d ame      -5.456   7.977  63.736  0.00  0.00     0.077 A 
ATOM     22  H1  non d ame      -5.575   9.480  65.399  0.00  0.00     0.091 H 
ATOM     23  O1  non d ame      -5.822   6.728  63.706  0.00  0.00    -0.218 OA
ATOM     24  N1  non d ame      -6.334   6.347  64.853  0.00  0.00    -0.123 NA
BRANCH  21  25
ATOM     25  C3  non d ame      -4.824   8.760  62.593  0.00  0.00    -0.029 C 
ATOM     26  H2  non d ame      -4.611   8.086  61.763  0.00  0.00     0.036 H 
ATOM     27  H3  non d ame      -5.512   9.538  62.262  0.00  0.00     0.036 H 
ATOM     28  H4  non d ame      -3.896   9.219  62.936  0.00  0.00     0.036 H 
ENDBRANCH  21  25
ENDBRANCH  16  19
ENDBRANCH  13  15
BRANCH  13  29
ATOM     29  C8  non d ame      -7.141   9.691  69.979  0.00  0.00    -0.049 C 
ATOM     30  H7  non d ame      -7.920  10.423  70.195  0.00  0.00     0.030 H 
ATOM     31  H8  non d ame      -6.727   9.316  70.916  0.00  0.00     0.030 H 
ATOM     32  H9  non d ame      -6.352  10.163  69.396  0.00  0.00     0.030 H 
ENDBRANCH  13  29
ENDBRANCH  10  13
ENDBRANCH   7   9
BRANCH   7  33
ATOM     33  C11 non d ame     -11.915   9.726  71.410  0.00  0.00    -0.033 C 
ATOM     34  H12 non d ame     -11.625  10.645  71.920  0.00  0.00     0.042 H 
BRANCH  33  35
ATOM     35  C12 non d ame     -13.472   9.638  71.452  0.00  0.00    -0.071 C 
ATOM     36  H13 non d ame     -13.773   8.848  72.141  0.00  0.00     0.028 H 
ATOM     37  H14 non d ame     -13.881  10.590  71.790  0.00  0.00     0.028 H 
ATOM     38  H15 non d ame     -13.850   9.414  70.454  0.00  0.00     0.028 H 
ENDBRANCH  33  35
BRANCH  33  39
ATOM     39  C13 non d ame     -11.259   8.526  72.165  0.00  0.00    -0.071 C 
ATOM     40  H16 non d ame     -11.093   7.705  71.468  0.00  0.00     0.028 H 
ATOM     41  H17 non d ame     -10.306   8.840  72.590  0.00  0.00     0.028 H 
ATOM     42  H18 non d ame     -11.922   8.195  72.964  0.00  0.00     0.028 H 
ENDBRANCH  33  39
ENDBRANCH   7  33
ENDBRANCH   4   7
ENDBRANCH   1   3
BRANCH   1  43
ATOM     43  C15 non d ame     -10.974  14.098  68.545  0.00  0.00     0.240 C 
ATOM     44  O5  non d ame      -9.834  14.202  68.865  0.00  0.00    -0.271 OA
ATOM     45  N6  non d ame     -11.374  14.354  67.132  0.00  0.00    -0.355 N 
ATOM     46  H46 non d ame     -12.339  14.265  66.847  0.00  0.00     0.162 HD
BRANCH  45  47
ATOM     47  C20 non d ame     -10.349  14.745  66.140  0.00  0.00     0.013 C 
ATOM     48  H30 non d ame      -9.369  14.563  66.581  0.00  0.00     0.072 H 
BRANCH  47  49
ATOM     49  C21 non d ame     -10.504  16.213  65.812  0.00  0.00    -0.038 C 
ATOM     50  H31 non d ame      -9.850  16.395  64.959  0.00  0.00     0.036 H 
ATOM     51  H32 non d ame     -11.578  16.382  65.722  0.00  0.00     0.036 H 
BRANCH  49  52
ATOM     52  C22 non d ame     -10.010  17.136  66.947  0.00  0.00     0.018 C 
ATOM     53  H33 non d ame     -10.826  17.835  67.135  0.00  0.00     0.048 H 
ATOM     54  H34 non d ame      -9.668  16.471  67.740  0.00  0.00     0.048 H 
BRANCH  52  55
ATOM     55  C23 non d ame      -8.783  18.006  66.556  0.00  0.00     0.259 C 
ATOM     56  O7  non d ame      -8.026  17.637  65.718  0.00  0.00    -0.265 OA
BRANCH  55  57
ATOM     57  O8  non d ame      -8.566  19.243  67.222  0.00  0.00    -0.317 OA
BRANCH  57  58
ATOM     58  C29 non d ame      -8.221  19.110  68.604  0.00  0.00     0.052 C 
ATOM     59  H47 non d ame      -8.966  19.686  69.151  0.00  0.00     0.082 H 
ATOM     60  H48 non d ame      -8.124  18.039  68.781  0.00  0.00     0.082 H 
BRANCH  58  61
ATOM     61  C35 non d ame      -6.834  19.771  68.818  0.00  0.00    -0.034 A 
ATOM     62  C30 non d ame      -6.069  20.155  67.721  0.00  0.00    -0.075 A 
ATOM     63  C31 non d ame      -4.822  20.748  67.913  0.00  0.00    -0.082 A 
ATOM     64  H49 non d ame      -6.445  19.990  66.712  0.00  0.00     0.084 H 
ATOM     65  C32 non d ame      -4.340  20.956  69.208  0.00  0.00    -0.083 A 
ATOM     66  H50 non d ame      -4.226  21.050  67.052  0.00  0.00     0.083 H 
ATOM     67  C33 non d ame      -5.105  20.569  70.300  0.00  0.00    -0.082 A 
ATOM     68  H51 non d ame      -3.367  21.420  69.367  0.00  0.00     0.083 H 
ATOM     69  C34 non d ame      -6.353  19.977  70.112  0.00  0.00    -0.075 A 
ATOM     70  H52 non d ame      -4.726  20.730  71.309  0.00  0.00     0.083 H 
ATOM     71  H53 non d ame      -6.949  19.676  70.975  0.00  0.00     0.084 H 
ENDBRANCH  58  61
ENDBRANCH  57  58
ENDBRANCH  55  57
ENDBRANCH  52  55
ENDBRANCH  49  52
ENDBRANCH  47  49
BRANCH  47  72
ATOM     72  C24 non d ame     -10.520  13.917  64.868  0.00  0.00    -0.039 C 
ATOM     73  H35 non d ame     -11.349  14.378  64.330  0.00  0.00     0.036 H 
ATOM     74  H36 non d ame      -9.531  13.876  64.412  0.00  0.00     0.036 H 
BRANCH  72  75
ATOM     75  C25 non d ame     -10.952  12.409  65.196  0.00  0.00    -0.001 C 
ATOM     76  C26 non d ame      -9.637  11.539  65.663  0.00  0.00    -0.035 C 
ATOM     77  C27 non d ame      -9.580  10.405  64.926  0.00  0.00     0.085 C 
ATOM     78  H38 non d ame      -8.724  12.067  65.390  0.00  0.00     0.036 H 
ATOM     79  H39 non d ame      -9.772  11.175  66.682  0.00  0.00     0.036 H 
ATOM     80  N5  non d ame     -10.545  10.574  63.779  0.00  0.00    -0.049 N 
ATOM     81  H40 non d ame      -8.564  10.363  64.533  0.00  0.00     0.075 H 
ATOM     82  H41 non d ame      -9.944   9.613  65.582  0.00  0.00     0.075 H 
ATOM     83  C28 non d ame     -11.475  11.838  64.163  0.00  0.00     0.193 C 
ATOM     84  H42 non d ame      -9.989  10.818  62.971  0.00  0.00     0.280 HD
ATOM     85  H43 non d ame     -11.121   9.745  63.763  0.00  0.00     0.280 HD
ATOM     86  H44 non d ame     -12.496  11.687  64.514  0.00  0.00     0.129 H 
ATOM     87  H37 non d ame     -11.831  12.362  65.838  0.00  0.00     0.046 H 
BRANCH  83  88
ATOM     88  O6  non d ame     -11.581  12.727  63.050  0.00  0.00    -0.369 OA
ATOM     89  H45 non d ame     -11.474  13.631  63.352  0.00  0.00     0.212 HD
ENDBRANCH  83  88
ENDBRANCH  72  75
ENDBRANCH  47  72
ENDBRANCH  45  47
ENDBRANCH   1  43
BRANCH   1  90
ATOM     90  C16 non d ame     -12.084  14.721  70.713  0.00  0.00    -0.035 C 
ATOM     91  H21 non d ame     -11.085  14.721  71.148  0.00  0.00     0.037 H 
ATOM     92  H22 non d ame     -12.476  15.626  70.249  0.00  0.00     0.037 H 
BRANCH  90  93
ATOM     93  C17 non d ame     -13.068  14.356  71.870  0.00  0.00    -0.059 C 
ATOM     94  H23 non d ame     -13.078  13.271  71.965  0.00  0.00     0.038 H 
BRANCH  93  95
ATOM     95  C18 non d ame     -12.614  14.951  73.241  0.00  0.00    -0.073 C 
ATOM     96  H24 non d ame     -12.233  15.962  73.090  0.00  0.00     0.028 H 
ATOM     97  H25 non d ame     -13.463  14.981  73.923  0.00  0.00     0.028 H 
ATOM     98  H26 non d ame     -11.829  14.326  73.666  0.00  0.00     0.028 H 
ENDBRANCH  93  95
BRANCH  93  99
ATOM     99  C19 non d ame     -14.496  14.795  71.532  0.00  0.00    -0.073 C 
ATOM    100  H27 non d ame     -15.018  15.067  72.448  0.00  0.00     0.028 H 
ATOM    101  H28 non d ame     -14.463  15.654  70.862  0.00  0.00     0.028 H 
ATOM    102  H29 non d ame     -15.021  13.974  71.044  0.00  0.00     0.028 H 
ENDBRANCH  93  99
ENDBRANCH  90  93
ENDBRANCH   1  90
TORSDOF 26
ENDMDL
MODEL 9
REMARK VINA RESULT:      -6.1      2.458      5.570
REMARK  26 active torsions:
REMARK  status: ('A' for Active; 'I' for Inactive)
REMARK    1  A    between atoms: C2_2  and  C3_3 
REMARK    2  A    between atoms: C4_6  and  C5_7 
REMARK       I    between atoms: C5_7  and  N2_9 
REMARK    3  A    between atoms: N2_9  and  C6_10 
REMARK    4  A    between atoms: C6_10  and  C7_11 
REMARK    5  A    between atoms: C6_10  and  C8_13 
REMARK       I    between atoms: C7_11  and  N3_14 
REMARK    6  A    between atoms: N3_14  and  C9_15 
REMARK    7  A    between atoms: C9_15  and  C10_16 
REMARK    8  A    between atoms: C9_15  and  C11_18 
REMARK       I    between atoms: C10_16  and  N4_21 
REMARK    9  A    between atoms: C11_18  and  C12_19 
REMARK   10  A    between atoms: C11_18  and  C13_20 
REMARK   11  A    between atoms: N4_21  and  C14_22 
REMARK   12  A    between atoms: C14_22  and  C15_23 
REMARK   13  A    between atoms: C14_22  and  C16_25 
REMARK       I    between atoms: C15_23  and  N6_40 
REMARK   14  A    between atoms: C16_25  and  C17_26 
REMARK   15  A    between atoms: C17_26  and  C18_27 
REMARK   16  A    between atoms: C17_26  and  C19_28 
REMARK   17  A    between atoms: C20_29  and  C21_30 
REMARK   18  A    between atoms: C20_29  and  C24_33 
REMARK   19  A    between atoms: C20_29  and  N6_40 
REMARK   20  A    between atoms: C21_30  and  C22_31 
REMARK   21  A    between atoms: C22_31  and  C23_32 
REMARK   22  A    between atoms: C23_32  and  O8_43 
REMARK   23  A    between atoms: C24_33  and  C25_34 
REMARK   24  A    between atoms: C28_38  and  O6_39 
REMARK   25  A    between atoms: C29_42  and  O8_43 
REMARK   26  A    between atoms: C29_42  and  C35_49 
ROOT
ATOM      1  C14 non d ame     -10.496  10.579  67.635  0.00  0.00     0.089 C 
ATOM      2  H20 non d ame      -9.474  10.659  68.005  0.00  0.00     0.087 H 
ENDROOT
BRANCH   1   3
ATOM      3  N4  non d ame     -11.139   9.490  68.353  0.00  0.00    -0.346 N 
ATOM      4  C10 non d ame     -10.799   9.224  69.799  0.00  0.00     0.241 C 
ATOM      5  O4  non d ame     -10.002   9.900  70.361  0.00  0.00    -0.271 OA
ATOM      6  H19 non d ame     -11.813   8.925  67.855  0.00  0.00     0.163 HD
BRANCH   4   7
ATOM      7  C9  non d ame     -11.479   8.096  70.528  0.00  0.00     0.092 C 
ATOM      8  H11 non d ame     -12.418   7.860  70.029  0.00  0.00     0.088 H 
BRANCH   7   9
ATOM      9  N3  non d ame     -10.640   6.895  70.462  0.00  0.00    -0.346 N 
ATOM     10  C7  non d ame     -10.799   5.963  69.373  0.00  0.00     0.240 C 
ATOM     11  O3  non d ame     -11.599   6.164  68.542  0.00  0.00    -0.271 OA
ATOM     12  H10 non d ame      -9.948   6.708  71.173  0.00  0.00     0.163 HD
BRANCH  10  13
ATOM     13  C6  non d ame      -9.906   4.686  69.310  0.00  0.00     0.086 C 
ATOM     14  H6  non d ame     -10.487   3.764  69.317  0.00  0.00     0.086 H 
BRANCH  13  15
ATOM     15  N2  non d ame      -9.158   4.696  68.064  0.00  0.00    -0.343 N 
ATOM     16  C5  non d ame      -8.338   5.861  67.725  0.00  0.00     0.273 C 
ATOM     17  O2  non d ame      -8.289   6.786  68.459  0.00  0.00    -0.266 OA
ATOM     18  H5  non d ame      -9.207   3.903  67.441  0.00  0.00     0.163 HD
BRANCH  16  19
ATOM     19  C4  non d ame      -7.539   5.884  66.412  0.00  0.00     0.154 A 
ATOM     20  C1  non d ame      -8.060   5.789  65.082  0.00  0.00    -0.017 A 
ATOM     21  C2  non d ame      -6.926   5.859  64.242  0.00  0.00     0.077 A 
ATOM     22  H1  non d ame      -9.100   5.684  64.773  0.00  0.00     0.091 H 
ATOM     23  O1  non d ame      -5.882   5.983  65.009  0.00  0.00    -0.218 OA
ATOM     24  N1  non d ame      -6.215   5.999  66.280  0.00  0.00    -0.123 NA
BRANCH  21  25
ATOM     25  C3  non d ame      -6.926   5.804  62.720  0.00  0.00    -0.029 C 
ATOM     26  H2  non d ame      -6.322   4.959  62.386  0.00  0.00     0.036 H 
ATOM     27  H3  non d ame      -7.949   5.683  62.362  0.00  0.00     0.036 H 
ATOM     28  H4  non d ame      -6.509   6.729  62.322  0.00  0.00     0.036 H 
ENDBRANCH  21  25
ENDBRANCH  16  19
ENDBRANCH  13  15
BRANCH  13  29
ATOM     29  C8  non d ame      -8.957   4.674  70.481  0.00  0.00    -0.049 C 
ATOM     30  H7  non d ame      -7.931   4.744  70.119  0.00  0.00     0.030 H 
ATOM     31  H8  non d ame      -9.172   5.523  71.131  0.00  0.00     0.030 H 
ATOM     32  H9  non d ame      -9.082   3.747  71.040  0.00  0.00     0.030 H 
ENDBRANCH  13  29
ENDBRANCH  10  13
ENDBRANCH   7   9
BRANCH   7  33
ATOM     33  C11 non d ame     -11.692   8.495  72.018  0.00  0.00    -0.033 C 
ATOM     34  H12 non d ame     -11.073   9.370  72.215  0.00  0.00     0.042 H 
BRANCH  33  35
ATOM     35  C12 non d ame     -13.174   8.898  72.292  0.00  0.00    -0.071 C 
ATOM     36  H13 non d ame     -13.371   9.877  71.854  0.00  0.00     0.028 H 
ATOM     37  H14 non d ame     -13.840   8.160  71.845  0.00  0.00     0.028 H 
ATOM     38  H15 non d ame     -13.347   8.938  73.367  0.00  0.00     0.028 H 
ENDBRANCH  33  35
BRANCH  33  39
ATOM     39  C13 non d ame     -11.230   7.350  72.975  0.00  0.00    -0.071 C 
ATOM     40  H16 non d ame     -10.885   6.501  72.386  0.00  0.00     0.028 H 
ATOM     41  H17 non d ame     -10.417   7.709  73.607  0.00  0.00     0.028 H 
ATOM     42  H18 non d ame     -12.067   7.041  73.601  0.00  0.00     0.028 H 
ENDBRANCH  33  39
ENDBRANCH   7  33
ENDBRANCH   4   7
ENDBRANCH   1   3
BRANCH   1  43
ATOM     43  C15 non d ame     -11.311  11.882  67.877  0.00  0.00     0.240 C 
ATOM     44  O5  non d ame     -12.073  12.265  67.048  0.00  0.00    -0.271 OA
ATOM     45  N6  non d ame     -11.150  12.647  69.146  0.00  0.00    -0.355 N 
ATOM     46  H46 non d ame     -10.509  12.330  69.859  0.00  0.00     0.162 HD
BRANCH  45  47
ATOM     47  C20 non d ame     -11.934  13.883  69.361  0.00  0.00     0.013 C 
ATOM     48  H30 non d ame     -12.726  13.912  68.613  0.00  0.00     0.072 H 
BRANCH  47  49
ATOM     49  C21 non d ame     -11.029  15.084  69.201  0.00  0.00    -0.038 C 
ATOM     50  H31 non d ame     -11.355  15.801  69.954  0.00  0.00     0.036 H 
ATOM     51  H32 non d ame     -10.012  14.690  69.226  0.00  0.00     0.036 H 
BRANCH  49  52
ATOM     52  C22 non d ame     -11.193  15.780  67.833  0.00  0.00     0.018 C 
ATOM     53  H33 non d ame     -10.760  15.097  67.100  0.00  0.00     0.048 H 
ATOM     54  H34 non d ame     -12.245  16.055  67.766  0.00  0.00     0.048 H 
BRANCH  52  55
ATOM     55  C23 non d ame     -10.392  17.106  67.705  0.00  0.00     0.259 C 
ATOM     56  O7  non d ame     -10.927  18.151  67.885  0.00  0.00    -0.265 OA
BRANCH  55  57
ATOM     57  O8  non d ame      -9.014  17.058  67.358  0.00  0.00    -0.317 OA
BRANCH  57  58
ATOM     58  C29 non d ame      -8.679  16.009  66.444  0.00  0.00     0.052 C 
ATOM     59  H47 non d ame      -9.615  15.495  66.229  0.00  0.00     0.082 H 
ATOM     60  H48 non d ame      -8.123  16.488  65.638  0.00  0.00     0.082 H 
BRANCH  58  61
ATOM     61  C35 non d ame      -7.732  15.021  67.175  0.00  0.00    -0.034 A 
ATOM     62  C30 non d ame      -8.099  13.688  67.328  0.00  0.00    -0.075 A 
ATOM     63  C31 non d ame      -7.248  12.801  67.984  0.00  0.00    -0.082 A 
ATOM     64  H49 non d ame      -9.052  13.339  66.933  0.00  0.00     0.084 H 
ATOM     65  C32 non d ame      -6.027  13.251  68.492  0.00  0.00    -0.083 A 
ATOM     66  H50 non d ame      -7.538  11.757  68.101  0.00  0.00     0.083 H 
ATOM     67  C33 non d ame      -5.665  14.583  68.341  0.00  0.00    -0.082 A 
ATOM     68  H51 non d ame      -5.355  12.564  69.007  0.00  0.00     0.083 H 
ATOM     69  C34 non d ame      -6.512  15.473  67.682  0.00  0.00    -0.075 A 
ATOM     70  H52 non d ame      -4.713  14.932  68.740  0.00  0.00     0.083 H 
ATOM     71  H53 non d ame      -6.221  16.518  67.566  0.00  0.00     0.084 H 
ENDBRANCH  58  61
ENDBRANCH  57  58
ENDBRANCH  55  57
ENDBRANCH  52  55
ENDBRANCH  49  52
ENDBRANCH  47  49
BRANCH  47  72
ATOM     72  C24 non d ame     -12.530  13.877  70.767  0.00  0.00    -0.039 C 
ATOM     73  H35 non d ame     -13.523  13.441  70.660  0.00  0.00     0.036 H 
ATOM     74  H36 non d ame     -11.786  13.389  71.397  0.00  0.00     0.036 H 
BRANCH  72  75
ATOM     75  C25 non d ame     -12.725  15.363  71.333  0.00  0.00    -0.001 C 
ATOM     76  C26 non d ame     -11.688  15.629  72.581  0.00  0.00    -0.035 C 
ATOM     77  C27 non d ame     -12.388  16.106  73.637  0.00  0.00     0.085 C 
ATOM     78  H38 non d ame     -11.292  14.681  72.946  0.00  0.00     0.036 H 
ATOM     79  H39 non d ame     -11.008  16.445  72.336  0.00  0.00     0.036 H 
ATOM     80  N5  non d ame     -13.850  15.884  73.335  0.00  0.00    -0.049 N 
ATOM     81  H40 non d ame     -12.101  15.482  74.484  0.00  0.00     0.075 H 
ATOM     82  H41 non d ame     -12.190  17.178  73.658  0.00  0.00     0.075 H 
ATOM     83  C28 non d ame     -13.931  15.547  71.758  0.00  0.00     0.193 C 
ATOM     84  H42 non d ame     -14.128  15.062  73.853  0.00  0.00     0.280 HD
ATOM     85  H43 non d ame     -14.314  16.765  73.500  0.00  0.00     0.280 HD
ATOM     86  H44 non d ame     -14.280  16.298  71.049  0.00  0.00     0.129 H 
ATOM     87  H37 non d ame     -12.746  16.109  70.539  0.00  0.00     0.046 H 
BRANCH  83  88
ATOM     88  O6  non d ame     -14.759  14.404  71.541  0.00  0.00    -0.369 OA
ATOM     89  H45 non d ame     -14.738  13.841  72.318  0.00  0.00     0.212 HD
ENDBRANCH  83  88
ENDBRANCH  72  75
ENDBRANCH  47  72
ENDBRANCH  45  47
ENDBRANCH   1  43
BRANCH   1  90
ATOM     90  C16 non d ame     -10.481  10.255  66.149  0.00  0.00    -0.035 C 
ATOM     91  H21 non d ame     -11.391   9.681  65.971  0.00  0.00     0.037 H 
ATOM     92  H22 non d ame     -10.333  11.210  65.647  0.00  0.00     0.037 H 
BRANCH  90  93
ATOM     93  C17 non d ame      -9.291   9.339  65.720  0.00  0.00    -0.059 C 
ATOM     94  H23 non d ame      -9.578   8.308  65.924  0.00  0.00     0.038 H 
BRANCH  93  95
ATOM     95  C18 non d ame      -8.978   9.455  64.195  0.00  0.00    -0.073 C 
ATOM     96  H24 non d ame      -8.891  10.506  63.920  0.00  0.00     0.028 H 
ATOM     97  H25 non d ame      -8.039   8.945  63.977  0.00  0.00     0.028 H 
ATOM     98  H26 non d ame      -9.782   8.994  63.622  0.00  0.00     0.028 H 
ENDBRANCH  93  95
BRANCH  93  99
ATOM     99  C19 non d ame      -8.044   9.637  66.557  0.00  0.00    -0.073 C 
ATOM    100  H27 non d ame      -7.876   8.821  67.260  0.00  0.00     0.028 H 
ATOM    101  H28 non d ame      -7.180   9.734  65.900  0.00  0.00     0.028 H 
ATOM    102  H29 non d ame      -8.189  10.566  67.107  0.00  0.00     0.028 H 
ENDBRANCH  93  99
ENDBRANCH  90  93
ENDBRANCH   1  90
TORSDOF 26
ENDMDL
MODEL 10
REMARK VINA RESULT:      -6.1      3.036      9.041
REMARK  26 active torsions:
REMARK  status: ('A' for Active; 'I' for Inactive)
REMARK    1  A    between atoms: C2_2  and  C3_3 
REMARK    2  A    between atoms: C4_6  and  C5_7 
REMARK       I    between atoms: C5_7  and  N2_9 
REMARK    3  A    between atoms: N2_9  and  C6_10 
REMARK    4  A    between atoms: C6_10  and  C7_11 
REMARK    5  A    between atoms: C6_10  and  C8_13 
REMARK       I    between atoms: C7_11  and  N3_14 
REMARK    6  A    between atoms: N3_14  and  C9_15 
REMARK    7  A    between atoms: C9_15  and  C10_16 
REMARK    8  A    between atoms: C9_15  and  C11_18 
REMARK       I    between atoms: C10_16  and  N4_21 
REMARK    9  A    between atoms: C11_18  and  C12_19 
REMARK   10  A    between atoms: C11_18  and  C13_20 
REMARK   11  A    between atoms: N4_21  and  C14_22 
REMARK   12  A    between atoms: C14_22  and  C15_23 
REMARK   13  A    between atoms: C14_22  and  C16_25 
REMARK       I    between atoms: C15_23  and  N6_40 
REMARK   14  A    between atoms: C16_25  and  C17_26 
REMARK   15  A    between atoms: C17_26  and  C18_27 
REMARK   16  A    between atoms: C17_26  and  C19_28 
REMARK   17  A    between atoms: C20_29  and  C21_30 
REMARK   18  A    between atoms: C20_29  and  C24_33 
REMARK   19  A    between atoms: C20_29  and  N6_40 
REMARK   20  A    between atoms: C21_30  and  C22_31 
REMARK   21  A    between atoms: C22_31  and  C23_32 
REMARK   22  A    between atoms: C23_32  and  O8_43 
REMARK   23  A    between atoms: C24_33  and  C25_34 
REMARK   24  A    between atoms: C28_38  and  O6_39 
REMARK   25  A    between atoms: C29_42  and  O8_43 
REMARK   26  A    between atoms: C29_42  and  C35_49 
ROOT
ATOM      1  C14 non d ame      -8.033   8.126  63.550  0.00  0.00     0.089 C 
ATOM      2  H20 non d ame      -8.698   8.507  62.775  0.00  0.00     0.087 H 
ENDROOT
BRANCH   1   3
ATOM      3  N4  non d ame      -8.131   9.023  64.691  0.00  0.00    -0.346 N 
ATOM      4  C10 non d ame      -9.142  10.142  64.696  0.00  0.00     0.241 C 
ATOM      5  O4  non d ame      -9.864  10.302  63.768  0.00  0.00    -0.271 OA
ATOM      6  H19 non d ame      -7.505   8.871  65.470  0.00  0.00     0.163 HD
BRANCH   4   7
ATOM      7  C9  non d ame      -9.234  11.058  65.888  0.00  0.00     0.092 C 
ATOM      8  H11 non d ame      -8.298  11.606  65.992  0.00  0.00     0.088 H 
BRANCH   7   9
ATOM      9  N3  non d ame     -10.292  12.048  65.664  0.00  0.00    -0.346 N 
ATOM     10  C7  non d ame     -10.108  13.411  66.097  0.00  0.00     0.240 C 
ATOM     11  O3  non d ame      -9.114  13.729  66.629  0.00  0.00    -0.271 OA
ATOM     12  H10 non d ame     -11.154  11.788  65.208  0.00  0.00     0.163 HD
BRANCH  10  13
ATOM     13  C6  non d ame     -11.239  14.459  65.858  0.00  0.00     0.086 C 
ATOM     14  H6  non d ame     -12.021  14.415  66.616  0.00  0.00     0.086 H 
BRANCH  13  15
ATOM     15  N2  non d ame     -10.667  15.793  65.928  0.00  0.00    -0.343 N 
ATOM     16  C5  non d ame     -10.788  16.565  67.167  0.00  0.00     0.273 C 
ATOM     17  O2  non d ame     -11.348  16.105  68.100  0.00  0.00    -0.266 OA
ATOM     18  H5  non d ame     -10.191  16.180  65.126  0.00  0.00     0.163 HD
BRANCH  16  19
ATOM     19  C4  non d ame     -10.186  17.976  67.256  0.00  0.00     0.154 A 
ATOM     20  C1  non d ame      -8.800  18.330  67.202  0.00  0.00    -0.017 A 
ATOM     21  C2  non d ame      -8.779  19.738  67.327  0.00  0.00     0.077 A 
ATOM     22  H1  non d ame      -7.941  17.668  67.089  0.00  0.00     0.091 H 
ATOM     23  O1  non d ame     -10.014  20.135  67.437  0.00  0.00    -0.218 OA
ATOM     24  N1  non d ame     -10.852  19.125  67.400  0.00  0.00    -0.123 NA
BRANCH  21  25
ATOM     25  C3  non d ame      -7.541  20.624  67.329  0.00  0.00    -0.029 C 
ATOM     26  H2  non d ame      -7.125  20.670  66.321  0.00  0.00     0.036 H 
ATOM     27  H3  non d ame      -7.814  21.627  67.655  0.00  0.00     0.036 H 
ATOM     28  H4  non d ame      -6.798  20.210  68.010  0.00  0.00     0.036 H 
ENDBRANCH  21  25
ENDBRANCH  16  19
ENDBRANCH  13  15
BRANCH  13  29
ATOM     29  C8  non d ame     -11.859  14.234  64.503  0.00  0.00    -0.049 C 
ATOM     30  H7  non d ame     -12.111  15.195  64.054  0.00  0.00     0.030 H 
ATOM     31  H8  non d ame     -11.150  13.708  63.862  0.00  0.00     0.030 H 
ATOM     32  H9  non d ame     -12.763  13.636  64.611  0.00  0.00     0.030 H 
ENDBRANCH  13  29
ENDBRANCH  10  13
ENDBRANCH   7   9
BRANCH   7  33
ATOM     33  C11 non d ame      -9.568  10.224  67.159  0.00  0.00    -0.033 C 
ATOM     34  H12 non d ame      -9.294   9.188  66.954  0.00  0.00     0.042 H 
BRANCH  33  35
ATOM     35  C12 non d ame      -8.728  10.696  68.387  0.00  0.00    -0.071 C 
ATOM     36  H13 non d ame      -8.359   9.827  68.930  0.00  0.00     0.028 H 
ATOM     37  H14 non d ame      -7.885  11.294  68.041  0.00  0.00     0.028 H 
ATOM     38  H15 non d ame      -9.354  11.299  69.044  0.00  0.00     0.028 H 
ENDBRANCH  33  35
BRANCH  33  39
ATOM     39  C13 non d ame     -11.098  10.267  67.470  0.00  0.00    -0.071 C 
ATOM     40  H16 non d ame     -11.578  11.007  66.830  0.00  0.00     0.028 H 
ATOM     41  H17 non d ame     -11.536   9.286  67.282  0.00  0.00     0.028 H 
ATOM     42  H18 non d ame     -11.249  10.538  68.515  0.00  0.00     0.028 H 
ENDBRANCH  33  39
ENDBRANCH   7  33
ENDBRANCH   4   7
ENDBRANCH   1   3
BRANCH   1  43
ATOM     43  C15 non d ame      -8.426   6.693  64.011  0.00  0.00     0.240 C 
ATOM     44  O5  non d ame      -8.274   5.772  63.274  0.00  0.00    -0.271 OA
ATOM     45  N6  non d ame      -8.985   6.467  65.374  0.00  0.00    -0.355 N 
ATOM     46  H46 non d ame      -9.115   7.240  66.010  0.00  0.00     0.162 HD
BRANCH  45  47
ATOM     47  C20 non d ame      -9.353   5.098  65.797  0.00  0.00     0.013 C 
ATOM     48  H30 non d ame      -9.579   4.520  64.902  0.00  0.00     0.072 H 
BRANCH  47  49
ATOM     49  C21 non d ame     -10.570   5.162  66.692  0.00  0.00    -0.038 C 
ATOM     50  H31 non d ame     -11.425   4.982  66.040  0.00  0.00     0.036 H 
ATOM     51  H32 non d ame     -10.361   4.482  67.520  0.00  0.00     0.036 H 
BRANCH  49  52
ATOM     52  C22 non d ame     -10.782   6.557  67.317  0.00  0.00     0.018 C 
ATOM     53  H33 non d ame      -9.955   7.171  66.959  0.00  0.00     0.048 H 
ATOM     54  H34 non d ame     -11.810   6.834  67.079  0.00  0.00     0.048 H 
BRANCH  52  55
ATOM     55  C23 non d ame     -10.682   6.570  68.868  0.00  0.00     0.259 C 
ATOM     56  O7  non d ame     -11.233   5.738  69.514  0.00  0.00    -0.265 OA
BRANCH  55  57
ATOM     57  O8  non d ame      -9.937   7.596  69.511  0.00  0.00    -0.317 OA
BRANCH  57  58
ATOM     58  C29 non d ame     -10.107   7.640  70.931  0.00  0.00     0.052 C 
ATOM     59  H47 non d ame     -10.372   6.626  71.227  0.00  0.00     0.082 H 
ATOM     60  H48 non d ame      -9.201   8.103  71.322  0.00  0.00     0.082 H 
BRANCH  58  61
ATOM     61  C35 non d ame     -11.308   8.573  71.241  0.00  0.00    -0.034 A 
ATOM     62  C30 non d ame     -11.278   9.903  70.837  0.00  0.00    -0.075 A 
ATOM     63  C31 non d ame     -12.356  10.742  71.115  0.00  0.00    -0.082 A 
ATOM     64  H49 non d ame     -10.411  10.289  70.303  0.00  0.00     0.084 H 
ATOM     65  C32 non d ame     -13.467  10.245  71.803  0.00  0.00    -0.083 A 
ATOM     66  H50 non d ame     -12.331  11.783  70.796  0.00  0.00     0.083 H 
ATOM     67  C33 non d ame     -13.491   8.917  72.207  0.00  0.00    -0.082 A 
ATOM     68  H51 non d ame     -14.315  10.893  72.024  0.00  0.00     0.083 H 
ATOM     69  C34 non d ame     -12.416   8.075  71.928  0.00  0.00    -0.075 A 
ATOM     70  H52 non d ame     -14.358   8.533  72.745  0.00  0.00     0.083 H 
ATOM     71  H53 non d ame     -12.443   7.032  72.248  0.00  0.00     0.084 H 
ENDBRANCH  58  61
ENDBRANCH  57  58
ENDBRANCH  55  57
ENDBRANCH  52  55
ENDBRANCH  49  52
ENDBRANCH  47  49
BRANCH  47  72
ATOM     72  C24 non d ame      -8.192   4.464  66.559  0.00  0.00    -0.039 C 
ATOM     73  H35 non d ame      -8.613   4.133  67.509  0.00  0.00     0.036 H 
ATOM     74  H36 non d ame      -7.757   3.737  65.874  0.00  0.00     0.036 H 
BRANCH  72  75
ATOM     75  C25 non d ame      -7.049   5.536  66.897  0.00  0.00    -0.001 C 
ATOM     76  C26 non d ame      -5.656   5.135  66.121  0.00  0.00    -0.035 C 
ATOM     77  C27 non d ame      -4.644   5.119  67.020  0.00  0.00     0.085 C 
ATOM     78  H38 non d ame      -5.706   4.102  65.775  0.00  0.00     0.036 H 
ATOM     79  H39 non d ame      -5.372   5.928  65.429  0.00  0.00     0.036 H 
ATOM     80  N5  non d ame      -5.271   5.153  68.392  0.00  0.00    -0.049 N 
ATOM     81  H40 non d ame      -4.144   4.160  66.881  0.00  0.00     0.075 H 
ATOM     82  H41 non d ame      -4.097   6.048  66.857  0.00  0.00     0.075 H 
ATOM     83  C28 non d ame      -6.812   5.581  68.166  0.00  0.00     0.193 C 
ATOM     84  H42 non d ame      -5.249   4.205  68.740  0.00  0.00     0.280 HD
ATOM     85  H43 non d ame      -4.805   5.889  68.903  0.00  0.00     0.280 HD
ATOM     86  H44 non d ame      -7.144   6.594  68.395  0.00  0.00     0.129 H 
ATOM     87  H37 non d ame      -7.400   6.562  66.788  0.00  0.00     0.046 H 
BRANCH  83  88
ATOM     88  O6  non d ame      -7.676   4.718  68.908  0.00  0.00    -0.369 OA
ATOM     89  H45 non d ame      -8.027   5.191  69.665  0.00  0.00     0.212 HD
ENDBRANCH  83  88
ENDBRANCH  72  75
ENDBRANCH  47  72
ENDBRANCH  45  47
ENDBRANCH   1  43
BRANCH   1  90
ATOM     90  C16 non d ame      -6.599   8.124  63.042  0.00  0.00    -0.035 C 
ATOM     91  H21 non d ame      -5.977   8.206  63.933  0.00  0.00     0.037 H 
ATOM     92  H22 non d ame      -6.521   7.245  62.403  0.00  0.00     0.037 H 
BRANCH  90  93
ATOM     93  C17 non d ame      -6.250   9.354  62.146  0.00  0.00    -0.059 C 
ATOM     94  H23 non d ame      -5.486   9.040  61.436  0.00  0.00     0.038 H 
BRANCH  93  95
ATOM     95  C18 non d ame      -7.482   9.859  61.330  0.00  0.00    -0.073 C 
ATOM     96  H24 non d ame      -8.041  10.582  61.925  0.00  0.00     0.028 H 
ATOM     97  H25 non d ame      -7.139  10.334  60.411  0.00  0.00     0.028 H 
ATOM     98  H26 non d ame      -8.126   9.015  61.083  0.00  0.00     0.028 H 
ENDBRANCH  93  95
BRANCH  93  99
ATOM     99  C19 non d ame      -5.651  10.487  62.985  0.00  0.00    -0.073 C 
ATOM    100  H27 non d ame      -4.594  10.599  62.741  0.00  0.00     0.028 H 
ATOM    101  H28 non d ame      -6.175  11.418  62.766  0.00  0.00     0.028 H 
ATOM    102  H29 non d ame      -5.757  10.251  64.043  0.00  0.00     0.028 H 
ENDBRANCH  93  99
ENDBRANCH  90  93
ENDBRANCH   1  90
TORSDOF 26
ENDMDL
MODEL 11
REMARK VINA RESULT:      -6.0      1.966      2.528
REMARK  26 active torsions:
REMARK  status: ('A' for Active; 'I' for Inactive)
REMARK    1  A    between atoms: C2_2  and  C3_3 
REMARK    2  A    between atoms: C4_6  and  C5_7 
REMARK       I    between atoms: C5_7  and  N2_9 
REMARK    3  A    between atoms: N2_9  and  C6_10 
REMARK    4  A    between atoms: C6_10  and  C7_11 
REMARK    5  A    between atoms: C6_10  and  C8_13 
REMARK       I    between atoms: C7_11  and  N3_14 
REMARK    6  A    between atoms: N3_14  and  C9_15 
REMARK    7  A    between atoms: C9_15  and  C10_16 
REMARK    8  A    between atoms: C9_15  and  C11_18 
REMARK       I    between atoms: C10_16  and  N4_21 
REMARK    9  A    between atoms: C11_18  and  C12_19 
REMARK   10  A    between atoms: C11_18  and  C13_20 
REMARK   11  A    between atoms: N4_21  and  C14_22 
REMARK   12  A    between atoms: C14_22  and  C15_23 
REMARK   13  A    between atoms: C14_22  and  C16_25 
REMARK       I    between atoms: C15_23  and  N6_40 
REMARK   14  A    between atoms: C16_25  and  C17_26 
REMARK   15  A    between atoms: C17_26  and  C18_27 
REMARK   16  A    between atoms: C17_26  and  C19_28 
REMARK   17  A    between atoms: C20_29  and  C21_30 
REMARK   18  A    between atoms: C20_29  and  C24_33 
REMARK   19  A    between atoms: C20_29  and  N6_40 
REMARK   20  A    between atoms: C21_30  and  C22_31 
REMARK   21  A    between atoms: C22_31  and  C23_32 
REMARK   22  A    between atoms: C23_32  and  O8_43 
REMARK   23  A    between atoms: C24_33  and  C25_34 
REMARK   24  A    between atoms: C28_38  and  O6_39 
REMARK   25  A    between atoms: C29_42  and  O8_43 
REMARK   26  A    between atoms: C29_42  and  C35_49 
ROOT
ATOM      1  C14 non d ame     -10.908   9.311  69.257  0.00  0.00     0.089 C 
ATOM      2  H20 non d ame     -11.721   8.609  69.075  0.00  0.00     0.087 H 
ENDROOT
BRANCH   1   3
ATOM      3  N4  non d ame      -9.670   8.666  68.847  0.00  0.00    -0.346 N 
ATOM      4  C10 non d ame      -9.667   7.213  68.441  0.00  0.00     0.241 C 
ATOM      5  O4  non d ame     -10.673   6.584  68.456  0.00  0.00    -0.271 OA
ATOM      6  H19 non d ame      -8.824   9.218  68.844  0.00  0.00     0.163 HD
BRANCH   4   7
ATOM      7  C9  non d ame      -8.378   6.562  68.014  0.00  0.00     0.092 C 
ATOM      8  H11 non d ame      -8.466   5.482  68.129  0.00  0.00     0.088 H 
BRANCH   7   9
ATOM      9  N3  non d ame      -8.145   6.827  66.591  0.00  0.00    -0.346 N 
ATOM     10  C7  non d ame      -8.055   5.732  65.658  0.00  0.00     0.240 C 
ATOM     11  O3  non d ame      -8.167   4.629  66.035  0.00  0.00    -0.271 OA
ATOM     12  H10 non d ame      -8.044   7.773  66.251  0.00  0.00     0.163 HD
BRANCH  10  13
ATOM     13  C6  non d ame      -7.803   6.021  64.146  0.00  0.00     0.086 C 
ATOM     14  H6  non d ame      -8.097   5.191  63.502  0.00  0.00     0.086 H 
BRANCH  13  15
ATOM     15  N2  non d ame      -8.607   7.163  63.744  0.00  0.00    -0.343 N 
ATOM     16  C5  non d ame      -8.131   8.517  64.034  0.00  0.00     0.273 C 
ATOM     17  O2  non d ame      -7.101   8.677  64.592  0.00  0.00    -0.266 OA
ATOM     18  H5  non d ame      -9.486   7.018  63.270  0.00  0.00     0.163 HD
BRANCH  16  19
ATOM     19  C4  non d ame      -8.969   9.735  63.613  0.00  0.00     0.154 A 
ATOM     20  C1  non d ame     -10.018  10.361  64.359  0.00  0.00    -0.017 A 
ATOM     21  C2  non d ame     -10.461  11.424  63.541  0.00  0.00     0.077 A 
ATOM     22  H1  non d ame     -10.399  10.087  65.343  0.00  0.00     0.091 H 
ATOM     23  O1  non d ame      -9.743  11.403  62.455  0.00  0.00    -0.218 OA
ATOM     24  N1  non d ame      -8.866  10.425  62.474  0.00  0.00    -0.123 NA
BRANCH  21  25
ATOM     25  C3  non d ame     -11.571  12.413  63.870  0.00  0.00    -0.029 C 
ATOM     26  H2  non d ame     -12.286  11.945  64.548  0.00  0.00     0.036 H 
ATOM     27  H3  non d ame     -11.143  13.295  64.345  0.00  0.00     0.036 H 
ATOM     28  H4  non d ame     -12.081  12.707  62.952  0.00  0.00     0.036 H 
ENDBRANCH  21  25
ENDBRANCH  16  19
ENDBRANCH  13  15
BRANCH  13  29
ATOM     29  C8  non d ame      -6.341   6.315  63.924  0.00  0.00    -0.049 C 
ATOM     30  H7  non d ame      -5.781   6.078  64.828  0.00  0.00     0.030 H 
ATOM     31  H8  non d ame      -5.970   5.709  63.096  0.00  0.00     0.030 H 
ATOM     32  H9  non d ame      -6.215   7.371  63.686  0.00  0.00     0.030 H 
ENDBRANCH  13  29
ENDBRANCH  10  13
ENDBRANCH   7   9
BRANCH   7  33
ATOM     33  C11 non d ame      -7.200   7.145  68.848  0.00  0.00    -0.033 C 
ATOM     34  H12 non d ame      -7.618   7.876  69.540  0.00  0.00     0.042 H 
BRANCH  33  35
ATOM     35  C12 non d ame      -6.503   6.038  69.698  0.00  0.00    -0.071 C 
ATOM     36  H13 non d ame      -7.162   5.738  70.513  0.00  0.00     0.028 H 
ATOM     37  H14 non d ame      -6.290   5.175  69.068  0.00  0.00     0.028 H 
ATOM     38  H15 non d ame      -5.571   6.428  70.107  0.00  0.00     0.028 H 
ENDBRANCH  33  35
BRANCH  33  39
ATOM     39  C13 non d ame      -6.175   7.882  67.928  0.00  0.00    -0.071 C 
ATOM     40  H16 non d ame      -6.255   7.497  66.912  0.00  0.00     0.028 H 
ATOM     41  H17 non d ame      -6.388   8.952  67.929  0.00  0.00     0.028 H 
ATOM     42  H18 non d ame      -5.165   7.712  68.302  0.00  0.00     0.028 H 
ENDBRANCH  33  39
ENDBRANCH   7  33
ENDBRANCH   4   7
ENDBRANCH   1   3
BRANCH   1  43
ATOM     43  C15 non d ame     -11.073  10.627  68.444  0.00  0.00     0.240 C 
ATOM     44  O5  non d ame     -11.608  10.603  67.382  0.00  0.00    -0.271 OA
ATOM     45  N6  non d ame     -10.573  11.920  68.993  0.00  0.00    -0.355 N 
ATOM     46  H46 non d ame     -10.121  11.954  69.895  0.00  0.00     0.162 HD
BRANCH  45  47
ATOM     47  C20 non d ame     -10.739  13.162  68.208  0.00  0.00     0.013 C 
ATOM     48  H30 non d ame     -10.874  12.883  67.163  0.00  0.00     0.072 H 
BRANCH  47  49
ATOM     49  C21 non d ame      -9.502  14.018  68.357  0.00  0.00    -0.038 C 
ATOM     50  H31 non d ame      -9.821  15.038  68.144  0.00  0.00     0.036 H 
ATOM     51  H32 non d ame      -9.088  13.768  69.335  0.00  0.00     0.036 H 
BRANCH  49  52
ATOM     52  C22 non d ame      -8.408  13.677  67.322  0.00  0.00     0.018 C 
ATOM     53  H33 non d ame      -8.093  12.657  67.549  0.00  0.00     0.048 H 
ATOM     54  H34 non d ame      -8.840  13.909  66.349  0.00  0.00     0.048 H 
BRANCH  52  55
ATOM     55  C23 non d ame      -7.133  14.555  67.447  0.00  0.00     0.259 C 
ATOM     56  O7  non d ame      -6.054  14.071  67.331  0.00  0.00    -0.265 OA
BRANCH  55  57
ATOM     57  O8  non d ame      -7.267  15.945  67.716  0.00  0.00    -0.317 OA
BRANCH  57  58
ATOM     58  C29 non d ame      -7.406  16.755  66.545  0.00  0.00     0.052 C 
ATOM     59  H47 non d ame      -6.418  17.171  66.353  0.00  0.00     0.082 H 
ATOM     60  H48 non d ame      -7.882  16.117  65.800  0.00  0.00     0.082 H 
BRANCH  58  61
ATOM     61  C35 non d ame      -8.374  17.921  66.881  0.00  0.00    -0.034 A 
ATOM     62  C30 non d ame      -9.734  17.675  67.032  0.00  0.00    -0.075 A 
ATOM     63  C31 non d ame     -10.604  18.722  67.334  0.00  0.00    -0.082 A 
ATOM     64  H49 non d ame     -10.120  16.663  66.913  0.00  0.00     0.084 H 
ATOM     65  C32 non d ame     -10.107  20.020  67.483  0.00  0.00    -0.083 A 
ATOM     66  H50 non d ame     -11.669  18.526  67.453  0.00  0.00     0.083 H 
ATOM     67  C33 non d ame      -8.749  20.262  67.329  0.00  0.00    -0.082 A 
ATOM     68  H51 non d ame     -10.780  20.845  67.719  0.00  0.00     0.083 H 
ATOM     69  C34 non d ame      -7.876  19.217  67.029  0.00  0.00    -0.075 A 
ATOM     70  H52 non d ame      -8.365  21.276  67.443  0.00  0.00     0.083 H 
ATOM     71  H53 non d ame      -6.810  19.415  66.910  0.00  0.00     0.084 H 
ENDBRANCH  58  61
ENDBRANCH  57  58
ENDBRANCH  55  57
ENDBRANCH  52  55
ENDBRANCH  49  52
ENDBRANCH  47  49
BRANCH  47  72
ATOM     72  C24 non d ame     -11.956  13.933  68.713  0.00  0.00    -0.039 C 
ATOM     73  H35 non d ame     -11.977  14.856  68.134  0.00  0.00     0.036 H 
ATOM     74  H36 non d ame     -12.790  13.233  68.651  0.00  0.00     0.036 H 
BRANCH  72  75
ATOM     75  C25 non d ame     -11.799  14.345  70.254  0.00  0.00    -0.001 C 
ATOM     76  C26 non d ame     -12.827  13.456  71.180  0.00  0.00    -0.035 C 
ATOM     77  C27 non d ame     -13.543  14.294  71.966  0.00  0.00     0.085 C 
ATOM     78  H38 non d ame     -13.584  12.987  70.551  0.00  0.00     0.036 H 
ATOM     79  H39 non d ame     -12.263  12.855  71.893  0.00  0.00     0.036 H 
ATOM     80  N5  non d ame     -13.332  15.690  71.431  0.00  0.00    -0.049 N 
ATOM     81  H40 non d ame     -14.586  14.011  71.821  0.00  0.00     0.075 H 
ATOM     82  H41 non d ame     -13.091  14.222  72.955  0.00  0.00     0.075 H 
ATOM     83  C28 non d ame     -12.066  15.596  70.432  0.00  0.00     0.193 C 
ATOM     84  H42 non d ame     -14.153  15.915  70.888  0.00  0.00     0.280 HD
ATOM     85  H43 non d ame     -13.076  16.264  72.221  0.00  0.00     0.280 HD
ATOM     86  H44 non d ame     -11.088  15.966  70.742  0.00  0.00     0.129 H 
ATOM     87  H37 non d ame     -10.756  14.382  70.566  0.00  0.00     0.046 H 
BRANCH  83  88
ATOM     88  O6  non d ame     -12.357  16.266  69.205  0.00  0.00    -0.369 OA
ATOM     89  H45 non d ame     -12.923  17.022  69.379  0.00  0.00     0.212 HD
ENDBRANCH  83  88
ENDBRANCH  72  75
ENDBRANCH  47  72
ENDBRANCH  45  47
ENDBRANCH   1  43
BRANCH   1  90
ATOM     90  C16 non d ame     -10.831   9.634  70.742  0.00  0.00    -0.035 C 
ATOM     91  H21 non d ame      -9.916  10.214  70.864  0.00  0.00     0.037 H 
ATOM     92  H22 non d ame     -11.794  10.078  70.991  0.00  0.00     0.037 H 
BRANCH  90  93
ATOM     93  C17 non d ame     -10.677   8.373  71.650  0.00  0.00    -0.059 C 
ATOM     94  H23 non d ame     -10.641   7.500  70.999  0.00  0.00     0.038 H 
BRANCH  93  95
ATOM     95  C18 non d ame      -9.356   8.402  72.482  0.00  0.00    -0.073 C 
ATOM     96  H24 non d ame      -9.092   7.387  72.781  0.00  0.00     0.028 H 
ATOM     97  H25 non d ame      -8.553   8.822  71.875  0.00  0.00     0.028 H 
ATOM     98  H26 non d ame      -9.499   9.017  73.370  0.00  0.00     0.028 H 
ENDBRANCH  93  95
BRANCH  93  99
ATOM     99  C19 non d ame     -11.894   8.207  72.564  0.00  0.00    -0.073 C 
ATOM    100  H27 non d ame     -12.664   7.638  72.043  0.00  0.00     0.028 H 
ATOM    101  H28 non d ame     -11.599   7.676  73.469  0.00  0.00     0.028 H 
ATOM    102  H29 non d ame     -12.285   9.189  72.830  0.00  0.00     0.028 H 
ENDBRANCH  93  99
ENDBRANCH  90  93
ENDBRANCH   1  90
TORSDOF 26
ENDMDL
MODEL 12
REMARK VINA RESULT:      -5.9      2.905      8.031
REMARK  26 active torsions:
REMARK  status: ('A' for Active; 'I' for Inactive)
REMARK    1  A    between atoms: C2_2  and  C3_3 
REMARK    2  A    between atoms: C4_6  and  C5_7 
REMARK       I    between atoms: C5_7  and  N2_9 
REMARK    3  A    between atoms: N2_9  and  C6_10 
REMARK    4  A    between atoms: C6_10  and  C7_11 
REMARK    5  A    between atoms: C6_10  and  C8_13 
REMARK       I    between atoms: C7_11  and  N3_14 
REMARK    6  A    between atoms: N3_14  and  C9_15 
REMARK    7  A    between atoms: C9_15  and  C10_16 
REMARK    8  A    between atoms: C9_15  and  C11_18 
REMARK       I    between atoms: C10_16  and  N4_21 
REMARK    9  A    between atoms: C11_18  and  C12_19 
REMARK   10  A    between atoms: C11_18  and  C13_20 
REMARK   11  A    between atoms: N4_21  and  C14_22 
REMARK   12  A    between atoms: C14_22  and  C15_23 
REMARK   13  A    between atoms: C14_22  and  C16_25 
REMARK       I    between atoms: C15_23  and  N6_40 
REMARK   14  A    between atoms: C16_25  and  C17_26 
REMARK   15  A    between atoms: C17_26  and  C18_27 
REMARK   16  A    between atoms: C17_26  and  C19_28 
REMARK   17  A    between atoms: C20_29  and  C21_30 
REMARK   18  A    between atoms: C20_29  and  C24_33 
REMARK   19  A    between atoms: C20_29  and  N6_40 
REMARK   20  A    between atoms: C21_30  and  C22_31 
REMARK   21  A    between atoms: C22_31  and  C23_32 
REMARK   22  A    between atoms: C23_32  and  O8_43 
REMARK   23  A    between atoms: C24_33  and  C25_34 
REMARK   24  A    between atoms: C28_38  and  O6_39 
REMARK   25  A    between atoms: C29_42  and  O8_43 
REMARK   26  A    between atoms: C29_42  and  C35_49 
ROOT
ATOM      1  C14 non d ame      -9.797   6.584  67.546  0.00  0.00     0.089 C 
ATOM      2  H20 non d ame      -8.735   6.339  67.524  0.00  0.00     0.087 H 
ENDROOT
BRANCH   1   3
ATOM      3  N4  non d ame     -10.217   6.588  68.940  0.00  0.00    -0.346 N 
ATOM      4  C10 non d ame      -9.230   6.266  70.034  0.00  0.00     0.241 C 
ATOM      5  O4  non d ame      -8.103   6.005  69.767  0.00  0.00    -0.271 OA
ATOM      6  H19 non d ame     -11.181   6.810  69.145  0.00  0.00     0.163 HD
BRANCH   4   7
ATOM      7  C9  non d ame      -9.680   6.280  71.471  0.00  0.00     0.092 C 
ATOM      8  H11 non d ame      -9.119   7.039  72.015  0.00  0.00     0.088 H 
BRANCH   7   9
ATOM      9  N3  non d ame     -11.095   6.659  71.536  0.00  0.00    -0.346 N 
ATOM     10  C7  non d ame     -11.504   7.784  72.339  0.00  0.00     0.240 C 
ATOM     11  O3  non d ame     -10.708   8.396  72.941  0.00  0.00    -0.271 OA
ATOM     12  H10 non d ame     -11.793   6.139  71.024  0.00  0.00     0.163 HD
BRANCH  10  13
ATOM     13  C6  non d ame     -13.012   8.180  72.407  0.00  0.00     0.086 C 
ATOM     14  H6  non d ame     -13.502   7.820  73.312  0.00  0.00     0.086 H 
BRANCH  13  15
ATOM     15  N2  non d ame     -13.118   9.629  72.424  0.00  0.00    -0.343 N 
ATOM     16  C5  non d ame     -12.661  10.400  71.265  0.00  0.00     0.273 C 
ATOM     17  O2  non d ame     -12.208   9.844  70.326  0.00  0.00    -0.266 OA
ATOM     18  H5  non d ame     -13.504  10.096  73.232  0.00  0.00     0.163 HD
BRANCH  16  19
ATOM     19  C4  non d ame     -12.769  11.933  71.269  0.00  0.00     0.154 A 
ATOM     20  C1  non d ame     -13.486  12.746  72.203  0.00  0.00    -0.017 A 
ATOM     21  C2  non d ame     -13.271  14.074  71.769  0.00  0.00     0.077 A 
ATOM     22  H1  non d ame     -14.073  12.424  73.063  0.00  0.00     0.091 H 
ATOM     23  O1  non d ame     -12.516  14.018  70.710  0.00  0.00    -0.218 OA
ATOM     24  N1  non d ame     -12.211  12.778  70.399  0.00  0.00    -0.123 NA
BRANCH  21  25
ATOM     25  C3  non d ame     -13.819  15.335  72.421  0.00  0.00    -0.029 C 
ATOM     26  H2  non d ame     -14.757  15.106  72.927  0.00  0.00     0.036 H 
ATOM     27  H3  non d ame     -13.098  15.711  73.147  0.00  0.00     0.036 H 
ATOM     28  H4  non d ame     -13.994  16.094  71.658  0.00  0.00     0.036 H 
ENDBRANCH  21  25
ENDBRANCH  16  19
ENDBRANCH  13  15
BRANCH  13  29
ATOM     29  C8  non d ame     -13.735   7.624  71.207  0.00  0.00    -0.049 C 
ATOM     30  H7  non d ame     -13.099   7.711  70.326  0.00  0.00     0.030 H 
ATOM     31  H8  non d ame     -13.973   6.574  71.381  0.00  0.00     0.030 H 
ATOM     32  H9  non d ame     -14.656   8.184  71.046  0.00  0.00     0.030 H 
ENDBRANCH  13  29
ENDBRANCH  10  13
ENDBRANCH   7   9
BRANCH   7  33
ATOM     33  C11 non d ame      -9.496   4.862  72.086  0.00  0.00    -0.033 C 
ATOM     34  H12 non d ame      -8.427   4.698  72.220  0.00  0.00     0.042 H 
BRANCH  33  35
ATOM     35  C12 non d ame     -10.166   4.761  73.492  0.00  0.00    -0.071 C 
ATOM     36  H13 non d ame     -10.853   3.915  73.507  0.00  0.00     0.028 H 
ATOM     37  H14 non d ame      -9.397   4.617  74.251  0.00  0.00     0.028 H 
ATOM     38  H15 non d ame     -10.714   5.680  73.699  0.00  0.00     0.028 H 
ENDBRANCH  33  35
BRANCH  33  39
ATOM     39  C13 non d ame     -10.037   3.759  71.121  0.00  0.00    -0.071 C 
ATOM     40  H16 non d ame     -10.159   2.825  71.668  0.00  0.00     0.028 H 
ATOM     41  H17 non d ame     -10.999   4.071  70.714  0.00  0.00     0.028 H 
ATOM     42  H18 non d ame      -9.328   3.612  70.306  0.00  0.00     0.028 H 
ENDBRANCH  33  39
ENDBRANCH   7  33
ENDBRANCH   4   7
ENDBRANCH   1   3
BRANCH   1  43
ATOM     43  C15 non d ame     -10.090   7.985  66.937  0.00  0.00     0.240 C 
ATOM     44  O5  non d ame     -11.198   8.418  66.955  0.00  0.00    -0.271 OA
ATOM     45  N6  non d ame      -8.989   8.792  66.339  0.00  0.00    -0.355 N 
ATOM     46  H46 non d ame      -8.043   8.437  66.322  0.00  0.00     0.162 HD
BRANCH  45  47
ATOM     47  C20 non d ame      -9.283  10.122  65.765  0.00  0.00     0.013 C 
ATOM     48  H30 non d ame     -10.092  10.004  65.043  0.00  0.00     0.072 H 
BRANCH  47  49
ATOM     49  C21 non d ame      -8.048  10.654  65.074  0.00  0.00    -0.038 C 
ATOM     50  H31 non d ame      -8.035  10.184  64.090  0.00  0.00     0.036 H 
ATOM     51  H32 non d ame      -8.108  11.740  65.159  0.00  0.00     0.036 H 
BRANCH  49  52
ATOM     52  C22 non d ame      -6.740  10.233  65.777  0.00  0.00     0.018 C 
ATOM     53  H33 non d ame      -6.619  10.922  66.615  0.00  0.00     0.048 H 
ATOM     54  H34 non d ame      -6.834   9.163  65.962  0.00  0.00     0.048 H 
BRANCH  52  55
ATOM     55  C23 non d ame      -5.472  10.407  64.896  0.00  0.00     0.259 C 
ATOM     56  O7  non d ame      -4.404  10.547  65.398  0.00  0.00    -0.265 OA
BRANCH  55  57
ATOM     57  O8  non d ame      -5.602  10.411  63.480  0.00  0.00    -0.317 OA
BRANCH  57  58
ATOM     58  C29 non d ame      -4.984   9.294  62.834  0.00  0.00     0.052 C 
ATOM     59  H47 non d ame      -4.824   9.602  61.801  0.00  0.00     0.082 H 
ATOM     60  H48 non d ame      -4.133   9.026  63.460  0.00  0.00     0.082 H 
BRANCH  58  61
ATOM     61  C35 non d ame      -5.993   8.116  62.845  0.00  0.00    -0.034 A 
ATOM     62  C30 non d ame      -5.568   6.838  63.194  0.00  0.00    -0.075 A 
ATOM     63  C31 non d ame      -6.474   5.779  63.204  0.00  0.00    -0.082 A 
ATOM     64  H49 non d ame      -4.525   6.667  63.458  0.00  0.00     0.084 H 
ATOM     65  C32 non d ame      -7.811   6.001  62.862  0.00  0.00    -0.083 A 
ATOM     66  H50 non d ame      -6.138   4.780  63.479  0.00  0.00     0.083 H 
ATOM     67  C33 non d ame      -8.231   7.278  62.512  0.00  0.00    -0.082 A 
ATOM     68  H51 non d ame      -8.526   5.179  62.867  0.00  0.00     0.083 H 
ATOM     69  C34 non d ame      -7.328   8.339  62.502  0.00  0.00    -0.075 A 
ATOM     70  H52 non d ame      -9.274   7.447  62.243  0.00  0.00     0.083 H 
ATOM     71  H53 non d ame      -7.666   9.340  62.227  0.00  0.00     0.084 H 
ENDBRANCH  58  61
ENDBRANCH  57  58
ENDBRANCH  55  57
ENDBRANCH  52  55
ENDBRANCH  49  52
ENDBRANCH  47  49
BRANCH  47  72
ATOM     72  C24 non d ame      -9.700  11.083  66.876  0.00  0.00    -0.039 C 
ATOM     73  H35 non d ame     -10.353  10.505  67.530  0.00  0.00     0.036 H 
ATOM     74  H36 non d ame      -8.770  11.499  67.264  0.00  0.00     0.036 H 
BRANCH  72  75
ATOM     75  C25 non d ame     -10.564  12.307  66.308  0.00  0.00    -0.001 C 
ATOM     76  C26 non d ame      -9.815  13.730  66.652  0.00  0.00    -0.035 C 
ATOM     77  C27 non d ame     -10.704  14.559  67.248  0.00  0.00     0.085 C 
ATOM     78  H38 non d ame      -9.056  13.576  67.419  0.00  0.00     0.036 H 
ATOM     79  H39 non d ame      -9.559  14.251  65.729  0.00  0.00     0.036 H 
ATOM     80  N5  non d ame     -11.897  13.720  67.638  0.00  0.00    -0.049 N 
ATOM     81  H40 non d ame     -10.210  14.915  68.153  0.00  0.00     0.075 H 
ATOM     82  H41 non d ame     -11.005  15.267  66.476  0.00  0.00     0.075 H 
ATOM     83  C28 non d ame     -11.744  12.329  66.832  0.00  0.00     0.193 C 
ATOM     84  H42 non d ame     -11.804  13.532  68.626  0.00  0.00     0.280 HD
ATOM     85  H43 non d ame     -12.713  14.204  67.291  0.00  0.00     0.280 HD
ATOM     86  H44 non d ame     -12.356  12.128  65.953  0.00  0.00     0.129 H 
ATOM     87  H37 non d ame     -10.876  12.148  65.276  0.00  0.00     0.046 H 
BRANCH  83  88
ATOM     88  O6  non d ame     -11.964  11.225  67.711  0.00  0.00    -0.369 OA
ATOM     89  H45 non d ame     -12.717  10.716  67.403  0.00  0.00     0.212 HD
ENDBRANCH  83  88
ENDBRANCH  72  75
ENDBRANCH  47  72
ENDBRANCH  45  47
ENDBRANCH   1  43
BRANCH   1  90
ATOM     90  C16 non d ame     -10.586   5.524  66.793  0.00  0.00    -0.035 C 
ATOM     91  H21 non d ame     -11.268   5.096  67.527  0.00  0.00     0.037 H 
ATOM     92  H22 non d ame     -10.981   6.030  65.913  0.00  0.00     0.037 H 
BRANCH  90  93
ATOM     93  C17 non d ame      -9.707   4.345  66.268  0.00  0.00    -0.059 C 
ATOM     94  H23 non d ame      -9.865   3.494  66.930  0.00  0.00     0.038 H 
BRANCH  93  95
ATOM     95  C18 non d ame     -10.108   3.906  64.824  0.00  0.00    -0.073 C 
ATOM     96  H24 non d ame      -9.217   3.856  64.198  0.00  0.00     0.028 H 
ATOM     97  H25 non d ame     -10.581   2.925  64.860  0.00  0.00     0.028 H 
ATOM     98  H26 non d ame     -10.807   4.630  64.405  0.00  0.00     0.028 H 
ENDBRANCH  93  95
BRANCH  93  99
ATOM     99  C19 non d ame      -8.219   4.700  66.336  0.00  0.00    -0.073 C 
ATOM    100  H27 non d ame      -7.660   3.849  66.723  0.00  0.00     0.028 H 
ATOM    101  H28 non d ame      -7.859   4.949  65.337  0.00  0.00     0.028 H 
ATOM    102  H29 non d ame      -8.080   5.556  66.996  0.00  0.00     0.028 H 
ENDBRANCH  93  99
ENDBRANCH  90  93
ENDBRANCH   1  90
TORSDOF 26
ENDMDL
MODEL 13
REMARK VINA RESULT:      -5.9      2.657      4.993
REMARK  26 active torsions:
REMARK  status: ('A' for Active; 'I' for Inactive)
REMARK    1  A    between atoms: C2_2  and  C3_3 
REMARK    2  A    between atoms: C4_6  and  C5_7 
REMARK       I    between atoms: C5_7  and  N2_9 
REMARK    3  A    between atoms: N2_9  and  C6_10 
REMARK    4  A    between atoms: C6_10  and  C7_11 
REMARK    5  A    between atoms: C6_10  and  C8_13 
REMARK       I    between atoms: C7_11  and  N3_14 
REMARK    6  A    between atoms: N3_14  and  C9_15 
REMARK    7  A    between atoms: C9_15  and  C10_16 
REMARK    8  A    between atoms: C9_15  and  C11_18 
REMARK       I    between atoms: C10_16  and  N4_21 
REMARK    9  A    between atoms: C11_18  and  C12_19 
REMARK   10  A    between atoms: C11_18  and  C13_20 
REMARK   11  A    between atoms: N4_21  and  C14_22 
REMARK   12  A    between atoms: C14_22  and  C15_23 
REMARK   13  A    between atoms: C14_22  and  C16_25 
REMARK       I    between atoms: C15_23  and  N6_40 
REMARK   14  A    between atoms: C16_25  and  C17_26 
REMARK   15  A    between atoms: C17_26  and  C18_27 
REMARK   16  A    between atoms: C17_26  and  C19_28 
REMARK   17  A    between atoms: C20_29  and  C21_30 
REMARK   18  A    between atoms: C20_29  and  C24_33 
REMARK   19  A    between atoms: C20_29  and  N6_40 
REMARK   20  A    between atoms: C21_30  and  C22_31 
REMARK   21  A    between atoms: C22_31  and  C23_32 
REMARK   22  A    between atoms: C23_32  and  O8_43 
REMARK   23  A    between atoms: C24_33  and  C25_34 
REMARK   24  A    between atoms: C28_38  and  O6_39 
REMARK   25  A    between atoms: C29_42  and  O8_43 
REMARK   26  A    between atoms: C29_42  and  C35_49 
ROOT
ATOM      1  C14 non d ame     -11.312   7.795  70.328  0.00  0.00     0.089 C 
ATOM      2  H20 non d ame     -12.090   7.405  69.672  0.00  0.00     0.087 H 
ENDROOT
BRANCH   1   3
ATOM      3  N4  non d ame     -10.079   7.089  70.013  0.00  0.00    -0.346 N 
ATOM      4  C10 non d ame      -9.948   6.324  68.720  0.00  0.00     0.241 C 
ATOM      5  O4  non d ame     -10.851   6.288  67.949  0.00  0.00    -0.271 OA
ATOM      6  H19 non d ame      -9.323   7.129  70.683  0.00  0.00     0.163 HD
BRANCH   4   7
ATOM      7  C9  non d ame      -8.663   5.603  68.407  0.00  0.00     0.092 C 
ATOM      8  H11 non d ame      -8.888   4.574  68.127  0.00  0.00     0.088 H 
BRANCH   7   9
ATOM      9  N3  non d ame      -8.017   6.235  67.252  0.00  0.00    -0.346 N 
ATOM     10  C7  non d ame      -7.849   5.495  66.026  0.00  0.00     0.240 C 
ATOM     11  O3  non d ame      -8.226   4.389  65.951  0.00  0.00    -0.271 OA
ATOM     12  H10 non d ame      -7.685   7.187  67.302  0.00  0.00     0.163 HD
BRANCH  10  13
ATOM     13  C6  non d ame      -7.157   6.172  64.802  0.00  0.00     0.086 C 
ATOM     14  H6  non d ame      -7.365   5.658  63.863  0.00  0.00     0.086 H 
BRANCH  13  15
ATOM     15  N2  non d ame      -7.671   7.524  64.659  0.00  0.00    -0.343 N 
ATOM     16  C5  non d ame      -8.212   7.956  63.368  0.00  0.00     0.273 C 
ATOM     17  O2  non d ame      -8.226   7.211  62.451  0.00  0.00    -0.266 OA
ATOM     18  H5  non d ame      -7.654   8.155  65.446  0.00  0.00     0.163 HD
BRANCH  16  19
ATOM     19  C4  non d ame      -8.761   9.382  63.202  0.00  0.00     0.154 A 
ATOM     20  C1  non d ame      -9.732  10.036  64.026  0.00  0.00    -0.017 A 
ATOM     21  C2  non d ame      -9.889  11.319  63.455  0.00  0.00     0.077 A 
ATOM     22  H1  non d ame     -10.245   9.640  64.903  0.00  0.00     0.091 H 
ATOM     23  O1  non d ame      -9.094  11.385  62.427  0.00  0.00    -0.218 OA
ATOM     24  N1  non d ame      -8.426  10.266  62.259  0.00  0.00    -0.123 NA
BRANCH  21  25
ATOM     25  C3  non d ame     -10.814  12.420  63.954  0.00  0.00    -0.029 C 
ATOM     26  H2  non d ame     -10.323  12.972  64.757  0.00  0.00     0.036 H 
ATOM     27  H3  non d ame     -11.044  13.100  63.134  0.00  0.00     0.036 H 
ATOM     28  H4  non d ame     -11.738  11.978  64.329  0.00  0.00     0.036 H 
ENDBRANCH  21  25
ENDBRANCH  16  19
ENDBRANCH  13  15
BRANCH  13  29
ATOM     29  C8  non d ame      -5.666   6.207  65.019  0.00  0.00    -0.049 C 
ATOM     30  H7  non d ame      -5.456   6.367  66.077  0.00  0.00     0.030 H 
ATOM     31  H8  non d ame      -5.230   5.259  64.701  0.00  0.00     0.030 H 
ATOM     32  H9  non d ame      -5.233   7.020  64.437  0.00  0.00     0.030 H 
ENDBRANCH  13  29
ENDBRANCH  10  13
ENDBRANCH   7   9
BRANCH   7  33
ATOM     33  C11 non d ame      -7.712   5.681  69.637  0.00  0.00    -0.033 C 
ATOM     34  H12 non d ame      -8.054   6.504  70.265  0.00  0.00     0.042 H 
BRANCH  33  35
ATOM     35  C12 non d ame      -7.782   4.378  70.493  0.00  0.00    -0.071 C 
ATOM     36  H13 non d ame      -7.189   4.505  71.398  0.00  0.00     0.028 H 
ATOM     37  H14 non d ame      -8.819   4.176  70.764  0.00  0.00     0.028 H 
ATOM     38  H15 non d ame      -7.390   3.542  69.914  0.00  0.00     0.028 H 
ENDBRANCH  33  35
BRANCH  33  39
ATOM     39  C13 non d ame      -6.247   5.988  69.192  0.00  0.00    -0.071 C 
ATOM     40  H16 non d ame      -6.222   6.160  68.116  0.00  0.00     0.028 H 
ATOM     41  H17 non d ame      -5.887   6.876  69.711  0.00  0.00     0.028 H 
ATOM     42  H18 non d ame      -5.608   5.140  69.438  0.00  0.00     0.028 H 
ENDBRANCH  33  39
ENDBRANCH   7  33
ENDBRANCH   4   7
ENDBRANCH   1   3
BRANCH   1  43
ATOM     43  C15 non d ame     -11.077   9.318  70.119  0.00  0.00     0.240 C 
ATOM     44  O5  non d ame     -11.252  10.072  71.022  0.00  0.00    -0.271 OA
ATOM     45  N6  non d ame     -10.625   9.838  68.797  0.00  0.00    -0.355 N 
ATOM     46  H46 non d ame     -10.469   9.207  68.024  0.00  0.00     0.162 HD
BRANCH  45  47
ATOM     47  C20 non d ame     -10.406  11.289  68.616  0.00  0.00     0.013 C 
ATOM     48  H30 non d ame     -10.785  11.798  69.502  0.00  0.00     0.072 H 
BRANCH  47  49
ATOM     49  C21 non d ame     -11.154  11.759  67.389  0.00  0.00    -0.038 C 
ATOM     50  H31 non d ame     -10.388  12.033  66.664  0.00  0.00     0.036 H 
ATOM     51  H32 non d ame     -11.866  10.966  67.158  0.00  0.00     0.036 H 
BRANCH  49  52
ATOM     52  C22 non d ame     -11.989  13.032  67.647  0.00  0.00     0.018 C 
ATOM     53  H33 non d ame     -12.697  13.094  66.820  0.00  0.00     0.048 H 
ATOM     54  H34 non d ame     -12.353  12.944  68.671  0.00  0.00     0.048 H 
BRANCH  52  55
ATOM     55  C23 non d ame     -11.158  14.345  67.598  0.00  0.00     0.259 C 
ATOM     56  O7  non d ame     -10.189  14.419  66.916  0.00  0.00    -0.265 OA
BRANCH  55  57
ATOM     57  O8  non d ame     -11.562  15.455  68.390  0.00  0.00    -0.317 OA
BRANCH  57  58
ATOM     58  C29 non d ame     -10.805  15.620  69.593  0.00  0.00     0.052 C 
ATOM     59  H47 non d ame     -10.062  14.823  69.586  0.00  0.00     0.082 H 
ATOM     60  H48 non d ame     -10.486  16.662  69.599  0.00  0.00     0.082 H 
BRANCH  58  61
ATOM     61  C35 non d ame     -11.759  15.391  70.795  0.00  0.00    -0.034 A 
ATOM     62  C30 non d ame     -11.608  16.140  71.957  0.00  0.00    -0.075 A 
ATOM     63  C31 non d ame     -12.465  15.935  73.036  0.00  0.00    -0.082 A 
ATOM     64  H49 non d ame     -10.818  16.888  72.021  0.00  0.00     0.084 H 
ATOM     65  C32 non d ame     -13.476  14.974  72.952  0.00  0.00    -0.083 A 
ATOM     66  H50 non d ame     -12.345  16.525  73.945  0.00  0.00     0.083 H 
ATOM     67  C33 non d ame     -13.622  14.226  71.791  0.00  0.00    -0.082 A 
ATOM     68  H51 non d ame     -14.151  14.807  73.791  0.00  0.00     0.083 H 
ATOM     69  C34 non d ame     -12.768  14.430  70.709  0.00  0.00    -0.075 A 
ATOM     70  H52 non d ame     -14.410  13.476  71.729  0.00  0.00     0.083 H 
ATOM     71  H53 non d ame     -12.890  13.839  69.799  0.00  0.00     0.084 H 
ENDBRANCH  58  61
ENDBRANCH  57  58
ENDBRANCH  55  57
ENDBRANCH  52  55
ENDBRANCH  49  52
ENDBRANCH  47  49
BRANCH  47  72
ATOM     72  C24 non d ame      -8.915  11.567  68.442  0.00  0.00    -0.039 C 
ATOM     73  H35 non d ame      -8.855  12.552  67.979  0.00  0.00     0.036 H 
ATOM     74  H36 non d ame      -8.471  11.399  69.423  0.00  0.00     0.036 H 
BRANCH  72  75
ATOM     75  C25 non d ame      -8.232  10.528  67.431  0.00  0.00    -0.001 C 
ATOM     76  C26 non d ame      -7.196   9.548  68.249  0.00  0.00    -0.035 C 
ATOM     77  C27 non d ame      -5.997   9.557  67.620  0.00  0.00     0.085 C 
ATOM     78  H38 non d ame      -6.974   9.973  69.228  0.00  0.00     0.036 H 
ATOM     79  H39 non d ame      -7.520   8.510  68.167  0.00  0.00     0.036 H 
ATOM     80  N5  non d ame      -6.022  10.704  66.639  0.00  0.00    -0.049 N 
ATOM     81  H40 non d ame      -5.262   9.770  68.397  0.00  0.00     0.075 H 
ATOM     82  H41 non d ame      -5.951   8.619  67.068  0.00  0.00     0.075 H 
ATOM     83  C28 non d ame      -7.571  11.141  66.506  0.00  0.00     0.193 C 
ATOM     84  H42 non d ame      -5.510  11.461  67.069  0.00  0.00     0.280 HD
ATOM     85  H43 non d ame      -5.717  10.329  65.752  0.00  0.00     0.280 HD
ATOM     86  H44 non d ame      -8.152  10.861  65.627  0.00  0.00     0.129 H 
ATOM     87  H37 non d ame      -8.961  10.046  66.780  0.00  0.00     0.046 H 
BRANCH  83  88
ATOM     88  O6  non d ame      -7.691  12.561  66.608  0.00  0.00    -0.369 OA
ATOM     89  H45 non d ame      -7.961  12.796  67.498  0.00  0.00     0.212 HD
ENDBRANCH  83  88
ENDBRANCH  72  75
ENDBRANCH  47  72
ENDBRANCH  45  47
ENDBRANCH   1  43
BRANCH   1  90
ATOM     90  C16 non d ame     -11.680   7.528  71.779  0.00  0.00    -0.035 C 
ATOM     91  H21 non d ame     -11.602   8.494  72.278  0.00  0.00     0.037 H 
ATOM     92  H22 non d ame     -12.637   7.009  71.743  0.00  0.00     0.037 H 
BRANCH  90  93
ATOM     93  C17 non d ame     -10.686   6.572  72.512  0.00  0.00    -0.059 C 
ATOM     94  H23 non d ame      -9.926   6.270  71.791  0.00  0.00     0.038 H 
BRANCH  93  95
ATOM     95  C18 non d ame      -9.961   7.274  73.703  0.00  0.00    -0.073 C 
ATOM     96  H24 non d ame      -9.455   8.171  73.344  0.00  0.00     0.028 H 
ATOM     97  H25 non d ame     -10.694   7.551  74.462  0.00  0.00     0.028 H 
ATOM     98  H26 non d ame      -9.230   6.593  74.137  0.00  0.00     0.028 H 
ENDBRANCH  93  95
BRANCH  93  99
ATOM     99  C19 non d ame     -11.397   5.299  72.980  0.00  0.00    -0.073 C 
ATOM    100  H27 non d ame     -12.456   5.510  73.131  0.00  0.00     0.028 H 
ATOM    101  H28 non d ame     -11.286   4.522  72.224  0.00  0.00     0.028 H 
ATOM    102  H29 non d ame     -10.957   4.961  73.917  0.00  0.00     0.028 H 
ENDBRANCH  93  99
ENDBRANCH  90  93
ENDBRANCH   1  90
TORSDOF 26
ENDMDL
MODEL 14
REMARK VINA RESULT:      -5.8      2.711      7.850
REMARK  26 active torsions:
REMARK  status: ('A' for Active; 'I' for Inactive)
REMARK    1  A    between atoms: C2_2  and  C3_3 
REMARK    2  A    between atoms: C4_6  and  C5_7 
REMARK       I    between atoms: C5_7  and  N2_9 
REMARK    3  A    between atoms: N2_9  and  C6_10 
REMARK    4  A    between atoms: C6_10  and  C7_11 
REMARK    5  A    between atoms: C6_10  and  C8_13 
REMARK       I    between atoms: C7_11  and  N3_14 
REMARK    6  A    between atoms: N3_14  and  C9_15 
REMARK    7  A    between atoms: C9_15  and  C10_16 
REMARK    8  A    between atoms: C9_15  and  C11_18 
REMARK       I    between atoms: C10_16  and  N4_21 
REMARK    9  A    between atoms: C11_18  and  C12_19 
REMARK   10  A    between atoms: C11_18  and  C13_20 
REMARK   11  A    between atoms: N4_21  and  C14_22 
REMARK   12  A    between atoms: C14_22  and  C15_23 
REMARK   13  A    between atoms: C14_22  and  C16_25 
REMARK       I    between atoms: C15_23  and  N6_40 
REMARK   14  A    between atoms: C16_25  and  C17_26 
REMARK   15  A    between atoms: C17_26  and  C18_27 
REMARK   16  A    between atoms: C17_26  and  C19_28 
REMARK   17  A    between atoms: C20_29  and  C21_30 
REMARK   18  A    between atoms: C20_29  and  C24_33 
REMARK   19  A    between atoms: C20_29  and  N6_40 
REMARK   20  A    between atoms: C21_30  and  C22_31 
REMARK   21  A    between atoms: C22_31  and  C23_32 
REMARK   22  A    between atoms: C23_32  and  O8_43 
REMARK   23  A    between atoms: C24_33  and  C25_34 
REMARK   24  A    between atoms: C28_38  and  O6_39 
REMARK   25  A    between atoms: C29_42  and  O8_43 
REMARK   26  A    between atoms: C29_42  and  C35_49 
ROOT
ATOM      1  C14 non d ame      -6.633   8.258  66.788  0.00  0.00     0.089 C 
ATOM      2  H20 non d ame      -6.176   7.269  66.743  0.00  0.00     0.087 H 
ENDROOT
BRANCH   1   3
ATOM      3  N4  non d ame      -7.356   8.465  65.543  0.00  0.00    -0.346 N 
ATOM      4  C10 non d ame      -7.366   9.823  64.885  0.00  0.00     0.241 C 
ATOM      5  O4  non d ame      -6.787  10.733  65.380  0.00  0.00    -0.271 OA
ATOM      6  H19 non d ame      -7.844   7.678  65.140  0.00  0.00     0.163 HD
BRANCH   4   7
ATOM      7  C9  non d ame      -8.115  10.019  63.594  0.00  0.00     0.092 C 
ATOM      8  H11 non d ame      -8.721   9.135  63.393  0.00  0.00     0.088 H 
BRANCH   7   9
ATOM      9  N3  non d ame      -9.035  11.152  63.729  0.00  0.00    -0.346 N 
ATOM     10  C7  non d ame     -10.157  11.068  64.630  0.00  0.00     0.240 C 
ATOM     11  O3  non d ame     -10.336  10.093  65.254  0.00  0.00    -0.271 OA
ATOM     12  H10 non d ame      -8.894  11.998  63.195  0.00  0.00     0.163 HD
BRANCH  10  13
ATOM     13  C6  non d ame     -11.133  12.276  64.767  0.00  0.00     0.086 C 
ATOM     14  H6  non d ame     -11.727  12.239  65.680  0.00  0.00     0.086 H 
BRANCH  13  15
ATOM     15  N2  non d ame     -10.358  13.504  64.825  0.00  0.00    -0.343 N 
ATOM     16  C5  non d ame     -10.538  14.417  65.957  0.00  0.00     0.273 C 
ATOM     17  O2  non d ame     -11.310  14.156  66.812  0.00  0.00    -0.266 OA
ATOM     18  H5  non d ame      -9.702  13.721  64.089  0.00  0.00     0.163 HD
BRANCH  16  19
ATOM     19  C4  non d ame      -9.723  15.718  66.033  0.00  0.00     0.154 A 
ATOM     20  C1  non d ame      -8.410  15.885  66.577  0.00  0.00    -0.017 A 
ATOM     21  C2  non d ame      -8.118  17.257  66.408  0.00  0.00     0.077 A 
ATOM     22  H1  non d ame      -7.768  15.127  67.027  0.00  0.00     0.091 H 
ATOM     23  O1  non d ame      -9.148  17.804  65.830  0.00  0.00    -0.218 OA
ATOM     24  N1  non d ame     -10.098  16.926  65.603  0.00  0.00    -0.123 NA
BRANCH  21  25
ATOM     25  C3  non d ame      -6.834  17.962  66.821  0.00  0.00    -0.029 C 
ATOM     26  H2  non d ame      -6.969  18.419  67.803  0.00  0.00     0.036 H 
ATOM     27  H3  non d ame      -6.020  17.239  66.866  0.00  0.00     0.036 H 
ATOM     28  H4  non d ame      -6.592  18.736  66.091  0.00  0.00     0.036 H 
ENDBRANCH  21  25
ENDBRANCH  16  19
ENDBRANCH  13  15
BRANCH  13  29
ATOM     29  C8  non d ame     -12.064  12.310  63.582  0.00  0.00    -0.049 C 
ATOM     30  H7  non d ame     -11.935  11.403  62.991  0.00  0.00     0.030 H 
ATOM     31  H8  non d ame     -13.096  12.372  63.932  0.00  0.00     0.030 H 
ATOM     32  H9  non d ame     -11.837  13.180  62.966  0.00  0.00     0.030 H 
ENDBRANCH  13  29
ENDBRANCH  10  13
ENDBRANCH   7   9
BRANCH   7  33
ATOM     33  C11 non d ame      -7.103  10.308  62.446  0.00  0.00    -0.033 C 
ATOM     34  H12 non d ame      -6.505  11.169  62.745  0.00  0.00     0.042 H 
BRANCH  33  35
ATOM     35  C12 non d ame      -6.128   9.109  62.233  0.00  0.00    -0.071 C 
ATOM     36  H13 non d ame      -5.956   8.607  63.185  0.00  0.00     0.028 H 
ATOM     37  H14 non d ame      -6.565   8.405  61.525  0.00  0.00     0.028 H 
ATOM     38  H15 non d ame      -5.181   9.478  61.839  0.00  0.00     0.028 H 
ENDBRANCH  33  35
BRANCH  33  39
ATOM     39  C13 non d ame      -7.849  10.673  61.123  0.00  0.00    -0.071 C 
ATOM     40  H16 non d ame      -8.276  11.672  61.210  0.00  0.00     0.028 H 
ATOM     41  H17 non d ame      -7.146  10.650  60.290  0.00  0.00     0.028 H 
ATOM     42  H18 non d ame      -8.647   9.952  60.945  0.00  0.00     0.028 H 
ENDBRANCH  33  39
ENDBRANCH   7  33
ENDBRANCH   4   7
ENDBRANCH   1   3
BRANCH   1  43
ATOM     43  C15 non d ame      -7.635   8.389  67.971  0.00  0.00     0.240 C 
ATOM     44  O5  non d ame      -7.233   8.638  69.062  0.00  0.00    -0.271 OA
ATOM     45  N6  non d ame      -9.097   8.212  67.742  0.00  0.00    -0.355 N 
ATOM     46  H46 non d ame      -9.451   8.005  66.819  0.00  0.00     0.162 HD
BRANCH  45  47
ATOM     47  C20 non d ame     -10.038   8.341  68.876  0.00  0.00     0.013 C 
ATOM     48  H30 non d ame      -9.451   8.503  69.781  0.00  0.00     0.072 H 
BRANCH  47  49
ATOM     49  C21 non d ame     -10.844   7.068  69.005  0.00  0.00    -0.038 C 
ATOM     50  H31 non d ame     -11.680   7.314  69.659  0.00  0.00     0.036 H 
ATOM     51  H32 non d ame     -11.030   6.734  67.983  0.00  0.00     0.036 H 
BRANCH  49  52
ATOM     52  C22 non d ame     -10.063   5.932  69.700  0.00  0.00     0.018 C 
ATOM     53  H33 non d ame      -9.189   6.405  70.148  0.00  0.00     0.048 H 
ATOM     54  H34 non d ame     -10.789   5.419  70.332  0.00  0.00     0.048 H 
BRANCH  52  55
ATOM     55  C23 non d ame      -9.513   4.860  68.719  0.00  0.00     0.259 C 
ATOM     56  O7  non d ame      -9.726   3.706  68.907  0.00  0.00    -0.265 OA
BRANCH  55  57
ATOM     57  O8  non d ame      -8.739   5.271  67.599  0.00  0.00    -0.317 OA
BRANCH  57  58
ATOM     58  C29 non d ame      -8.692   4.312  66.539  0.00  0.00     0.052 C 
ATOM     59  H47 non d ame      -8.256   3.413  66.972  0.00  0.00     0.082 H 
ATOM     60  H48 non d ame      -9.700   4.283  66.124  0.00  0.00     0.082 H 
BRANCH  58  61
ATOM     61  C35 non d ame      -7.729   4.850  65.448  0.00  0.00    -0.034 A 
ATOM     62  C30 non d ame      -8.232   5.283  64.226  0.00  0.00    -0.075 A 
ATOM     63  C31 non d ame      -7.366   5.766  63.246  0.00  0.00    -0.082 A 
ATOM     64  H49 non d ame      -9.304   5.243  64.035  0.00  0.00     0.084 H 
ATOM     65  C32 non d ame      -5.991   5.815  63.492  0.00  0.00    -0.083 A 
ATOM     66  H50 non d ame      -7.764   6.106  62.290  0.00  0.00     0.083 H 
ATOM     67  C33 non d ame      -5.493   5.379  64.712  0.00  0.00    -0.082 A 
ATOM     68  H51 non d ame      -5.307   6.191  62.732  0.00  0.00     0.083 H 
ATOM     69  C34 non d ame      -6.355   4.897  65.695  0.00  0.00    -0.075 A 
ATOM     70  H52 non d ame      -4.419   5.416  64.900  0.00  0.00     0.083 H 
ATOM     71  H53 non d ame      -5.956   4.558  66.652  0.00  0.00     0.084 H 
ENDBRANCH  58  61
ENDBRANCH  57  58
ENDBRANCH  55  57
ENDBRANCH  52  55
ENDBRANCH  49  52
ENDBRANCH  47  49
BRANCH  47  72
ATOM     72  C24 non d ame     -10.979   9.519  68.635  0.00  0.00    -0.039 C 
ATOM     73  H35 non d ame     -10.558  10.059  67.787  0.00  0.00     0.036 H 
ATOM     74  H36 non d ame     -11.976   9.084  68.563  0.00  0.00     0.036 H 
BRANCH  72  75
ATOM     75  C25 non d ame     -10.993  10.530  69.878  0.00  0.00    -0.001 C 
ATOM     76  C26 non d ame     -11.794   9.850  71.144  0.00  0.00    -0.035 C 
ATOM     77  C27 non d ame     -12.731  10.722  71.586  0.00  0.00     0.085 C 
ATOM     78  H38 non d ame     -12.380   8.998  70.801  0.00  0.00     0.036 H 
ATOM     79  H39 non d ame     -11.123   9.742  71.997  0.00  0.00     0.036 H 
ATOM     80  N5  non d ame     -12.865  11.798  70.536  0.00  0.00    -0.049 N 
ATOM     81  H40 non d ame     -13.660  10.153  71.633  0.00  0.00     0.075 H 
ATOM     82  H41 non d ame     -12.315  11.161  72.493  0.00  0.00     0.075 H 
ATOM     83  C28 non d ame     -11.579  11.639  69.571  0.00  0.00     0.193 C 
ATOM     84  H42 non d ame     -13.695  11.577  70.004  0.00  0.00     0.280 HD
ATOM     85  H43 non d ame     -12.796  12.681  71.020  0.00  0.00     0.280 HD
ATOM     86  H44 non d ame     -10.742  12.333  69.647  0.00  0.00     0.129 H 
ATOM     87  H37 non d ame     -10.008  10.948  70.082  0.00  0.00     0.046 H 
BRANCH  83  88
ATOM     88  O6  non d ame     -11.984  11.675  68.202  0.00  0.00    -0.369 OA
ATOM     89  H45 non d ame     -11.873  12.564  67.859  0.00  0.00     0.212 HD
ENDBRANCH  83  88
ENDBRANCH  72  75
ENDBRANCH  47  72
ENDBRANCH  45  47
ENDBRANCH   1  43
BRANCH   1  90
ATOM     90  C16 non d ame      -5.550   9.318  66.917  0.00  0.00    -0.035 C 
ATOM     91  H21 non d ame      -5.741  10.025  66.110  0.00  0.00     0.037 H 
ATOM     92  H22 non d ame      -5.594   9.651  67.954  0.00  0.00     0.037 H 
BRANCH  90  93
ATOM     93  C17 non d ame      -4.106   8.770  66.689  0.00  0.00    -0.059 C 
ATOM     94  H23 non d ame      -3.408   9.484  67.126  0.00  0.00     0.038 H 
BRANCH  93  95
ATOM     95  C18 non d ame      -3.880   7.393  67.390  0.00  0.00    -0.073 C 
ATOM     96  H24 non d ame      -3.208   6.783  66.785  0.00  0.00     0.028 H 
ATOM     97  H25 non d ame      -3.437   7.553  68.373  0.00  0.00     0.028 H 
ATOM     98  H26 non d ame      -4.835   6.880  67.502  0.00  0.00     0.028 H 
ENDBRANCH  93  95
BRANCH  93  99
ATOM     99  C19 non d ame      -3.785   8.680  65.195  0.00  0.00    -0.073 C 
ATOM    100  H27 non d ame      -4.624   9.073  64.620  0.00  0.00     0.028 H 
ATOM    101  H28 non d ame      -2.891   9.264  64.979  0.00  0.00     0.028 H 
ATOM    102  H29 non d ame      -3.614   7.639  64.922  0.00  0.00     0.028 H 
ENDBRANCH  93  99
ENDBRANCH  90  93
ENDBRANCH   1  90
TORSDOF 26
ENDMDL
MODEL 15
REMARK VINA RESULT:      -5.8      3.174      5.847
REMARK  26 active torsions:
REMARK  status: ('A' for Active; 'I' for Inactive)
REMARK    1  A    between atoms: C2_2  and  C3_3 
REMARK    2  A    between atoms: C4_6  and  C5_7 
REMARK       I    between atoms: C5_7  and  N2_9 
REMARK    3  A    between atoms: N2_9  and  C6_10 
REMARK    4  A    between atoms: C6_10  and  C7_11 
REMARK    5  A    between atoms: C6_10  and  C8_13 
REMARK       I    between atoms: C7_11  and  N3_14 
REMARK    6  A    between atoms: N3_14  and  C9_15 
REMARK    7  A    between atoms: C9_15  and  C10_16 
REMARK    8  A    between atoms: C9_15  and  C11_18 
REMARK       I    between atoms: C10_16  and  N4_21 
REMARK    9  A    between atoms: C11_18  and  C12_19 
REMARK   10  A    between atoms: C11_18  and  C13_20 
REMARK   11  A    between atoms: N4_21  and  C14_22 
REMARK   12  A    between atoms: C14_22  and  C15_23 
REMARK   13  A    between atoms: C14_22  and  C16_25 
REMARK       I    between atoms: C15_23  and  N6_40 
REMARK   14  A    between atoms: C16_25  and  C17_26 
REMARK   15  A    between atoms: C17_26  and  C18_27 
REMARK   16  A    between atoms: C17_26  and  C19_28 
REMARK   17  A    between atoms: C20_29  and  C21_30 
REMARK   18  A    between atoms: C20_29  and  C24_33 
REMARK   19  A    between atoms: C20_29  and  N6_40 
REMARK   20  A    between atoms: C21_30  and  C22_31 
REMARK   21  A    between atoms: C22_31  and  C23_32 
REMARK   22  A    between atoms: C23_32  and  O8_43 
REMARK   23  A    between atoms: C24_33  and  C25_34 
REMARK   24  A    between atoms: C28_38  and  O6_39 
REMARK   25  A    between atoms: C29_42  and  O8_43 
REMARK   26  A    between atoms: C29_42  and  C35_49 
ROOT
ATOM      1  C14 non d ame      -7.909   9.742  69.095  0.00  0.00     0.089 C 
ATOM      2  H20 non d ame      -8.086  10.119  70.102  0.00  0.00     0.087 H 
ENDROOT
BRANCH   1   3
ATOM      3  N4  non d ame      -8.654   8.500  68.953  0.00  0.00    -0.346 N 
ATOM      4  C10 non d ame     -10.083   8.411  69.427  0.00  0.00     0.241 C 
ATOM      5  O4  non d ame     -10.611   9.353  69.921  0.00  0.00    -0.271 OA
ATOM      6  H19 non d ame      -8.185   7.709  68.533  0.00  0.00     0.163 HD
BRANCH   4   7
ATOM      7  C9  non d ame     -10.841   7.120  69.268  0.00  0.00     0.092 C 
ATOM      8  H11 non d ame     -11.760   7.309  68.713  0.00  0.00     0.088 H 
BRANCH   7   9
ATOM      9  N3  non d ame     -10.044   6.179  68.475  0.00  0.00    -0.346 N 
ATOM     10  C7  non d ame     -10.348   5.973  67.081  0.00  0.00     0.240 C 
ATOM     11  O3  non d ame     -11.232   6.555  66.580  0.00  0.00    -0.271 OA
ATOM     12  H10 non d ame      -9.280   5.668  68.894  0.00  0.00     0.163 HD
BRANCH  10  13
ATOM     13  C6  non d ame      -9.498   4.967  66.244  0.00  0.00     0.086 C 
ATOM     14  H6  non d ame     -10.034   4.580  65.377  0.00  0.00     0.086 H 
BRANCH  13  15
ATOM     15  N2  non d ame      -8.324   5.655  65.733  0.00  0.00    -0.343 N 
ATOM     16  C5  non d ame      -8.033   5.616  64.297  0.00  0.00     0.273 C 
ATOM     17  O2  non d ame      -8.749   5.028  63.564  0.00  0.00    -0.266 OA
ATOM     18  H5  non d ame      -7.717   6.153  66.366  0.00  0.00     0.163 HD
BRANCH  16  19
ATOM     19  C4  non d ame      -6.797   6.340  63.742  0.00  0.00     0.154 A 
ATOM     20  C1  non d ame      -6.564   7.752  63.710  0.00  0.00    -0.017 A 
ATOM     21  C2  non d ame      -5.295   7.897  63.106  0.00  0.00     0.077 A 
ATOM     22  H1  non d ame      -7.216   8.549  64.068  0.00  0.00     0.091 H 
ATOM     23  O1  non d ame      -4.857   6.703  62.831  0.00  0.00    -0.218 OA
ATOM     24  N1  non d ame      -5.717   5.778  63.192  0.00  0.00    -0.123 NA
BRANCH  21  25
ATOM     25  C3  non d ame      -4.572   9.209  62.833  0.00  0.00    -0.029 C 
ATOM     26  H2  non d ame      -5.288  10.031  62.852  0.00  0.00     0.036 H 
ATOM     27  H3  non d ame      -3.813   9.372  63.598  0.00  0.00     0.036 H 
ATOM     28  H4  non d ame      -4.095   9.165  61.853  0.00  0.00     0.036 H 
ENDBRANCH  21  25
ENDBRANCH  16  19
ENDBRANCH  13  15
BRANCH  13  29
ATOM     29  C8  non d ame      -9.080   3.810  67.115  0.00  0.00    -0.049 C 
ATOM     30  H7  non d ame      -8.713   4.188  68.069  0.00  0.00     0.030 H 
ATOM     31  H8  non d ame      -9.937   3.158  67.287  0.00  0.00     0.030 H 
ATOM     32  H9  non d ame      -8.290   3.249  66.619  0.00  0.00     0.030 H 
ENDBRANCH  13  29
ENDBRANCH  10  13
ENDBRANCH   7   9
BRANCH   7  33
ATOM     33  C11 non d ame     -11.121   6.506  70.671  0.00  0.00    -0.033 C 
ATOM     34  H12 non d ame     -11.227   5.428  70.543  0.00  0.00     0.042 H 
BRANCH  33  35
ATOM     35  C12 non d ame      -9.926   6.747  71.645  0.00  0.00    -0.071 C 
ATOM     36  H13 non d ame     -10.059   6.139  72.540  0.00  0.00     0.028 H 
ATOM     37  H14 non d ame      -8.994   6.469  71.153  0.00  0.00     0.028 H 
ATOM     38  H15 non d ame      -9.890   7.800  71.921  0.00  0.00     0.028 H 
ENDBRANCH  33  35
BRANCH  33  39
ATOM     39  C13 non d ame     -12.456   7.056  71.266  0.00  0.00    -0.071 C 
ATOM     40  H16 non d ame     -13.074   7.456  70.463  0.00  0.00     0.028 H 
ATOM     41  H17 non d ame     -12.990   6.249  71.770  0.00  0.00     0.028 H 
ATOM     42  H18 non d ame     -12.235   7.847  71.982  0.00  0.00     0.028 H 
ENDBRANCH  33  39
ENDBRANCH   7  33
ENDBRANCH   4   7
ENDBRANCH   1   3
BRANCH   1  43
ATOM     43  C15 non d ame      -8.392  10.736  68.001  0.00  0.00     0.240 C 
ATOM     44  O5  non d ame      -7.951  10.664  66.899  0.00  0.00    -0.271 OA
ATOM     45  N6  non d ame      -9.413  11.774  68.323  0.00  0.00    -0.355 N 
ATOM     46  H46 non d ame      -9.798  11.843  69.254  0.00  0.00     0.162 HD
BRANCH  45  47
ATOM     47  C20 non d ame      -9.863  12.711  67.272  0.00  0.00     0.013 C 
ATOM     48  H30 non d ame      -9.350  12.449  66.347  0.00  0.00     0.072 H 
BRANCH  47  49
ATOM     49  C21 non d ame      -9.508  14.125  67.676  0.00  0.00    -0.038 C 
ATOM     50  H31 non d ame     -10.457  14.656  67.754  0.00  0.00     0.036 H 
ATOM     51  H32 non d ame      -8.864  14.027  68.551  0.00  0.00     0.036 H 
BRANCH  49  52
ATOM     52  C22 non d ame      -8.679  14.864  66.604  0.00  0.00     0.018 C 
ATOM     53  H33 non d ame      -7.901  15.400  67.150  0.00  0.00     0.048 H 
ATOM     54  H34 non d ame      -8.406  14.108  65.868  0.00  0.00     0.048 H 
BRANCH  52  55
ATOM     55  C23 non d ame      -9.481  15.947  65.830  0.00  0.00     0.259 C 
ATOM     56  O7  non d ame     -10.466  15.656  65.234  0.00  0.00    -0.265 OA
BRANCH  55  57
ATOM     57  O8  non d ame      -9.016  17.292  65.830  0.00  0.00    -0.317 OA
BRANCH  57  58
ATOM     58  C29 non d ame      -9.499  18.076  66.925  0.00  0.00     0.052 C 
ATOM     59  H47 non d ame     -10.273  18.720  66.508  0.00  0.00     0.082 H 
ATOM     60  H48 non d ame      -9.750  17.363  67.710  0.00  0.00     0.082 H 
BRANCH  58  61
ATOM     61  C35 non d ame      -8.333  18.968  67.426  0.00  0.00    -0.034 A 
ATOM     62  C30 non d ame      -7.827  19.975  66.611  0.00  0.00    -0.075 A 
ATOM     63  C31 non d ame      -6.779  20.777  67.061  0.00  0.00    -0.082 A 
ATOM     64  H49 non d ame      -8.250  20.136  65.620  0.00  0.00     0.084 H 
ATOM     65  C32 non d ame      -6.236  20.567  68.332  0.00  0.00    -0.083 A 
ATOM     66  H50 non d ame      -6.385  21.566  66.421  0.00  0.00     0.083 H 
ATOM     67  C33 non d ame      -6.742  19.559  69.141  0.00  0.00    -0.082 A 
ATOM     68  H51 non d ame      -5.416  21.189  68.692  0.00  0.00     0.083 H 
ATOM     69  C34 non d ame      -7.791  18.757  68.695  0.00  0.00    -0.075 A 
ATOM     70  H52 non d ame      -6.315  19.396  70.130  0.00  0.00     0.083 H 
ATOM     71  H53 non d ame      -8.185  17.967  69.337  0.00  0.00     0.084 H 
ENDBRANCH  58  61
ENDBRANCH  57  58
ENDBRANCH  55  57
ENDBRANCH  52  55
ENDBRANCH  49  52
ENDBRANCH  47  49
BRANCH  47  72
ATOM     72  C24 non d ame     -11.375  12.597  67.091  0.00  0.00    -0.039 C 
ATOM     73  H35 non d ame     -11.699  11.855  67.821  0.00  0.00     0.036 H 
ATOM     74  H36 non d ame     -11.753  13.618  67.147  0.00  0.00     0.036 H 
BRANCH  72  75
ATOM     75  C25 non d ame     -11.757  12.031  65.642  0.00  0.00    -0.001 C 
ATOM     76  C26 non d ame     -10.390  11.707  64.788  0.00  0.00    -0.035 C 
ATOM     77  C27 non d ame     -10.476  12.310  63.579  0.00  0.00     0.085 C 
ATOM     78  H38 non d ame      -9.534  12.194  65.254  0.00  0.00     0.036 H 
ATOM     79  H39 non d ame     -10.345  10.646  64.541  0.00  0.00     0.036 H 
ATOM     80  N5  non d ame     -11.628  13.283  63.652  0.00  0.00    -0.049 N 
ATOM     81  H40 non d ame      -9.547  12.868  63.463  0.00  0.00     0.075 H 
ATOM     82  H41 non d ame     -10.727  11.517  62.875  0.00  0.00     0.075 H 
ATOM     83  C28 non d ame     -12.461  12.886  64.977  0.00  0.00     0.193 C 
ATOM     84  H42 non d ame     -11.222  14.198  63.790  0.00  0.00     0.280 HD
ATOM     85  H43 non d ame     -12.207  13.104  62.844  0.00  0.00     0.280 HD
ATOM     86  H44 non d ame     -13.405  12.346  64.897  0.00  0.00     0.129 H 
ATOM     87  H37 non d ame     -12.509  11.244  65.691  0.00  0.00     0.046 H 
BRANCH  83  88
ATOM     88  O6  non d ame     -12.754  14.055  65.743  0.00  0.00    -0.369 OA
ATOM     89  H45 non d ame     -12.554  13.891  66.667  0.00  0.00     0.212 HD
ENDBRANCH  83  88
ENDBRANCH  72  75
ENDBRANCH  47  72
ENDBRANCH  45  47
ENDBRANCH   1  43
BRANCH   1  90
ATOM     90  C16 non d ame      -6.427   9.456  68.906  0.00  0.00    -0.035 C 
ATOM     91  H21 non d ame      -6.348   8.371  68.841  0.00  0.00     0.037 H 
ATOM     92  H22 non d ame      -6.119  10.075  68.064  0.00  0.00     0.037 H 
BRANCH  90  93
ATOM     93  C17 non d ame      -5.546   9.890  70.120  0.00  0.00    -0.059 C 
ATOM     94  H23 non d ame      -4.518   9.598  69.904  0.00  0.00     0.038 H 
BRANCH  93  95
ATOM     95  C18 non d ame      -5.567  11.435  70.343  0.00  0.00    -0.073 C 
ATOM     96  H24 non d ame      -6.301  11.682  71.110  0.00  0.00     0.028 H 
ATOM     97  H25 non d ame      -4.580  11.769  70.664  0.00  0.00     0.028 H 
ATOM     98  H26 non d ame      -5.833  11.933  69.411  0.00  0.00     0.028 H 
ENDBRANCH  93  95
BRANCH  93  99
ATOM     99  C19 non d ame      -5.968   9.150  71.393  0.00  0.00    -0.073 C 
ATOM    100  H27 non d ame      -6.825   8.513  71.175  0.00  0.00     0.028 H 
ATOM    101  H28 non d ame      -5.140   8.537  71.749  0.00  0.00     0.028 H 
ATOM    102  H29 non d ame      -6.241   9.874  72.160  0.00  0.00     0.028 H 
ENDBRANCH  93  99
ENDBRANCH  90  93
ENDBRANCH   1  90
TORSDOF 26
ENDMDL
MODEL 16
REMARK VINA RESULT:      -5.8      3.529      7.005
REMARK  26 active torsions:
REMARK  status: ('A' for Active; 'I' for Inactive)
REMARK    1  A    between atoms: C2_2  and  C3_3 
REMARK    2  A    between atoms: C4_6  and  C5_7 
REMARK       I    between atoms: C5_7  and  N2_9 
REMARK    3  A    between atoms: N2_9  and  C6_10 
REMARK    4  A    between atoms: C6_10  and  C7_11 
REMARK    5  A    between atoms: C6_10  and  C8_13 
REMARK       I    between atoms: C7_11  and  N3_14 
REMARK    6  A    between atoms: N3_14  and  C9_15 
REMARK    7  A    between atoms: C9_15  and  C10_16 
REMARK    8  A    between atoms: C9_15  and  C11_18 
REMARK       I    between atoms: C10_16  and  N4_21 
REMARK    9  A    between atoms: C11_18  and  C12_19 
REMARK   10  A    between atoms: C11_18  and  C13_20 
REMARK   11  A    between atoms: N4_21  and  C14_22 
REMARK   12  A    between atoms: C14_22  and  C15_23 
REMARK   13  A    between atoms: C14_22  and  C16_25 
REMARK       I    between atoms: C15_23  and  N6_40 
REMARK   14  A    between atoms: C16_25  and  C17_26 
REMARK   15  A    between atoms: C17_26  and  C18_27 
REMARK   16  A    between atoms: C17_26  and  C19_28 
REMARK   17  A    between atoms: C20_29  and  C21_30 
REMARK   18  A    between atoms: C20_29  and  C24_33 
REMARK   19  A    between atoms: C20_29  and  N6_40 
REMARK   20  A    between atoms: C21_30  and  C22_31 
REMARK   21  A    between atoms: C22_31  and  C23_32 
REMARK   22  A    between atoms: C23_32  and  O8_43 
REMARK   23  A    between atoms: C24_33  and  C25_34 
REMARK   24  A    between atoms: C28_38  and  O6_39 
REMARK   25  A    between atoms: C29_42  and  O8_43 
REMARK   26  A    between atoms: C29_42  and  C35_49 
ROOT
ATOM      1  C14 non d ame     -11.977  13.446  69.462  0.00  0.00     0.089 C 
ATOM      2  H20 non d ame     -12.993  13.152  69.202  0.00  0.00     0.087 H 
ENDROOT
BRANCH   1   3
ATOM      3  N4  non d ame     -11.146  12.253  69.403  0.00  0.00    -0.346 N 
ATOM      4  C10 non d ame     -11.233  11.322  68.220  0.00  0.00     0.241 C 
ATOM      5  O4  non d ame     -11.982  11.553  67.328  0.00  0.00    -0.271 OA
ATOM      6  H19 non d ame     -10.518  12.072  70.174  0.00  0.00     0.163 HD
BRANCH   4   7
ATOM      7  C9  non d ame     -10.363  10.094  68.173  0.00  0.00     0.092 C 
ATOM      8  H11 non d ame      -9.419  10.304  68.676  0.00  0.00     0.088 H 
BRANCH   7   9
ATOM      9  N3  non d ame     -11.012   9.005  68.909  0.00  0.00    -0.346 N 
ATOM     10  C7  non d ame     -10.713   8.798  70.304  0.00  0.00     0.240 C 
ATOM     11  O3  non d ame      -9.950   9.498  70.850  0.00  0.00    -0.271 OA
ATOM     12  H10 non d ame     -11.671   8.392  68.450  0.00  0.00     0.163 HD
BRANCH  10  13
ATOM     13  C6  non d ame     -11.405   7.635  71.080  0.00  0.00     0.086 C 
ATOM     14  H6  non d ame     -12.376   7.369  70.664  0.00  0.00     0.086 H 
BRANCH  13  15
ATOM     15  N2  non d ame     -10.573   6.447  70.989  0.00  0.00    -0.343 N 
ATOM     16  C5  non d ame     -10.608   5.635  69.770  0.00  0.00     0.273 C 
ATOM     17  O2  non d ame     -11.310   5.944  68.872  0.00  0.00    -0.266 OA
ATOM     18  H5  non d ame      -9.977   6.189  71.762  0.00  0.00     0.163 HD
BRANCH  16  19
ATOM     19  C4  non d ame      -9.732   4.377  69.659  0.00  0.00     0.154 A 
ATOM     20  C1  non d ame      -8.878   4.013  68.570  0.00  0.00    -0.017 A 
ATOM     21  C2  non d ame      -8.302   2.782  68.955  0.00  0.00     0.077 A 
ATOM     22  H1  non d ame      -8.703   4.558  67.641  0.00  0.00     0.091 H 
ATOM     23  O1  non d ame      -8.775   2.484  70.131  0.00  0.00    -0.218 OA
ATOM     24  N1  non d ame      -9.612   3.400  70.561  0.00  0.00    -0.123 NA
BRANCH  21  25
ATOM     25  C3  non d ame      -7.309   1.958  68.146  0.00  0.00    -0.029 C 
ATOM     26  H2  non d ame      -6.314   2.057  68.581  0.00  0.00     0.036 H 
ATOM     27  H3  non d ame      -7.609   0.910  68.161  0.00  0.00     0.036 H 
ATOM     28  H4  non d ame      -7.293   2.316  67.116  0.00  0.00     0.036 H 
ENDBRANCH  21  25
ENDBRANCH  16  19
ENDBRANCH  13  15
BRANCH  13  29
ATOM     29  C8  non d ame     -11.586   8.028  72.524  0.00  0.00    -0.049 C 
ATOM     30  H7  non d ame     -11.120   7.281  73.166  0.00  0.00     0.030 H 
ATOM     31  H8  non d ame     -11.118   8.999  72.698  0.00  0.00     0.030 H 
ATOM     32  H9  non d ame     -12.648   8.091  72.754  0.00  0.00     0.030 H 
ENDBRANCH  13  29
ENDBRANCH  10  13
ENDBRANCH   7   9
BRANCH   7  33
ATOM     33  C11 non d ame     -10.153   9.663  66.691  0.00  0.00    -0.033 C 
ATOM     34  H12 non d ame     -11.052   9.938  66.139  0.00  0.00     0.042 H 
BRANCH  33  35
ATOM     35  C12 non d ame      -8.953  10.422  66.043  0.00  0.00    -0.071 C 
ATOM     36  H13 non d ame      -8.820  10.080  65.016  0.00  0.00     0.028 H 
ATOM     37  H14 non d ame      -9.156  11.493  66.046  0.00  0.00     0.028 H 
ATOM     38  H15 non d ame      -8.047  10.223  66.614  0.00  0.00     0.028 H 
ENDBRANCH  33  35
BRANCH  33  39
ATOM     39  C13 non d ame      -9.972   8.115  66.580  0.00  0.00    -0.071 C 
ATOM     40  H16 non d ame     -10.338   7.775  65.612  0.00  0.00     0.028 H 
ATOM     41  H17 non d ame      -8.915   7.865  66.677  0.00  0.00     0.028 H 
ATOM     42  H18 non d ame     -10.535   7.627  67.374  0.00  0.00     0.028 H 
ENDBRANCH  33  39
ENDBRANCH   7  33
ENDBRANCH   4   7
ENDBRANCH   1   3
BRANCH   1  43
ATOM     43  C15 non d ame     -11.399  14.501  68.475  0.00  0.00     0.240 C 
ATOM     44  O5  non d ame     -12.071  14.904  67.581  0.00  0.00    -0.271 OA
ATOM     45  N6  non d ame     -10.011  15.015  68.649  0.00  0.00    -0.355 N 
ATOM     46  H46 non d ame      -9.432  14.682  69.407  0.00  0.00     0.162 HD
BRANCH  45  47
ATOM     47  C20 non d ame      -9.477  16.018  67.703  0.00  0.00     0.013 C 
ATOM     48  H30 non d ame     -10.248  16.221  66.960  0.00  0.00     0.072 H 
BRANCH  47  49
ATOM     49  C21 non d ame      -8.243  15.462  67.028  0.00  0.00    -0.038 C 
ATOM     50  H31 non d ame      -8.206  14.408  67.303  0.00  0.00     0.036 H 
ATOM     51  H32 non d ame      -8.328  15.750  65.979  0.00  0.00     0.036 H 
BRANCH  49  52
ATOM     52  C22 non d ame      -6.936  16.096  67.550  0.00  0.00     0.018 C 
ATOM     53  H33 non d ame      -6.199  15.949  66.760  0.00  0.00     0.048 H 
ATOM     54  H34 non d ame      -7.203  17.106  67.865  0.00  0.00     0.048 H 
BRANCH  52  55
ATOM     55  C23 non d ame      -6.359  15.392  68.809  0.00  0.00     0.259 C 
ATOM     56  O7  non d ame      -6.877  14.415  69.244  0.00  0.00    -0.265 OA
BRANCH  55  57
ATOM     57  O8  non d ame      -5.211  15.937  69.448  0.00  0.00    -0.317 OA
BRANCH  57  58
ATOM     58  C29 non d ame      -4.542  16.946  68.685  0.00  0.00     0.052 C 
ATOM     59  H47 non d ame      -3.479  16.720  68.763  0.00  0.00     0.082 H 
ATOM     60  H48 non d ame      -5.028  16.948  67.709  0.00  0.00     0.082 H 
BRANCH  58  61
ATOM     61  C35 non d ame      -4.805  18.315  69.367  0.00  0.00    -0.034 A 
ATOM     62  C30 non d ame      -5.164  18.366  70.709  0.00  0.00    -0.075 A 
ATOM     63  C31 non d ame      -5.400  19.596  71.322  0.00  0.00    -0.082 A 
ATOM     64  H49 non d ame      -5.260  17.444  71.282  0.00  0.00     0.084 H 
ATOM     65  C32 non d ame      -5.278  20.777  70.586  0.00  0.00    -0.083 A 
ATOM     66  H50 non d ame      -5.679  19.633  72.375  0.00  0.00     0.083 H 
ATOM     67  C33 non d ame      -4.923  20.721  69.245  0.00  0.00    -0.082 A 
ATOM     68  H51 non d ame      -5.461  21.743  71.057  0.00  0.00     0.083 H 
ATOM     69  C34 non d ame      -4.684  19.494  68.629  0.00  0.00    -0.075 A 
ATOM     70  H52 non d ame      -4.832  21.644  68.672  0.00  0.00     0.083 H 
ATOM     71  H53 non d ame      -4.404  19.458  67.575  0.00  0.00     0.084 H 
ENDBRANCH  58  61
ENDBRANCH  57  58
ENDBRANCH  55  57
ENDBRANCH  52  55
ENDBRANCH  49  52
ENDBRANCH  47  49
BRANCH  47  72
ATOM     72  C24 non d ame      -9.114  17.296  68.456  0.00  0.00    -0.039 C 
ATOM     73  H35 non d ame      -9.267  17.065  69.510  0.00  0.00     0.036 H 
ATOM     74  H36 non d ame      -8.122  17.573  68.097  0.00  0.00     0.036 H 
BRANCH  72  75
ATOM     75  C25 non d ame     -10.103  18.501  68.088  0.00  0.00    -0.001 C 
ATOM     76  C26 non d ame     -10.489  18.443  66.491  0.00  0.00    -0.035 C 
ATOM     77  C27 non d ame     -10.262  19.660  65.942  0.00  0.00     0.085 C 
ATOM     78  H38 non d ame      -9.793  17.791  65.962  0.00  0.00     0.036 H 
ATOM     79  H39 non d ame     -11.564  18.305  66.370  0.00  0.00     0.036 H 
ATOM     80  N5  non d ame      -9.451  20.450  66.940  0.00  0.00    -0.049 N 
ATOM     81  H40 non d ame      -9.652  19.472  65.057  0.00  0.00     0.075 H 
ATOM     82  H41 non d ame     -11.244  20.120  65.839  0.00  0.00     0.075 H 
ATOM     83  C28 non d ame      -9.557  19.645  68.336  0.00  0.00     0.193 C 
ATOM     84  H42 non d ame      -8.493  20.415  66.621  0.00  0.00     0.280 HD
ATOM     85  H43 non d ame      -9.915  21.340  67.046  0.00  0.00     0.280 HD
ATOM     86  H44 non d ame     -10.206  20.006  69.134  0.00  0.00     0.129 H 
ATOM     87  H37 non d ame     -10.928  18.588  68.795  0.00  0.00     0.046 H 
BRANCH  83  88
ATOM     88  O6  non d ame      -8.264  19.510  68.926  0.00  0.00    -0.369 OA
ATOM     89  H45 non d ame      -8.349  19.481  69.881  0.00  0.00     0.212 HD
ENDBRANCH  83  88
ENDBRANCH  72  75
ENDBRANCH  47  72
ENDBRANCH  45  47
ENDBRANCH   1  43
BRANCH   1  90
ATOM     90  C16 non d ame     -11.948  14.002  70.878  0.00  0.00    -0.035 C 
ATOM     91  H21 non d ame     -12.489  13.274  71.484  0.00  0.00     0.037 H 
ATOM     92  H22 non d ame     -10.899  14.210  71.085  0.00  0.00     0.037 H 
BRANCH  90  93
ATOM     93  C17 non d ame     -12.708  15.357  71.034  0.00  0.00    -0.059 C 
ATOM     94  H23 non d ame     -12.701  15.853  70.064  0.00  0.00     0.038 H 
BRANCH  93  95
ATOM     95  C18 non d ame     -14.198  15.153  71.455  0.00  0.00    -0.073 C 
ATOM     96  H24 non d ame     -14.366  15.611  72.430  0.00  0.00     0.028 H 
ATOM     97  H25 non d ame     -14.851  15.620  70.717  0.00  0.00     0.028 H 
ATOM     98  H26 non d ame     -14.418  14.087  71.510  0.00  0.00     0.028 H 
ENDBRANCH  93  95
BRANCH  93  99
ATOM     99  C19 non d ame     -11.985  16.278  72.020  0.00  0.00    -0.073 C 
ATOM    100  H27 non d ame     -11.654  17.177  71.501  0.00  0.00     0.028 H 
ATOM    101  H28 non d ame     -12.665  16.553  72.827  0.00  0.00     0.028 H 
ATOM    102  H29 non d ame     -11.120  15.760  72.434  0.00  0.00     0.028 H 
ENDBRANCH  93  99
ENDBRANCH  90  93
ENDBRANCH   1  90
TORSDOF 26
ENDMDL
MODEL 17
REMARK VINA RESULT:      -5.8      2.583      6.249
REMARK  26 active torsions:
REMARK  status: ('A' for Active; 'I' for Inactive)
REMARK    1  A    between atoms: C2_2  and  C3_3 
REMARK    2  A    between atoms: C4_6  and  C5_7 
REMARK       I    between atoms: C5_7  and  N2_9 
REMARK    3  A    between atoms: N2_9  and  C6_10 
REMARK    4  A    between atoms: C6_10  and  C7_11 
REMARK    5  A    between atoms: C6_10  and  C8_13 
REMARK       I    between atoms: C7_11  and  N3_14 
REMARK    6  A    between atoms: N3_14  and  C9_15 
REMARK    7  A    between atoms: C9_15  and  C10_16 
REMARK    8  A    between atoms: C9_15  and  C11_18 
REMARK       I    between atoms: C10_16  and  N4_21 
REMARK    9  A    between atoms: C11_18  and  C12_19 
REMARK   10  A    between atoms: C11_18  and  C13_20 
REMARK   11  A    between atoms: N4_21  and  C14_22 
REMARK   12  A    between atoms: C14_22  and  C15_23 
REMARK   13  A    between atoms: C14_22  and  C16_25 
REMARK       I    between atoms: C15_23  and  N6_40 
REMARK   14  A    between atoms: C16_25  and  C17_26 
REMARK   15  A    between atoms: C17_26  and  C18_27 
REMARK   16  A    between atoms: C17_26  and  C19_28 
REMARK   17  A    between atoms: C20_29  and  C21_30 
REMARK   18  A    between atoms: C20_29  and  C24_33 
REMARK   19  A    between atoms: C20_29  and  N6_40 
REMARK   20  A    between atoms: C21_30  and  C22_31 
REMARK   21  A    between atoms: C22_31  and  C23_32 
REMARK   22  A    between atoms: C23_32  and  O8_43 
REMARK   23  A    between atoms: C24_33  and  C25_34 
REMARK   24  A    between atoms: C28_38  and  O6_39 
REMARK   25  A    between atoms: C29_42  and  O8_43 
REMARK   26  A    between atoms: C29_42  and  C35_49 
ROOT
ATOM      1  C14 non d ame      -6.500  13.362  68.352  0.00  0.00     0.089 C 
ATOM      2  H20 non d ame      -6.700  13.140  69.400  0.00  0.00     0.087 H 
ENDROOT
BRANCH   1   3
ATOM      3  N4  non d ame      -6.819  12.170  67.581  0.00  0.00    -0.346 N 
ATOM      4  C10 non d ame      -6.492  10.801  68.124  0.00  0.00     0.241 C 
ATOM      5  O4  non d ame      -5.967  10.686  69.183  0.00  0.00    -0.271 OA
ATOM      6  H19 non d ame      -7.263  12.290  66.681  0.00  0.00     0.163 HD
BRANCH   4   7
ATOM      7  C9  non d ame      -6.835   9.578  67.316  0.00  0.00     0.092 C 
ATOM      8  H11 non d ame      -6.371   8.704  67.773  0.00  0.00     0.088 H 
BRANCH   7   9
ATOM      9  N3  non d ame      -8.284   9.363  67.346  0.00  0.00    -0.346 N 
ATOM     10  C7  non d ame      -8.856   8.427  68.282  0.00  0.00     0.240 C 
ATOM     11  O3  non d ame      -8.163   7.837  69.019  0.00  0.00    -0.271 OA
ATOM     12  H10 non d ame      -8.894   9.863  66.715  0.00  0.00     0.163 HD
BRANCH  10  13
ATOM     13  C6  non d ame     -10.399   8.200  68.306  0.00  0.00     0.086 C 
ATOM     14  H6  non d ame     -10.711   7.497  69.078  0.00  0.00     0.086 H 
BRANCH  13  15
ATOM     15  N2  non d ame     -11.056   9.462  68.605  0.00  0.00    -0.343 N 
ATOM     16  C5  non d ame     -11.180   9.899  69.998  0.00  0.00     0.273 C 
ATOM     17  O2  non d ame     -10.751   9.226  70.870  0.00  0.00    -0.266 OA
ATOM     18  H5  non d ame     -11.422  10.029  67.854  0.00  0.00     0.163 HD
BRANCH  16  19
ATOM     19  C4  non d ame     -11.870  11.231  70.328  0.00  0.00     0.154 A 
ATOM     20  C1  non d ame     -12.730  11.508  71.438  0.00  0.00    -0.017 A 
ATOM     21  C2  non d ame     -13.096  12.864  71.286  0.00  0.00     0.077 A 
ATOM     22  H1  non d ame     -13.041  10.829  72.233  0.00  0.00     0.091 H 
ATOM     23  O1  non d ame     -12.509  13.306  70.212  0.00  0.00    -0.218 OA
ATOM     24  N1  non d ame     -11.789  12.371  69.635  0.00  0.00    -0.123 NA
BRANCH  21  25
ATOM     25  C3  non d ame     -14.007  13.661  72.210  0.00  0.00    -0.029 C 
ATOM     26  H2  non d ame     -13.436  14.015  73.069  0.00  0.00     0.036 H 
ATOM     27  H3  non d ame     -14.416  14.514  71.669  0.00  0.00     0.036 H 
ATOM     28  H4  non d ame     -14.824  13.025  72.554  0.00  0.00     0.036 H 
ENDBRANCH  21  25
ENDBRANCH  16  19
ENDBRANCH  13  15
BRANCH  13  29
ATOM     29  C8  non d ame     -10.856   7.686  66.965  0.00  0.00    -0.049 C 
ATOM     30  H7  non d ame     -11.225   8.516  66.363  0.00  0.00     0.030 H 
ATOM     31  H8  non d ame     -10.017   7.211  66.453  0.00  0.00     0.030 H 
ATOM     32  H9  non d ame     -11.654   6.958  67.107  0.00  0.00     0.030 H 
ENDBRANCH  13  29
ENDBRANCH  10  13
ENDBRANCH   7   9
BRANCH   7  33
ATOM     33  C11 non d ame      -6.373   9.782  65.843  0.00  0.00    -0.033 C 
ATOM     34  H12 non d ame      -5.938  10.779  65.771  0.00  0.00     0.042 H 
BRANCH  33  35
ATOM     35  C12 non d ame      -5.264   8.757  65.448  0.00  0.00    -0.071 C 
ATOM     36  H13 non d ame      -4.793   9.074  64.517  0.00  0.00     0.028 H 
ATOM     37  H14 non d ame      -4.514   8.711  66.237  0.00  0.00     0.028 H 
ATOM     38  H15 non d ame      -5.712   7.773  65.314  0.00  0.00     0.028 H 
ENDBRANCH  33  35
BRANCH  33  39
ATOM     39  C13 non d ame      -7.586   9.711  64.862  0.00  0.00    -0.071 C 
ATOM     40  H16 non d ame      -7.761   8.675  64.575  0.00  0.00     0.028 H 
ATOM     41  H17 non d ame      -8.475  10.108  65.353  0.00  0.00     0.028 H 
ATOM     42  H18 non d ame      -7.368  10.302  63.973  0.00  0.00     0.028 H 
ENDBRANCH  33  39
ENDBRANCH   7  33
ENDBRANCH   4   7
ENDBRANCH   1   3
BRANCH   1  43
ATOM     43  C15 non d ame      -7.367  14.540  67.824  0.00  0.00     0.240 C 
ATOM     44  O5  non d ame      -6.903  15.633  67.757  0.00  0.00    -0.271 OA
ATOM     45  N6  non d ame      -8.775  14.306  67.393  0.00  0.00    -0.355 N 
ATOM     46  H46 non d ame      -9.179  13.382  67.441  0.00  0.00     0.162 HD
BRANCH  45  47
ATOM     47  C20 non d ame      -9.586  15.436  66.892  0.00  0.00     0.013 C 
ATOM     48  H30 non d ame      -8.997  16.347  67.003  0.00  0.00     0.072 H 
BRANCH  47  49
ATOM     49  C21 non d ame     -10.855  15.541  67.707  0.00  0.00    -0.038 C 
ATOM     50  H31 non d ame     -11.632  15.847  67.006  0.00  0.00     0.036 H 
ATOM     51  H32 non d ame     -10.943  14.592  68.238  0.00  0.00     0.036 H 
BRANCH  49  52
ATOM     52  C22 non d ame     -10.785  16.640  68.789  0.00  0.00     0.018 C 
ATOM     53  H33 non d ame     -11.819  16.856  69.060  0.00  0.00     0.048 H 
ATOM     54  H34 non d ame     -10.090  16.269  69.543  0.00  0.00     0.048 H 
BRANCH  52  55
ATOM     55  C23 non d ame     -10.188  17.982  68.279  0.00  0.00     0.259 C 
ATOM     56  O7  non d ame     -10.873  18.769  67.712  0.00  0.00    -0.265 OA
BRANCH  55  57
ATOM     57  O8  non d ame      -8.807  18.254  68.485  0.00  0.00    -0.317 OA
BRANCH  57  58
ATOM     58  C29 non d ame      -8.494  19.647  68.574  0.00  0.00     0.052 C 
ATOM     59  H47 non d ame      -9.425  20.173  68.367  0.00  0.00     0.082 H 
ATOM     60  H48 non d ame      -7.997  19.776  69.536  0.00  0.00     0.082 H 
BRANCH  58  61
ATOM     61  C35 non d ame      -7.479  19.982  67.448  0.00  0.00    -0.034 A 
ATOM     62  C30 non d ame      -7.619  19.405  66.191  0.00  0.00    -0.075 A 
ATOM     63  C31 non d ame      -6.708  19.706  65.179  0.00  0.00    -0.082 A 
ATOM     64  H49 non d ame      -8.442  18.717  65.997  0.00  0.00     0.084 H 
ATOM     65  C32 non d ame      -5.653  20.586  65.430  0.00  0.00    -0.083 A 
ATOM     66  H50 non d ame      -6.822  19.253  64.194  0.00  0.00     0.083 H 
ATOM     67  C33 non d ame      -5.515  21.158  66.688  0.00  0.00    -0.082 A 
ATOM     68  H51 non d ame      -4.936  20.827  64.645  0.00  0.00     0.083 H 
ATOM     69  C34 non d ame      -6.425  20.861  67.701  0.00  0.00    -0.075 A 
ATOM     70  H52 non d ame      -4.689  21.842  66.882  0.00  0.00     0.083 H 
ATOM     71  H53 non d ame      -6.311  21.315  68.687  0.00  0.00     0.084 H 
ENDBRANCH  58  61
ENDBRANCH  57  58
ENDBRANCH  55  57
ENDBRANCH  52  55
ENDBRANCH  49  52
ENDBRANCH  47  49
BRANCH  47  72
ATOM     72  C24 non d ame      -9.939  15.208  65.425  0.00  0.00    -0.039 C 
ATOM     73  H35 non d ame     -10.115  16.201  65.010  0.00  0.00     0.036 H 
ATOM     74  H36 non d ame      -9.138  14.586  65.026  0.00  0.00     0.036 H 
BRANCH  72  75
ATOM     75  C25 non d ame     -11.302  14.381  65.265  0.00  0.00    -0.001 C 
ATOM     76  C26 non d ame     -10.979  12.869  64.706  0.00  0.00    -0.035 C 
ATOM     77  C27 non d ame     -11.764  12.624  63.630  0.00  0.00     0.085 C 
ATOM     78  H38 non d ame      -9.969  12.830  64.299  0.00  0.00     0.036 H 
ATOM     79  H39 non d ame     -11.302  12.124  65.434  0.00  0.00     0.036 H 
ATOM     80  N5  non d ame     -12.357  13.945  63.206  0.00  0.00    -0.049 N 
ATOM     81  H40 non d ame     -11.089  12.270  62.851  0.00  0.00     0.075 H 
ATOM     82  H41 non d ame     -12.563  11.977  63.994  0.00  0.00     0.075 H 
ATOM     83  C28 non d ame     -12.106  14.960  64.437  0.00  0.00     0.193 C 
ATOM     84  H42 non d ame     -11.816  14.261  62.414  0.00  0.00     0.280 HD
ATOM     85  H43 non d ame     -13.351  13.796  63.111  0.00  0.00     0.280 HD
ATOM     86  H44 non d ame     -12.923  15.230  65.107  0.00  0.00     0.129 H 
ATOM     87  H37 non d ame     -11.938  14.458  66.147  0.00  0.00     0.046 H 
BRANCH  83  88
ATOM     88  O6  non d ame     -11.583  16.199  63.954  0.00  0.00    -0.369 OA
ATOM     89  H45 non d ame     -12.216  16.602  63.356  0.00  0.00     0.212 HD
ENDBRANCH  83  88
ENDBRANCH  72  75
ENDBRANCH  47  72
ENDBRANCH  45  47
ENDBRANCH   1  43
BRANCH   1  90
ATOM     90  C16 non d ame      -5.026  13.691  68.169  0.00  0.00    -0.035 C 
ATOM     91  H21 non d ame      -4.583  12.796  67.731  0.00  0.00     0.037 H 
ATOM     92  H22 non d ame      -5.006  14.632  67.621  0.00  0.00     0.037 H 
BRANCH  90  93
ATOM     93  C17 non d ame      -4.270  13.945  69.511  0.00  0.00    -0.059 C 
ATOM     94  H23 non d ame      -3.997  15.000  69.542  0.00  0.00     0.038 H 
BRANCH  93  95
ATOM     95  C18 non d ame      -5.163  13.647  70.757  0.00  0.00    -0.073 C 
ATOM     96  H24 non d ame      -5.007  14.421  71.510  0.00  0.00     0.028 H 
ATOM     97  H25 non d ame      -6.211  13.637  70.460  0.00  0.00     0.028 H 
ATOM     98  H26 non d ame      -4.895  12.676  71.173  0.00  0.00     0.028 H 
ENDBRANCH  93  95
BRANCH  93  99
ATOM     99  C19 non d ame      -2.969  13.139  69.567  0.00  0.00    -0.073 C 
ATOM    100  H27 non d ame      -2.126  13.796  69.354  0.00  0.00     0.028 H 
ATOM    101  H28 non d ame      -2.852  12.707  70.561  0.00  0.00     0.028 H 
ATOM    102  H29 non d ame      -3.004  12.342  68.825  0.00  0.00     0.028 H 
ENDBRANCH  93  99
ENDBRANCH  90  93
ENDBRANCH   1  90
TORSDOF 26
ENDMDL
MODEL 18
REMARK VINA RESULT:      -5.8      3.138      7.023
REMARK  26 active torsions:
REMARK  status: ('A' for Active; 'I' for Inactive)
REMARK    1  A    between atoms: C2_2  and  C3_3 
REMARK    2  A    between atoms: C4_6  and  C5_7 
REMARK       I    between atoms: C5_7  and  N2_9 
REMARK    3  A    between atoms: N2_9  and  C6_10 
REMARK    4  A    between atoms: C6_10  and  C7_11 
REMARK    5  A    between atoms: C6_10  and  C8_13 
REMARK       I    between atoms: C7_11  and  N3_14 
REMARK    6  A    between atoms: N3_14  and  C9_15 
REMARK    7  A    between atoms: C9_15  and  C10_16 
REMARK    8  A    between atoms: C9_15  and  C11_18 
REMARK       I    between atoms: C10_16  and  N4_21 
REMARK    9  A    between atoms: C11_18  and  C12_19 
REMARK   10  A    between atoms: C11_18  and  C13_20 
REMARK   11  A    between atoms: N4_21  and  C14_22 
REMARK   12  A    between atoms: C14_22  and  C15_23 
REMARK   13  A    between atoms: C14_22  and  C16_25 
REMARK       I    between atoms: C15_23  and  N6_40 
REMARK   14  A    between atoms: C16_25  and  C17_26 
REMARK   15  A    between atoms: C17_26  and  C18_27 
REMARK   16  A    between atoms: C17_26  and  C19_28 
REMARK   17  A    between atoms: C20_29  and  C21_30 
REMARK   18  A    between atoms: C20_29  and  C24_33 
REMARK   19  A    between atoms: C20_29  and  N6_40 
REMARK   20  A    between atoms: C21_30  and  C22_31 
REMARK   21  A    between atoms: C22_31  and  C23_32 
REMARK   22  A    between atoms: C23_32  and  O8_43 
REMARK   23  A    between atoms: C24_33  and  C25_34 
REMARK   24  A    between atoms: C28_38  and  O6_39 
REMARK   25  A    between atoms: C29_42  and  O8_43 
REMARK   26  A    between atoms: C29_42  and  C35_49 
ROOT
ATOM      1  C14 non d ame     -10.015   5.725  67.997  0.00  0.00     0.089 C 
ATOM      2  H20 non d ame     -10.999   5.719  67.529  0.00  0.00     0.087 H 
ENDROOT
BRANCH   1   3
ATOM      3  N4  non d ame      -9.043   6.073  66.972  0.00  0.00    -0.346 N 
ATOM      4  C10 non d ame      -9.207   7.335  66.163  0.00  0.00     0.241 C 
ATOM      5  O4  non d ame     -10.132   8.054  66.354  0.00  0.00    -0.271 OA
ATOM      6  H19 non d ame      -8.264   5.445  66.823  0.00  0.00     0.163 HD
BRANCH   4   7
ATOM      7  C9  non d ame      -8.188   7.682  65.110  0.00  0.00     0.092 C 
ATOM      8  H11 non d ame      -8.248   6.955  64.300  0.00  0.00     0.088 H 
BRANCH   7   9
ATOM      9  N3  non d ame      -8.505   8.994  64.537  0.00  0.00    -0.346 N 
ATOM     10  C7  non d ame      -8.678   9.136  63.112  0.00  0.00     0.240 C 
ATOM     11  O3  non d ame      -8.564   8.206  62.411  0.00  0.00    -0.271 OA
ATOM     12  H10 non d ame      -8.605   9.806  65.129  0.00  0.00     0.163 HD
BRANCH  10  13
ATOM     13  C6  non d ame      -9.011  10.536  62.509  0.00  0.00     0.086 C 
ATOM     14  H6  non d ame      -9.889  10.519  61.863  0.00  0.00     0.086 H 
BRANCH  13  15
ATOM     15  N2  non d ame      -9.311  11.457  63.593  0.00  0.00    -0.343 N 
ATOM     16  C5  non d ame     -10.704  11.820  63.865  0.00  0.00     0.273 C 
ATOM     17  O2  non d ame     -11.574  11.368  63.206  0.00  0.00    -0.266 OA
ATOM     18  H5  non d ame      -8.562  11.840  64.150  0.00  0.00     0.163 HD
BRANCH  16  19
ATOM     19  C4  non d ame     -11.036  12.791  65.009  0.00  0.00     0.154 A 
ATOM     20  C1  non d ame     -10.458  14.078  65.246  0.00  0.00    -0.017 A 
ATOM     21  C2  non d ame     -11.099  14.557  66.410  0.00  0.00     0.077 A 
ATOM     22  H1  non d ame      -9.691  14.588  64.662  0.00  0.00     0.091 H 
ATOM     23  O1  non d ame     -11.946  13.644  66.789  0.00  0.00    -0.218 OA
ATOM     24  N1  non d ame     -11.926  12.604  65.988  0.00  0.00    -0.123 NA
BRANCH  21  25
ATOM     25  C3  non d ame     -10.848  15.894  67.093  0.00  0.00    -0.029 C 
ATOM     26  H2  non d ame     -11.202  16.703  66.452  0.00  0.00     0.036 H 
ATOM     27  H3  non d ame     -11.382  15.923  68.043  0.00  0.00     0.036 H 
ATOM     28  H4  non d ame      -9.779  16.016  67.274  0.00  0.00     0.036 H 
ENDBRANCH  21  25
ENDBRANCH  16  19
ENDBRANCH  13  15
BRANCH  13  29
ATOM     29  C8  non d ame      -7.832  11.039  61.716  0.00  0.00    -0.049 C 
ATOM     30  H7  non d ame      -7.394  11.900  62.222  0.00  0.00     0.030 H 
ATOM     31  H8  non d ame      -7.085  10.248  61.634  0.00  0.00     0.030 H 
ATOM     32  H9  non d ame      -8.161  11.332  60.721  0.00  0.00     0.030 H 
ENDBRANCH  13  29
ENDBRANCH  10  13
ENDBRANCH   7   9
BRANCH   7  33
ATOM     33  C11 non d ame      -6.771   7.728  65.753  0.00  0.00    -0.033 C 
ATOM     34  H12 non d ame      -6.816   7.165  66.686  0.00  0.00     0.042 H 
BRANCH  33  35
ATOM     35  C12 non d ame      -5.710   7.038  64.839  0.00  0.00    -0.071 C 
ATOM     36  H13 non d ame      -6.211   6.561  63.997  0.00  0.00     0.028 H 
ATOM     37  H14 non d ame      -5.010   7.786  64.468  0.00  0.00     0.028 H 
ATOM     38  H15 non d ame      -5.169   6.288  65.415  0.00  0.00     0.028 H 
ENDBRANCH  33  35
BRANCH  33  39
ATOM     39  C13 non d ame      -6.359   9.196  66.092  0.00  0.00    -0.071 C 
ATOM     40  H16 non d ame      -7.232   9.748  66.438  0.00  0.00     0.028 H 
ATOM     41  H17 non d ame      -5.600   9.189  66.875  0.00  0.00     0.028 H 
ATOM     42  H18 non d ame      -5.956   9.674  65.200  0.00  0.00     0.028 H 
ENDBRANCH  33  39
ENDBRANCH   7  33
ENDBRANCH   4   7
ENDBRANCH   1   3
BRANCH   1  43
ATOM     43  C15 non d ame      -9.918   6.770  69.146  0.00  0.00     0.240 C 
ATOM     44  O5  non d ame      -9.061   6.670  69.965  0.00  0.00    -0.271 OA
ATOM     45  N6  non d ame     -10.887   7.900  69.221  0.00  0.00    -0.355 N 
ATOM     46  H46 non d ame     -11.616   7.998  68.529  0.00  0.00     0.162 HD
BRANCH  45  47
ATOM     47  C20 non d ame     -10.780   8.885  70.319  0.00  0.00     0.013 C 
ATOM     48  H30 non d ame      -9.864   8.675  70.870  0.00  0.00     0.072 H 
BRANCH  47  49
ATOM     49  C21 non d ame     -11.976   8.746  71.234  0.00  0.00    -0.038 C 
ATOM     50  H31 non d ame     -12.298   9.764  71.455  0.00  0.00     0.036 H 
ATOM     51  H32 non d ame     -12.654   8.057  70.729  0.00  0.00     0.036 H 
BRANCH  49  52
ATOM     52  C22 non d ame     -11.622   8.096  72.588  0.00  0.00     0.018 C 
ATOM     53  H33 non d ame     -10.646   8.498  72.864  0.00  0.00     0.048 H 
ATOM     54  H34 non d ame     -12.484   8.268  73.233  0.00  0.00     0.048 H 
BRANCH  52  55
ATOM     55  C23 non d ame     -11.442   6.554  72.514  0.00  0.00     0.259 C 
ATOM     56  O7  non d ame     -11.973   5.927  71.656  0.00  0.00    -0.265 OA
BRANCH  55  57
ATOM     57  O8  non d ame     -10.647   5.896  73.492  0.00  0.00    -0.317 OA
BRANCH  57  58
ATOM     58  C29 non d ame      -9.741   6.761  74.184  0.00  0.00     0.052 C 
ATOM     59  H47 non d ame     -10.193   7.751  74.149  0.00  0.00     0.082 H 
ATOM     60  H48 non d ame      -9.553   6.282  75.145  0.00  0.00     0.082 H 
BRANCH  58  61
ATOM     61  C35 non d ame      -8.411   6.799  73.386  0.00  0.00    -0.034 A 
ATOM     62  C30 non d ame      -7.801   8.017  73.107  0.00  0.00    -0.075 A 
ATOM     63  C31 non d ame      -6.606   8.052  72.390  0.00  0.00    -0.082 A 
ATOM     64  H49 non d ame      -8.259   8.945  73.449  0.00  0.00     0.084 H 
ATOM     65  C32 non d ame      -6.022   6.861  71.950  0.00  0.00    -0.083 A 
ATOM     66  H50 non d ame      -6.130   9.008  72.174  0.00  0.00     0.083 H 
ATOM     67  C33 non d ame      -6.635   5.647  72.228  0.00  0.00    -0.082 A 
ATOM     68  H51 non d ame      -5.087   6.878  71.388  0.00  0.00     0.083 H 
ATOM     69  C34 non d ame      -7.829   5.608  72.947  0.00  0.00    -0.075 A 
ATOM     70  H52 non d ame      -6.178   4.720  71.881  0.00  0.00     0.083 H 
ATOM     71  H53 non d ame      -8.304   4.650  73.163  0.00  0.00     0.084 H 
ENDBRANCH  58  61
ENDBRANCH  57  58
ENDBRANCH  55  57
ENDBRANCH  52  55
ENDBRANCH  49  52
ENDBRANCH  47  49
BRANCH  47  72
ATOM     72  C24 non d ame     -10.740  10.298  69.742  0.00  0.00    -0.039 C 
ATOM     73  H35 non d ame     -11.668  10.409  69.180  0.00  0.00     0.036 H 
ATOM     74  H36 non d ame     -10.536  10.953  70.590  0.00  0.00     0.036 H 
BRANCH  72  75
ATOM     75  C25 non d ame      -9.534  10.481  68.704  0.00  0.00    -0.001 C 
ATOM     76  C26 non d ame      -8.122   9.997  69.394  0.00  0.00    -0.035 C 
ATOM     77  C27 non d ame      -7.203  10.981  69.243  0.00  0.00     0.085 C 
ATOM     78  H38 non d ame      -8.241   9.924  70.475  0.00  0.00     0.036 H 
ATOM     79  H39 non d ame      -7.698   9.164  68.834  0.00  0.00     0.036 H 
ATOM     80  N5  non d ame      -7.948  12.218  68.803  0.00  0.00    -0.049 N 
ATOM     81  H40 non d ame      -6.790  11.149  70.238  0.00  0.00     0.075 H 
ATOM     82  H41 non d ame      -6.554  10.651  68.432  0.00  0.00     0.075 H 
ATOM     83  C28 non d ame      -9.411  11.715  68.342  0.00  0.00     0.193 C 
ATOM     84  H42 non d ame      -8.052  12.797  69.625  0.00  0.00     0.280 HD
ATOM     85  H43 non d ame      -7.460  12.574  67.994  0.00  0.00     0.280 HD
ATOM     86  H44 non d ame      -9.662  11.638  67.284  0.00  0.00     0.129 H 
ATOM     87  H37 non d ame      -9.770  10.074  67.721  0.00  0.00     0.046 H 
BRANCH  83  88
ATOM     88  O6  non d ame     -10.421  12.547  68.914  0.00  0.00    -0.369 OA
ATOM     89  H45 non d ame     -10.277  13.457  68.644  0.00  0.00     0.212 HD
ENDBRANCH  83  88
ENDBRANCH  72  75
ENDBRANCH  47  72
ENDBRANCH  45  47
ENDBRANCH   1  43
BRANCH   1  90
ATOM     90  C16 non d ame      -9.694   4.340  68.538  0.00  0.00    -0.035 C 
ATOM     91  H21 non d ame      -9.485   4.485  69.598  0.00  0.00     0.037 H 
ATOM     92  H22 non d ame     -10.527   3.710  68.228  0.00  0.00     0.037 H 
BRANCH  90  93
ATOM     93  C17 non d ame      -8.407   3.709  67.918  0.00  0.00    -0.059 C 
ATOM     94  H23 non d ame      -8.150   4.287  67.030  0.00  0.00     0.038 H 
BRANCH  93  95
ATOM     95  C18 non d ame      -7.191   3.769  68.895  0.00  0.00    -0.073 C 
ATOM     96  H24 non d ame      -6.590   2.866  68.783  0.00  0.00     0.028 H 
ATOM     97  H25 non d ame      -6.580   4.642  68.663  0.00  0.00     0.028 H 
ATOM     98  H26 non d ame      -7.551   3.841  69.921  0.00  0.00     0.028 H 
ENDBRANCH  93  95
BRANCH  93  99
ATOM     99  C19 non d ame      -8.669   2.271  67.462  0.00  0.00    -0.073 C 
ATOM    100  H27 non d ame      -8.149   2.088  66.522  0.00  0.00     0.028 H 
ATOM    101  H28 non d ame      -8.306   1.577  68.220  0.00  0.00     0.028 H 
ATOM    102  H29 non d ame      -9.740   2.125  67.318  0.00  0.00     0.028 H 
ENDBRANCH  93  99
ENDBRANCH  90  93
ENDBRANCH   1  90
TORSDOF 26
ENDMDL
MODEL 19
REMARK VINA RESULT:      -5.8      3.348      7.215
REMARK  26 active torsions:
REMARK  status: ('A' for Active; 'I' for Inactive)
REMARK    1  A    between atoms: C2_2  and  C3_3 
REMARK    2  A    between atoms: C4_6  and  C5_7 
REMARK       I    between atoms: C5_7  and  N2_9 
REMARK    3  A    between atoms: N2_9  and  C6_10 
REMARK    4  A    between atoms: C6_10  and  C7_11 
REMARK    5  A    between atoms: C6_10  and  C8_13 
REMARK       I    between atoms: C7_11  and  N3_14 
REMARK    6  A    between atoms: N3_14  and  C9_15 
REMARK    7  A    between atoms: C9_15  and  C10_16 
REMARK    8  A    between atoms: C9_15  and  C11_18 
REMARK       I    between atoms: C10_16  and  N4_21 
REMARK    9  A    between atoms: C11_18  and  C12_19 
REMARK   10  A    between atoms: C11_18  and  C13_20 
REMARK   11  A    between atoms: N4_21  and  C14_22 
REMARK   12  A    between atoms: C14_22  and  C15_23 
REMARK   13  A    between atoms: C14_22  and  C16_25 
REMARK       I    between atoms: C15_23  and  N6_40 
REMARK   14  A    between atoms: C16_25  and  C17_26 
REMARK   15  A    between atoms: C17_26  and  C18_27 
REMARK   16  A    between atoms: C17_26  and  C19_28 
REMARK   17  A    between atoms: C20_29  and  C21_30 
REMARK   18  A    between atoms: C20_29  and  C24_33 
REMARK   19  A    between atoms: C20_29  and  N6_40 
REMARK   20  A    between atoms: C21_30  and  C22_31 
REMARK   21  A    between atoms: C22_31  and  C23_32 
REMARK   22  A    between atoms: C23_32  and  O8_43 
REMARK   23  A    between atoms: C24_33  and  C25_34 
REMARK   24  A    between atoms: C28_38  and  O6_39 
REMARK   25  A    between atoms: C29_42  and  O8_43 
REMARK   26  A    between atoms: C29_42  and  C35_49 
ROOT
ATOM      1  C14 non d ame     -11.948  13.873  69.349  0.00  0.00     0.089 C 
ATOM      2  H20 non d ame     -12.944  13.546  69.052  0.00  0.00     0.087 H 
ENDROOT
BRANCH   1   3
ATOM      3  N4  non d ame     -11.098  12.693  69.404  0.00  0.00    -0.346 N 
ATOM      4  C10 non d ame     -11.212  11.622  68.348  0.00  0.00     0.241 C 
ATOM      5  O4  non d ame     -11.998  11.732  67.465  0.00  0.00    -0.271 OA
ATOM      6  H19 non d ame     -10.437  12.618  70.165  0.00  0.00     0.163 HD
BRANCH   4   7
ATOM      7  C9  non d ame     -10.321  10.411  68.416  0.00  0.00     0.092 C 
ATOM      8  H11 non d ame      -9.453  10.638  69.035  0.00  0.00     0.088 H 
BRANCH   7   9
ATOM      9  N3  non d ame     -11.039   9.311  69.067  0.00  0.00    -0.346 N 
ATOM     10  C7  non d ame     -10.660   8.885  70.391  0.00  0.00     0.240 C 
ATOM     11  O3  non d ame      -9.777   9.415  70.948  0.00  0.00    -0.271 OA
ATOM     12  H10 non d ame     -11.802   8.843  68.598  0.00  0.00     0.163 HD
BRANCH  10  13
ATOM     13  C6  non d ame     -11.427   7.712  71.077  0.00  0.00     0.086 C 
ATOM     14  H6  non d ame     -12.402   7.525  70.627  0.00  0.00     0.086 H 
BRANCH  13  15
ATOM     15  N2  non d ame     -10.656   6.490  70.920  0.00  0.00    -0.343 N 
ATOM     16  C5  non d ame     -10.735   5.745  69.661  0.00  0.00     0.273 C 
ATOM     17  O2  non d ame     -11.423   6.136  68.783  0.00  0.00    -0.266 OA
ATOM     18  H5  non d ame     -10.073   6.162  71.675  0.00  0.00     0.163 HD
BRANCH  16  19
ATOM     19  C4  non d ame      -9.924   4.452  69.480  0.00  0.00     0.154 A 
ATOM     20  C1  non d ame      -9.336   3.963  68.270  0.00  0.00    -0.017 A 
ATOM     21  C2  non d ame      -8.707   2.752  68.635  0.00  0.00     0.077 A 
ATOM     22  H1  non d ame      -9.361   4.417  67.279  0.00  0.00     0.091 H 
ATOM     23  O1  non d ame      -8.914   2.576  69.908  0.00  0.00    -0.218 OA
ATOM     24  N1  non d ame      -9.623   3.555  70.422  0.00  0.00    -0.123 NA
BRANCH  21  25
ATOM     25  C3  non d ame      -7.929   1.826  67.710  0.00  0.00    -0.029 C 
ATOM     26  H2  non d ame      -6.927   2.226  67.553  0.00  0.00     0.036 H 
ATOM     27  H3  non d ame      -7.859   0.837  68.162  0.00  0.00     0.036 H 
ATOM     28  H4  non d ame      -8.445   1.750  66.752  0.00  0.00     0.036 H 
ENDBRANCH  21  25
ENDBRANCH  16  19
ENDBRANCH  13  15
BRANCH  13  29
ATOM     29  C8  non d ame     -11.616   8.018  72.541  0.00  0.00    -0.049 C 
ATOM     30  H7  non d ame     -11.642   7.087  73.107  0.00  0.00     0.030 H 
ATOM     31  H8  non d ame     -10.787   8.634  72.893  0.00  0.00     0.030 H 
ATOM     32  H9  non d ame     -12.553   8.555  72.682  0.00  0.00     0.030 H 
ENDBRANCH  13  29
ENDBRANCH  10  13
ENDBRANCH   7   9
BRANCH   7  33
ATOM     33  C11 non d ame      -9.916   9.982  66.975  0.00  0.00    -0.033 C 
ATOM     34  H12 non d ame     -10.371  10.690  66.282  0.00  0.00     0.042 H 
BRANCH  33  35
ATOM     35  C12 non d ame      -8.370  10.055  66.774  0.00  0.00    -0.071 C 
ATOM     36  H13 non d ame      -8.034   9.178  66.220  0.00  0.00     0.028 H 
ATOM     37  H14 non d ame      -8.119  10.956  66.214  0.00  0.00     0.028 H 
ATOM     38  H15 non d ame      -7.878  10.083  67.746  0.00  0.00     0.028 H 
ENDBRANCH  33  35
BRANCH  33  39
ATOM     39  C13 non d ame     -10.464   8.557  66.642  0.00  0.00    -0.071 C 
ATOM     40  H16 non d ame      -9.937   8.160  65.774  0.00  0.00     0.028 H 
ATOM     41  H17 non d ame     -10.308   7.898  67.496  0.00  0.00     0.028 H 
ATOM     42  H18 non d ame     -11.529   8.622  66.422  0.00  0.00     0.028 H 
ENDBRANCH  33  39
ENDBRANCH   7  33
ENDBRANCH   4   7
ENDBRANCH   1   3
BRANCH   1  43
ATOM     43  C15 non d ame     -11.333  14.880  68.336  0.00  0.00     0.240 C 
ATOM     44  O5  non d ame     -11.885  15.093  67.304  0.00  0.00    -0.271 OA
ATOM     45  N6  non d ame     -10.059  15.586  68.653  0.00  0.00    -0.355 N 
ATOM     46  H46 non d ame      -9.582  15.416  69.528  0.00  0.00     0.162 HD
BRANCH  45  47
ATOM     47  C20 non d ame      -9.488  16.541  67.680  0.00  0.00     0.013 C 
ATOM     48  H30 non d ame     -10.314  17.008  67.144  0.00  0.00     0.072 H 
BRANCH  47  49
ATOM     49  C21 non d ame      -8.599  15.796  66.710  0.00  0.00    -0.038 C 
ATOM     50  H31 non d ame      -9.129  14.873  66.473  0.00  0.00     0.036 H 
ATOM     51  H32 non d ame      -8.365  16.509  65.918  0.00  0.00     0.036 H 
BRANCH  49  52
ATOM     52  C22 non d ame      -7.250  15.378  67.333  0.00  0.00     0.018 C 
ATOM     53  H33 non d ame      -6.503  15.534  66.553  0.00  0.00     0.048 H 
ATOM     54  H34 non d ame      -7.177  15.924  68.274  0.00  0.00     0.048 H 
BRANCH  52  55
ATOM     55  C23 non d ame      -7.172  13.871  67.703  0.00  0.00     0.259 C 
ATOM     56  O7  non d ame      -8.137  13.295  68.088  0.00  0.00    -0.265 OA
BRANCH  55  57
ATOM     57  O8  non d ame      -5.929  13.188  67.591  0.00  0.00    -0.317 OA
BRANCH  57  58
ATOM     58  C29 non d ame      -4.811  13.926  68.093  0.00  0.00     0.052 C 
ATOM     59  H47 non d ame      -3.926  13.401  67.734  0.00  0.00     0.082 H 
ATOM     60  H48 non d ame      -4.986  14.961  67.801  0.00  0.00     0.082 H 
BRANCH  58  61
ATOM     61  C35 non d ame      -4.838  13.841  69.642  0.00  0.00    -0.034 A 
ATOM     62  C30 non d ame      -4.838  15.006  70.403  0.00  0.00    -0.075 A 
ATOM     63  C31 non d ame      -4.862  14.930  71.795  0.00  0.00    -0.082 A 
ATOM     64  H49 non d ame      -4.818  15.977  69.910  0.00  0.00     0.084 H 
ATOM     65  C32 non d ame      -4.885  13.683  72.426  0.00  0.00    -0.083 A 
ATOM     66  H50 non d ame      -4.863  15.844  72.388  0.00  0.00     0.083 H 
ATOM     67  C33 non d ame      -4.882  12.524  71.663  0.00  0.00    -0.082 A 
ATOM     68  H51 non d ame      -4.904  13.615  73.513  0.00  0.00     0.083 H 
ATOM     69  C34 non d ame      -4.860  12.595  70.271  0.00  0.00    -0.075 A 
ATOM     70  H52 non d ame      -4.897  11.552  72.158  0.00  0.00     0.083 H 
ATOM     71  H53 non d ame      -4.859  11.679  69.678  0.00  0.00     0.084 H 
ENDBRANCH  58  61
ENDBRANCH  57  58
ENDBRANCH  55  57
ENDBRANCH  52  55
ENDBRANCH  49  52
ENDBRANCH  47  49
BRANCH  47  72
ATOM     72  C24 non d ame      -8.667  17.598  68.414  0.00  0.00    -0.039 C 
ATOM     73  H35 non d ame      -8.787  17.375  69.474  0.00  0.00     0.036 H 
ATOM     74  H36 non d ame      -7.677  17.566  67.960  0.00  0.00     0.036 H 
BRANCH  72  75
ATOM     75  C25 non d ame      -9.249  19.072  68.174  0.00  0.00    -0.001 C 
ATOM     76  C26 non d ame     -10.606  18.996  67.249  0.00  0.00    -0.035 C 
ATOM     77  C27 non d ame     -10.476  19.858  66.212  0.00  0.00     0.085 C 
ATOM     78  H38 non d ame     -10.672  18.022  66.763  0.00  0.00     0.036 H 
ATOM     79  H39 non d ame     -11.459  19.388  67.802  0.00  0.00     0.036 H 
ATOM     80  N5  non d ame      -9.027  20.275  66.163  0.00  0.00    -0.049 N 
ATOM     81  H40 non d ame     -10.710  19.278  65.319  0.00  0.00     0.075 H 
ATOM     82  H41 non d ame     -11.085  20.723  66.476  0.00  0.00     0.075 H 
ATOM     83  C28 non d ame      -8.386  19.823  67.574  0.00  0.00     0.193 C 
ATOM     84  H42 non d ame      -8.598  19.732  65.427  0.00  0.00     0.280 HD
ATOM     85  H43 non d ame      -9.020  21.284  66.115  0.00  0.00     0.280 HD
ATOM     86  H44 non d ame      -8.187  20.559  68.353  0.00  0.00     0.129 H 
ATOM     87  H37 non d ame      -9.310  19.647  69.098  0.00  0.00     0.046 H 
BRANCH  83  88
ATOM     88  O6  non d ame      -7.144  19.151  67.358  0.00  0.00    -0.369 OA
ATOM     89  H45 non d ame      -6.430  19.792  67.353  0.00  0.00     0.212 HD
ENDBRANCH  83  88
ENDBRANCH  72  75
ENDBRANCH  47  72
ENDBRANCH  45  47
ENDBRANCH   1  43
BRANCH   1  90
ATOM     90  C16 non d ame     -12.005  14.508  70.730  0.00  0.00    -0.035 C 
ATOM     91  H21 non d ame     -11.278  13.960  71.330  0.00  0.00     0.037 H 
ATOM     92  H22 non d ame     -11.876  15.577  70.561  0.00  0.00     0.037 H 
BRANCH  90  93
ATOM     93  C17 non d ame     -13.383  14.335  71.443  0.00  0.00    -0.059 C 
ATOM     94  H23 non d ame     -14.156  14.343  70.674  0.00  0.00     0.038 H 
BRANCH  93  95
ATOM     95  C18 non d ame     -13.486  12.978  72.208  0.00  0.00    -0.073 C 
ATOM     96  H24 non d ame     -13.121  13.108  73.228  0.00  0.00     0.028 H 
ATOM     97  H25 non d ame     -14.526  12.653  72.235  0.00  0.00     0.028 H 
ATOM     98  H26 non d ame     -12.884  12.226  71.699  0.00  0.00     0.028 H 
ENDBRANCH  93  95
BRANCH  93  99
ATOM     99  C19 non d ame     -13.665  15.513  72.380  0.00  0.00    -0.073 C 
ATOM    100  H27 non d ame     -14.104  15.142  73.306  0.00  0.00     0.028 H 
ATOM    101  H28 non d ame     -12.733  16.032  72.602  0.00  0.00     0.028 H 
ATOM    102  H29 non d ame     -14.360  16.201  71.900  0.00  0.00     0.028 H 
ENDBRANCH  93  99
ENDBRANCH  90  93
ENDBRANCH   1  90
TORSDOF 26
ENDMDL
MODEL 20
REMARK VINA RESULT:      -5.8      2.805      8.468
REMARK  26 active torsions:
REMARK  status: ('A' for Active; 'I' for Inactive)
REMARK    1  A    between atoms: C2_2  and  C3_3 
REMARK    2  A    between atoms: C4_6  and  C5_7 
REMARK       I    between atoms: C5_7  and  N2_9 
REMARK    3  A    between atoms: N2_9  and  C6_10 
REMARK    4  A    between atoms: C6_10  and  C7_11 
REMARK    5  A    between atoms: C6_10  and  C8_13 
REMARK       I    between atoms: C7_11  and  N3_14 
REMARK    6  A    between atoms: N3_14  and  C9_15 
REMARK    7  A    between atoms: C9_15  and  C10_16 
REMARK    8  A    between atoms: C9_15  and  C11_18 
REMARK       I    between atoms: C10_16  and  N4_21 
REMARK    9  A    between atoms: C11_18  and  C12_19 
REMARK   10  A    between atoms: C11_18  and  C13_20 
REMARK   11  A    between atoms: N4_21  and  C14_22 
REMARK   12  A    between atoms: C14_22  and  C15_23 
REMARK   13  A    between atoms: C14_22  and  C16_25 
REMARK       I    between atoms: C15_23  and  N6_40 
REMARK   14  A    between atoms: C16_25  and  C17_26 
REMARK   15  A    between atoms: C17_26  and  C18_27 
REMARK   16  A    between atoms: C17_26  and  C19_28 
REMARK   17  A    between atoms: C20_29  and  C21_30 
REMARK   18  A    between atoms: C20_29  and  C24_33 
REMARK   19  A    between atoms: C20_29  and  N6_40 
REMARK   20  A    between atoms: C21_30  and  C22_31 
REMARK   21  A    between atoms: C22_31  and  C23_32 
REMARK   22  A    between atoms: C23_32  and  O8_43 
REMARK   23  A    between atoms: C24_33  and  C25_34 
REMARK   24  A    between atoms: C28_38  and  O6_39 
REMARK   25  A    between atoms: C29_42  and  O8_43 
REMARK   26  A    between atoms: C29_42  and  C35_49 
ROOT
ATOM      1  C14 non d ame      -6.322  14.157  68.313  0.00  0.00     0.089 C 
ATOM      2  H20 non d ame      -5.571  14.074  67.528  0.00  0.00     0.087 H 
ENDROOT
BRANCH   1   3
ATOM      3  N4  non d ame      -6.641  15.568  68.468  0.00  0.00    -0.346 N 
ATOM      4  C10 non d ame      -5.896  16.609  67.670  0.00  0.00     0.241 C 
ATOM      5  O4  non d ame      -5.043  16.286  66.911  0.00  0.00    -0.271 OA
ATOM      6  H19 non d ame      -7.369  15.822  69.121  0.00  0.00     0.163 HD
BRANCH   4   7
ATOM      7  C9  non d ame      -6.243  18.065  67.838  0.00  0.00     0.092 C 
ATOM      8  H11 non d ame      -5.991  18.602  66.924  0.00  0.00     0.088 H 
BRANCH   7   9
ATOM      9  N3  non d ame      -7.689  18.204  68.037  0.00  0.00    -0.346 N 
ATOM     10  C7  non d ame      -8.585  18.097  66.913  0.00  0.00     0.240 C 
ATOM     11  O3  non d ame      -8.159  17.900  65.840  0.00  0.00    -0.271 OA
ATOM     12  H10 non d ame      -8.070  18.375  68.956  0.00  0.00     0.163 HD
BRANCH  10  13
ATOM     13  C6  non d ame     -10.122  18.249  67.130  0.00  0.00     0.086 C 
ATOM     14  H6  non d ame     -10.709  17.746  66.362  0.00  0.00     0.086 H 
BRANCH  13  15
ATOM     15  N2  non d ame     -10.482  17.634  68.397  0.00  0.00    -0.343 N 
ATOM     16  C5  non d ame     -11.074  16.295  68.406  0.00  0.00     0.273 C 
ATOM     17  O2  non d ame     -11.260  15.722  67.389  0.00  0.00    -0.266 OA
ATOM     18  H5  non d ame     -10.322  18.131  69.262  0.00  0.00     0.163 HD
BRANCH  16  19
ATOM     19  C4  non d ame     -11.458  15.631  69.738  0.00  0.00     0.154 A 
ATOM     20  C1  non d ame     -11.622  16.271  71.007  0.00  0.00    -0.017 A 
ATOM     21  C2  non d ame     -11.972  15.231  71.897  0.00  0.00     0.077 A 
ATOM     22  H1  non d ame     -11.505  17.329  71.246  0.00  0.00     0.091 H 
ATOM     23  O1  non d ame     -12.004  14.127  71.209  0.00  0.00    -0.218 OA
ATOM     24  N1  non d ame     -11.706  14.335  69.946  0.00  0.00    -0.123 NA
BRANCH  21  25
ATOM     25  C3  non d ame     -12.260  15.377  73.384  0.00  0.00    -0.029 C 
ATOM     26  H2  non d ame     -12.060  16.403  73.696  0.00  0.00     0.036 H 
ATOM     27  H3  non d ame     -13.306  15.137  73.577  0.00  0.00     0.036 H 
ATOM     28  H4  non d ame     -11.622  14.695  73.948  0.00  0.00     0.036 H 
ENDBRANCH  21  25
ENDBRANCH  16  19
ENDBRANCH  13  15
BRANCH  13  29
ATOM     29  C8  non d ame     -10.488  19.711  67.145  0.00  0.00    -0.049 C 
ATOM     30  H7  non d ame     -11.521  19.824  67.474  0.00  0.00     0.030 H 
ATOM     31  H8  non d ame      -9.828  20.244  67.830  0.00  0.00     0.030 H 
ATOM     32  H9  non d ame     -10.381  20.123  66.142  0.00  0.00     0.030 H 
ENDBRANCH  13  29
ENDBRANCH  10  13
ENDBRANCH   7   9
BRANCH   7  33
ATOM     33  C11 non d ame      -5.494  18.636  69.078  0.00  0.00    -0.033 C 
ATOM     34  H12 non d ame      -5.321  17.810  69.767  0.00  0.00     0.042 H 
BRANCH  33  35
ATOM     35  C12 non d ame      -4.100  19.217  68.682  0.00  0.00    -0.071 C 
ATOM     36  H13 non d ame      -3.695  19.788  69.517  0.00  0.00     0.028 H 
ATOM     37  H14 non d ame      -3.422  18.399  68.438  0.00  0.00     0.028 H 
ATOM     38  H15 non d ame      -4.211  19.867  67.815  0.00  0.00     0.028 H 
ENDBRANCH  33  35
BRANCH  33  39
ATOM     39  C13 non d ame      -6.364  19.705  69.813  0.00  0.00    -0.071 C 
ATOM     40  H16 non d ame      -6.450  19.442  70.867  0.00  0.00     0.028 H 
ATOM     41  H17 non d ame      -5.895  20.684  69.719  0.00  0.00     0.028 H 
ATOM     42  H18 non d ame      -7.357  19.734  69.365  0.00  0.00     0.028 H 
ENDBRANCH  33  39
ENDBRANCH   7  33
ENDBRANCH   4   7
ENDBRANCH   1   3
BRANCH   1  43
ATOM     43  C15 non d ame      -7.629  13.390  67.960  0.00  0.00     0.240 C 
ATOM     44  O5  non d ame      -8.658  13.715  68.459  0.00  0.00    -0.271 OA
ATOM     45  N6  non d ame      -7.599  12.256  66.993  0.00  0.00    -0.355 N 
ATOM     46  H46 non d ame      -6.732  11.974  66.559  0.00  0.00     0.162 HD
BRANCH  45  47
ATOM     47  C20 non d ame      -8.850  11.538  66.666  0.00  0.00     0.013 C 
ATOM     48  H30 non d ame      -8.597  10.705  66.011  0.00  0.00     0.072 H 
BRANCH  47  49
ATOM     49  C21 non d ame      -9.799  12.481  65.960  0.00  0.00    -0.038 C 
ATOM     50  H31 non d ame     -10.162  13.164  66.729  0.00  0.00     0.036 H 
ATOM     51  H32 non d ame      -9.244  12.868  65.104  0.00  0.00     0.036 H 
BRANCH  49  52
ATOM     52  C22 non d ame     -11.041  11.765  65.388  0.00  0.00     0.018 C 
ATOM     53  H33 non d ame     -10.978  10.735  65.742  0.00  0.00     0.048 H 
ATOM     54  H34 non d ame     -11.893  12.386  65.664  0.00  0.00     0.048 H 
BRANCH  52  55
ATOM     55  C23 non d ame     -11.055  11.682  63.836  0.00  0.00     0.259 C 
ATOM     56  O7  non d ame     -11.675  12.469  63.197  0.00  0.00    -0.265 OA
BRANCH  55  57
ATOM     57  O8  non d ame     -10.330  10.646  63.186  0.00  0.00    -0.317 OA
BRANCH  57  58
ATOM     58  C29 non d ame      -9.023  11.033  62.751  0.00  0.00     0.052 C 
ATOM     59  H47 non d ame      -9.077  11.086  61.664  0.00  0.00     0.082 H 
ATOM     60  H48 non d ame      -8.772  11.923  63.328  0.00  0.00     0.082 H 
BRANCH  58  61
ATOM     61  C35 non d ame      -8.035   9.902  63.139  0.00  0.00    -0.034 A 
ATOM     62  C30 non d ame      -8.328   8.580  62.819  0.00  0.00    -0.075 A 
ATOM     63  C31 non d ame      -7.440   7.564  63.167  0.00  0.00    -0.082 A 
ATOM     64  H49 non d ame      -9.252   8.341  62.294  0.00  0.00     0.084 H 
ATOM     65  C32 non d ame      -6.256   7.873  63.842  0.00  0.00    -0.083 A 
ATOM     66  H50 non d ame      -7.672   6.530  62.913  0.00  0.00     0.083 H 
ATOM     67  C33 non d ame      -5.968   9.192  64.163  0.00  0.00    -0.082 A 
ATOM     68  H51 non d ame      -5.556   7.084  64.118  0.00  0.00     0.083 H 
ATOM     69  C34 non d ame      -6.852  10.212  63.813  0.00  0.00    -0.075 A 
ATOM     70  H52 non d ame      -5.045   9.430  64.691  0.00  0.00     0.083 H 
ATOM     71  H53 non d ame      -6.619  11.247  64.068  0.00  0.00     0.084 H 
ENDBRANCH  58  61
ENDBRANCH  57  58
ENDBRANCH  55  57
ENDBRANCH  52  55
ENDBRANCH  49  52
ENDBRANCH  47  49
BRANCH  47  72
ATOM     72  C24 non d ame      -9.501  11.026  67.949  0.00  0.00    -0.039 C 
ATOM     73  H35 non d ame      -8.909  11.444  68.763  0.00  0.00     0.036 H 
ATOM     74  H36 non d ame     -10.558  11.279  67.860  0.00  0.00     0.036 H 
BRANCH  72  75
ATOM     75  C25 non d ame      -9.406   9.431  68.066  0.00  0.00    -0.001 C 
ATOM     76  C26 non d ame      -8.742   8.807  66.697  0.00  0.00    -0.035 C 
ATOM     77  C27 non d ame      -9.544   7.820  66.233  0.00  0.00     0.085 C 
ATOM     78  H38 non d ame      -8.764   9.550  65.900  0.00  0.00     0.036 H 
ATOM     79  H39 non d ame      -7.811   8.290  66.935  0.00  0.00     0.036 H 
ATOM     80  N5  non d ame     -10.855   7.931  66.973  0.00  0.00    -0.049 N 
ATOM     81  H40 non d ame      -9.709   8.049  65.180  0.00  0.00     0.075 H 
ATOM     82  H41 non d ame      -9.054   6.889  66.519  0.00  0.00     0.075 H 
ATOM     83  C28 non d ame     -10.574   8.904  68.231  0.00  0.00     0.193 C 
ATOM     84  H42 non d ame     -11.498   8.394  66.347  0.00  0.00     0.280 HD
ATOM     85  H43 non d ame     -11.066   7.008  67.322  0.00  0.00     0.280 HD
ATOM     86  H44 non d ame     -10.466   8.494  69.235  0.00  0.00     0.129 H 
ATOM     87  H37 non d ame      -8.977   9.112  69.015  0.00  0.00     0.046 H 
BRANCH  83  88
ATOM     88  O6  non d ame     -11.602   9.891  68.329  0.00  0.00    -0.369 OA
ATOM     89  H45 non d ame     -11.276  10.643  68.828  0.00  0.00     0.212 HD
ENDBRANCH  83  88
ENDBRANCH  72  75
ENDBRANCH  47  72
ENDBRANCH  45  47
ENDBRANCH   1  43
BRANCH   1  90
ATOM     90  C16 non d ame      -5.758  13.628  69.623  0.00  0.00    -0.035 C 
ATOM     91  H21 non d ame      -5.561  14.512  70.230  0.00  0.00     0.037 H 
ATOM     92  H22 non d ame      -6.474  12.882  69.965  0.00  0.00     0.037 H 
BRANCH  90  93
ATOM     93  C17 non d ame      -4.391  12.890  69.464  0.00  0.00    -0.059 C 
ATOM     94  H23 non d ame      -4.578  11.822  69.576  0.00  0.00     0.038 H 
BRANCH  93  95
ATOM     95  C18 non d ame      -3.758  13.118  68.055  0.00  0.00    -0.073 C 
ATOM     96  H24 non d ame      -4.348  13.853  67.506  0.00  0.00     0.028 H 
ATOM     97  H25 non d ame      -2.738  13.486  68.170  0.00  0.00     0.028 H 
ATOM     98  H26 non d ame      -3.744  12.178  67.505  0.00  0.00     0.028 H 
ENDBRANCH  93  95
BRANCH  93  99
ATOM     99  C19 non d ame      -3.417  13.298  70.572  0.00  0.00    -0.073 C 
ATOM    100  H27 non d ame      -3.892  14.037  71.218  0.00  0.00     0.028 H 
ATOM    101  H28 non d ame      -3.148  12.421  71.161  0.00  0.00     0.028 H 
ATOM    102  H29 non d ame      -2.520  13.728  70.128  0.00  0.00     0.028 H 
ENDBRANCH  93  99
ENDBRANCH  90  93
ENDBRANCH   1  90
TORSDOF 26
ENDMDL
