MODEL 1
REMARK VINA RESULT:      -6.8      0.000      0.000
REMARK  26 active torsions:
REMARK  status: ('A' for Active; 'I' for Inactive)
REMARK    1  A    between atoms: C2_2  and  C3_3 
REMARK    2  A    between atoms: C4_6  and  C5_7 
REMARK       I    between atoms: C5_7  and  N2_9 
REMARK    3  A    between atoms: N2_9  and  C6_10 
REMARK    4  A    between atoms: C6_10  and  C7_11 
REMARK    5  A    between atoms: C6_10  and  C8_13 
REMARK       I    between atoms: C7_11  and  N3_14 
REMARK    6  A    between atoms: N3_14  and  C9_15 
REMARK    7  A    between atoms: C9_15  and  C10_16 
REMARK    8  A    between atoms: C9_15  and  C11_18 
REMARK       I    between atoms: C10_16  and  N4_21 
REMARK    9  A    between atoms: C11_18  and  C12_19 
REMARK   10  A    between atoms: C11_18  and  C13_20 
REMARK   11  A    between atoms: N4_21  and  C14_22 
REMARK   12  A    between atoms: C14_22  and  C15_23 
REMARK   13  A    between atoms: C14_22  and  C16_25 
REMARK       I    between atoms: C15_23  and  N6_40 
REMARK   14  A    between atoms: C16_25  and  C17_26 
REMARK   15  A    between atoms: C17_26  and  C18_27 
REMARK   16  A    between atoms: C17_26  and  C19_28 
REMARK   17  A    between atoms: C20_29  and  C21_30 
REMARK   18  A    between atoms: C20_29  and  C24_33 
REMARK   19  A    between atoms: C20_29  and  N6_40 
REMARK   20  A    between atoms: C21_30  and  C22_31 
REMARK   21  A    between atoms: C22_31  and  C23_32 
REMARK   22  A    between atoms: C23_32  and  O8_43 
REMARK   23  A    between atoms: C24_33  and  C25_34 
REMARK   24  A    between atoms: C28_38  and  O6_39 
REMARK   25  A    between atoms: C29_42  and  O8_43 
REMARK   26  A    between atoms: C29_42  and  C35_49 
ROOT
ATOM      1  C14 non d ame      -8.046   7.889  63.669  0.00  0.00     0.089 C 
ATOM      2  H20 non d ame      -8.197   8.080  62.606  0.00  0.00     0.087 H 
ENDROOT
BRANCH   1   3
ATOM      3  N4  non d ame      -8.968   8.742  64.403  0.00  0.00    -0.346 N 
ATOM      4  C10 non d ame      -9.492  10.012  63.781  0.00  0.00     0.241 C 
ATOM      5  O4  non d ame      -9.154  10.328  62.687  0.00  0.00    -0.271 OA
ATOM      6  H19 non d ame      -9.241   8.456  65.334  0.00  0.00     0.163 HD
BRANCH   4   7
ATOM      7  C9  non d ame     -10.450  10.880  64.553  0.00  0.00     0.092 C 
ATOM      8  H11 non d ame     -11.252  10.260  64.954  0.00  0.00     0.088 H 
BRANCH   7   9
ATOM      9  N3  non d ame      -9.755  11.479  65.696  0.00  0.00    -0.346 N 
ATOM     10  C7  non d ame      -9.787  10.827  66.982  0.00  0.00     0.240 C 
ATOM     11  O3  non d ame     -10.370   9.820  67.116  0.00  0.00    -0.271 OA
ATOM     12  H10 non d ame      -9.250  12.347  65.597  0.00  0.00     0.163 HD
BRANCH  10  13
ATOM     13  C6  non d ame      -9.048  11.471  68.196  0.00  0.00     0.086 C 
ATOM     14  H6  non d ame      -8.274  12.176  67.893  0.00  0.00     0.086 H 
BRANCH  13  15
ATOM     15  N2  non d ame     -10.008  12.223  68.987  0.00  0.00    -0.343 N 
ATOM     16  C5  non d ame     -10.381  13.578  68.571  0.00  0.00     0.273 C 
ATOM     17  O2  non d ame      -9.902  14.053  67.601  0.00  0.00    -0.266 OA
ATOM     18  H5  non d ame     -10.411  11.811  69.815  0.00  0.00     0.163 HD
BRANCH  16  19
ATOM     19  C4  non d ame     -11.397  14.383  69.396  0.00  0.00     0.154 A 
ATOM     20  C1  non d ame     -12.250  13.893  70.435  0.00  0.00    -0.017 A 
ATOM     21  C2  non d ame     -12.982  15.021  70.868  0.00  0.00     0.077 A 
ATOM     22  H1  non d ame     -12.328  12.874  70.816  0.00  0.00     0.091 H 
ATOM     23  O1  non d ame     -12.586  16.036  70.156  0.00  0.00    -0.218 OA
ATOM     24  N1  non d ame     -11.662  15.688  69.290  0.00  0.00    -0.123 NA
BRANCH  21  25
ATOM     25  C3  non d ame     -14.037  15.044  71.966  0.00  0.00    -0.029 C 
ATOM     26  H2  non d ame     -13.828  15.865  72.654  0.00  0.00     0.036 H 
ATOM     27  H3  non d ame     -15.021  15.186  71.520  0.00  0.00     0.036 H 
ATOM     28  H4  non d ame     -14.017  14.100  72.510  0.00  0.00     0.036 H 
ENDBRANCH  21  25
ENDBRANCH  16  19
ENDBRANCH  13  15
BRANCH  13  29
ATOM     29  C8  non d ame      -8.420  10.390  69.038  0.00  0.00    -0.049 C 
ATOM     30  H7  non d ame      -8.831   9.422  68.752  0.00  0.00     0.030 H 
ATOM     31  H8  non d ame      -7.341  10.388  68.880  0.00  0.00     0.030 H 
ATOM     32  H9  non d ame      -8.633  10.579  70.089  0.00  0.00     0.030 H 
ENDBRANCH  13  29
ENDBRANCH  10  13
ENDBRANCH   7   9
BRANCH   7  33
ATOM     33  C11 non d ame     -10.989  12.009  63.627  0.00  0.00    -0.033 C 
ATOM     34  H12 non d ame     -10.458  11.937  62.678  0.00  0.00     0.042 H 
BRANCH  33  35
ATOM     35  C12 non d ame     -12.509  11.823  63.330  0.00  0.00    -0.071 C 
ATOM     36  H13 non d ame     -12.994  12.799  63.290  0.00  0.00     0.028 H 
ATOM     37  H14 non d ame     -12.633  11.317  62.373  0.00  0.00     0.028 H 
ATOM     38  H15 non d ame     -12.963  11.224  64.119  0.00  0.00     0.028 H 
ENDBRANCH  33  35
BRANCH  33  39
ATOM     39  C13 non d ame     -10.699  13.418  64.237  0.00  0.00    -0.071 C 
ATOM     40  H16 non d ame     -10.820  14.179  63.467  0.00  0.00     0.028 H 
ATOM     41  H17 non d ame     -11.396  13.612  65.053  0.00  0.00     0.028 H 
ATOM     42  H18 non d ame      -9.678  13.445  64.617  0.00  0.00     0.028 H 
ENDBRANCH  33  39
ENDBRANCH   7  33
ENDBRANCH   4   7
ENDBRANCH   1   3
BRANCH   1  43
ATOM     43  C15 non d ame      -8.334   6.408  64.046  0.00  0.00     0.240 C 
ATOM     44  O5  non d ame      -8.349   5.574  63.198  0.00  0.00    -0.271 OA
ATOM     45  N6  non d ame      -8.583   6.026  65.465  0.00  0.00    -0.355 N 
ATOM     46  H46 non d ame      -8.568   6.724  66.195  0.00  0.00     0.162 HD
BRANCH  45  47
ATOM     47  C20 non d ame      -8.854   4.613  65.808  0.00  0.00     0.013 C 
ATOM     48  H30 non d ame      -8.839   4.036  64.883  0.00  0.00     0.072 H 
BRANCH  47  49
ATOM     49  C21 non d ame     -10.213   4.508  66.460  0.00  0.00    -0.038 C 
ATOM     50  H31 non d ame     -10.876   4.099  65.697  0.00  0.00     0.036 H 
ATOM     51  H32 non d ame     -10.051   3.964  67.391  0.00  0.00     0.036 H 
BRANCH  49  52
ATOM     52  C22 non d ame     -10.796   5.882  66.855  0.00  0.00     0.018 C 
ATOM     53  H33 non d ame     -10.280   6.613  66.231  0.00  0.00     0.048 H 
ATOM     54  H34 non d ame     -11.879   5.775  66.786  0.00  0.00     0.048 H 
BRANCH  52  55
ATOM     55  C23 non d ame     -10.498   6.289  68.325  0.00  0.00     0.259 C 
ATOM     56  O7  non d ame      -9.430   6.712  68.628  0.00  0.00    -0.265 OA
BRANCH  55  57
ATOM     57  O8  non d ame     -11.513   6.138  69.310  0.00  0.00    -0.317 OA
BRANCH  57  58
ATOM     58  C29 non d ame     -11.097   6.488  70.634  0.00  0.00     0.052 C 
ATOM     59  H47 non d ame     -11.438   5.676  71.275  0.00  0.00     0.082 H 
ATOM     60  H48 non d ame     -10.033   6.713  70.559  0.00  0.00     0.082 H 
BRANCH  58  61
ATOM     61  C35 non d ame     -11.846   7.784  71.043  0.00  0.00    -0.034 A 
ATOM     62  C30 non d ame     -13.014   7.707  71.794  0.00  0.00    -0.075 A 
ATOM     63  C31 non d ame     -13.686   8.871  72.162  0.00  0.00    -0.082 A 
ATOM     64  H49 non d ame     -13.402   6.734  72.094  0.00  0.00     0.084 H 
ATOM     65  C32 non d ame     -13.187  10.117  71.774  0.00  0.00    -0.083 A 
ATOM     66  H50 non d ame     -14.600   8.806  72.752  0.00  0.00     0.083 H 
ATOM     67  C33 non d ame     -12.022  10.190  71.022  0.00  0.00    -0.082 A 
ATOM     68  H51 non d ame     -13.706  11.033  72.058  0.00  0.00     0.083 H 
ATOM     69  C34 non d ame     -11.346   9.028  70.654  0.00  0.00    -0.075 A 
ATOM     70  H52 non d ame     -11.636  11.164  70.719  0.00  0.00     0.083 H 
ATOM     71  H53 non d ame     -10.431   9.094  70.064  0.00  0.00     0.084 H 
ENDBRANCH  58  61
ENDBRANCH  57  58
ENDBRANCH  55  57
ENDBRANCH  52  55
ENDBRANCH  49  52
ENDBRANCH  47  49
BRANCH  47  72
ATOM     72  C24 non d ame      -7.785   4.101  66.770  0.00  0.00    -0.039 C 
ATOM     73  H35 non d ame      -8.265   4.070  67.748  0.00  0.00     0.036 H 
ATOM     74  H36 non d ame      -7.404   3.183  66.321  0.00  0.00     0.036 H 
BRANCH  72  75
ATOM     75  C25 non d ame      -6.552   5.118  66.881  0.00  0.00    -0.001 C 
ATOM     76  C26 non d ame      -5.218   4.462  66.178  0.00  0.00    -0.035 C 
ATOM     77  C27 non d ame      -4.184   4.533  67.050  0.00  0.00     0.085 C 
ATOM     78  H38 non d ame      -5.359   3.390  66.038  0.00  0.00     0.036 H 
ATOM     79  H39 non d ame      -4.892   5.082  65.343  0.00  0.00     0.036 H 
ATOM     80  N5  non d ame      -4.767   4.879  68.399  0.00  0.00    -0.049 N 
ATOM     81  H40 non d ame      -3.767   3.527  67.091  0.00  0.00     0.075 H 
ATOM     82  H41 non d ame      -3.570   5.365  66.705  0.00  0.00     0.075 H 
ATOM     83  C28 non d ame      -6.275   5.383  68.115  0.00  0.00     0.193 C 
ATOM     84  H42 non d ame      -4.810   4.016  68.922  0.00  0.00     0.280 HD
ATOM     85  H43 non d ame      -4.230   5.657  68.752  0.00  0.00     0.280 HD
ATOM     86  H44 non d ame      -6.519   6.445  68.150  0.00  0.00     0.129 H 
ATOM     87  H37 non d ame      -6.823   6.130  66.582  0.00  0.00     0.046 H 
BRANCH  83  88
ATOM     88  O6  non d ame      -7.183   4.753  69.019  0.00  0.00    -0.369 OA
ATOM     89  H45 non d ame      -8.083   4.988  68.785  0.00  0.00     0.212 HD
ENDBRANCH  83  88
ENDBRANCH  72  75
ENDBRANCH  47  72
ENDBRANCH  45  47
ENDBRANCH   1  43
BRANCH   1  90
ATOM     90  C16 non d ame      -6.620   8.248  64.059  0.00  0.00    -0.035 C 
ATOM     91  H21 non d ame      -6.619   9.331  64.182  0.00  0.00     0.037 H 
ATOM     92  H22 non d ame      -6.382   7.603  64.904  0.00  0.00     0.037 H 
BRANCH  90  93
ATOM     93  C17 non d ame      -5.569   7.930  62.949  0.00  0.00    -0.059 C 
ATOM     94  H23 non d ame      -6.098   7.880  61.997  0.00  0.00     0.038 H 
BRANCH  93  95
ATOM     95  C18 non d ame      -4.480   9.043  62.831  0.00  0.00    -0.073 C 
ATOM     96  H24 non d ame      -3.490   8.586  62.850  0.00  0.00     0.028 H 
ATOM     97  H25 non d ame      -4.612   9.583  61.893  0.00  0.00     0.028 H 
ATOM     98  H26 non d ame      -4.576   9.736  63.666  0.00  0.00     0.028 H 
ENDBRANCH  93  95
BRANCH  93  99
ATOM     99  C19 non d ame      -4.925   6.560  63.182  0.00  0.00    -0.073 C 
ATOM    100  H27 non d ame      -4.902   6.006  62.244  0.00  0.00     0.028 H 
ATOM    101  H28 non d ame      -3.908   6.694  63.551  0.00  0.00     0.028 H 
ATOM    102  H29 non d ame      -5.509   6.006  63.917  0.00  0.00     0.028 H 
ENDBRANCH  93  99
ENDBRANCH  90  93
ENDBRANCH   1  90
TORSDOF 26
ENDMDL
MODEL 2
REMARK VINA RESULT:      -6.6      3.685      7.438
REMARK  26 active torsions:
REMARK  status: ('A' for Active; 'I' for Inactive)
REMARK    1  A    between atoms: C2_2  and  C3_3 
REMARK    2  A    between atoms: C4_6  and  C5_7 
REMARK       I    between atoms: C5_7  and  N2_9 
REMARK    3  A    between atoms: N2_9  and  C6_10 
REMARK    4  A    between atoms: C6_10  and  C7_11 
REMARK    5  A    between atoms: C6_10  and  C8_13 
REMARK       I    between atoms: C7_11  and  N3_14 
REMARK    6  A    between atoms: N3_14  and  C9_15 
REMARK    7  A    between atoms: C9_15  and  C10_16 
REMARK    8  A    between atoms: C9_15  and  C11_18 
REMARK       I    between atoms: C10_16  and  N4_21 
REMARK    9  A    between atoms: C11_18  and  C12_19 
REMARK   10  A    between atoms: C11_18  and  C13_20 
REMARK   11  A    between atoms: N4_21  and  C14_22 
REMARK   12  A    between atoms: C14_22  and  C15_23 
REMARK   13  A    between atoms: C14_22  and  C16_25 
REMARK       I    between atoms: C15_23  and  N6_40 
REMARK   14  A    between atoms: C16_25  and  C17_26 
REMARK   15  A    between atoms: C17_26  and  C18_27 
REMARK   16  A    between atoms: C17_26  and  C19_28 
REMARK   17  A    between atoms: C20_29  and  C21_30 
REMARK   18  A    between atoms: C20_29  and  C24_33 
REMARK   19  A    between atoms: C20_29  and  N6_40 
REMARK   20  A    between atoms: C21_30  and  C22_31 
REMARK   21  A    between atoms: C22_31  and  C23_32 
REMARK   22  A    between atoms: C23_32  and  O8_43 
REMARK   23  A    between atoms: C24_33  and  C25_34 
REMARK   24  A    between atoms: C28_38  and  O6_39 
REMARK   25  A    between atoms: C29_42  and  O8_43 
REMARK   26  A    between atoms: C29_42  and  C35_49 
ROOT
ATOM      1  C14 non d ame      -6.871  12.736  67.831  0.00  0.00     0.089 C 
ATOM      2  H20 non d ame      -5.972  12.639  67.222  0.00  0.00     0.087 H 
ENDROOT
BRANCH   1   3
ATOM      3  N4  non d ame      -7.191  14.152  67.921  0.00  0.00    -0.346 N 
ATOM      4  C10 non d ame      -6.133  15.191  67.643  0.00  0.00     0.241 C 
ATOM      5  O4  non d ame      -5.031  14.862  67.352  0.00  0.00    -0.271 OA
ATOM      6  H19 non d ame      -8.135  14.411  68.173  0.00  0.00     0.163 HD
BRANCH   4   7
ATOM      7  C9  non d ame      -6.483  16.653  67.735  0.00  0.00     0.092 C 
ATOM      8  H11 non d ame      -6.259  17.136  66.784  0.00  0.00     0.088 H 
BRANCH   7   9
ATOM      9  N3  non d ame      -7.924  16.798  67.965  0.00  0.00    -0.346 N 
ATOM     10  C7  non d ame      -8.742  17.491  67.000  0.00  0.00     0.240 C 
ATOM     11  O3  non d ame      -8.256  17.941  66.034  0.00  0.00    -0.271 OA
ATOM     12  H10 non d ame      -8.356  16.417  68.794  0.00  0.00     0.163 HD
BRANCH  10  13
ATOM     13  C6  non d ame     -10.274  17.644  67.252  0.00  0.00     0.086 C 
ATOM     14  H6  non d ame     -10.877  17.084  66.538  0.00  0.00     0.086 H 
BRANCH  13  15
ATOM     15  N2  non d ame     -10.590  17.116  68.568  0.00  0.00    -0.343 N 
ATOM     16  C5  non d ame     -11.462  15.944  68.685  0.00  0.00     0.273 C 
ATOM     17  O2  non d ame     -11.905  15.437  67.714  0.00  0.00    -0.266 OA
ATOM     18  H5  non d ame     -10.209  17.557  69.393  0.00  0.00     0.163 HD
BRANCH  16  19
ATOM     19  C4  non d ame     -11.803  15.373  70.070  0.00  0.00     0.154 A 
ATOM     20  C1  non d ame     -11.810  16.076  71.317  0.00  0.00    -0.017 A 
ATOM     21  C2  non d ame     -12.187  15.110  72.277  0.00  0.00     0.077 A 
ATOM     22  H1  non d ame     -11.577  17.126  71.498  0.00  0.00     0.091 H 
ATOM     23  O1  non d ame     -12.374  13.988  71.644  0.00  0.00    -0.218 OA
ATOM     24  N1  non d ame     -12.155  14.117  70.355  0.00  0.00    -0.123 NA
BRANCH  21  25
ATOM     25  C3  non d ame     -12.347  15.341  73.773  0.00  0.00    -0.029 C 
ATOM     26  H2  non d ame     -13.362  15.680  73.983  0.00  0.00     0.036 H 
ATOM     27  H3  non d ame     -12.157  14.410  74.306  0.00  0.00     0.036 H 
ATOM     28  H4  non d ame     -11.636  16.099  74.103  0.00  0.00     0.036 H 
ENDBRANCH  21  25
ENDBRANCH  16  19
ENDBRANCH  13  15
BRANCH  13  29
ATOM     29  C8  non d ame     -10.655  19.101  67.175  0.00  0.00    -0.049 C 
ATOM     30  H7  non d ame     -10.420  19.589  68.121  0.00  0.00     0.030 H 
ATOM     31  H8  non d ame     -10.097  19.581  66.370  0.00  0.00     0.030 H 
ATOM     32  H9  non d ame     -11.723  19.187  66.979  0.00  0.00     0.030 H 
ENDBRANCH  13  29
ENDBRANCH  10  13
ENDBRANCH   7   9
BRANCH   7  33
ATOM     33  C11 non d ame      -5.704  17.299  68.918  0.00  0.00    -0.033 C 
ATOM     34  H12 non d ame      -4.657  17.367  68.624  0.00  0.00     0.042 H 
BRANCH  33  35
ATOM     35  C12 non d ame      -6.206  18.749  69.204  0.00  0.00    -0.071 C 
ATOM     36  H13 non d ame      -5.774  19.105  70.140  0.00  0.00     0.028 H 
ATOM     37  H14 non d ame      -5.901  19.406  68.390  0.00  0.00     0.028 H 
ATOM     38  H15 non d ame      -7.293  18.748  69.282  0.00  0.00     0.028 H 
ENDBRANCH  33  35
BRANCH  33  39
ATOM     39  C13 non d ame      -5.790  16.407  70.198  0.00  0.00    -0.071 C 
ATOM     40  H16 non d ame      -5.931  15.367  69.907  0.00  0.00     0.028 H 
ATOM     41  H17 non d ame      -4.868  16.503  70.771  0.00  0.00     0.028 H 
ATOM     42  H18 non d ame      -6.633  16.731  70.809  0.00  0.00     0.028 H 
ENDBRANCH  33  39
ENDBRANCH   7  33
ENDBRANCH   4   7
ENDBRANCH   1   3
BRANCH   1  43
ATOM     43  C15 non d ame      -8.087  11.992  67.206  0.00  0.00     0.240 C 
ATOM     44  O5  non d ame      -7.949  11.378  66.197  0.00  0.00    -0.271 OA
ATOM     45  N6  non d ame      -9.420  12.038  67.870  0.00  0.00    -0.355 N 
ATOM     46  H46 non d ame      -9.549  12.553  68.729  0.00  0.00     0.162 HD
BRANCH  45  47
ATOM     47  C20 non d ame     -10.566  11.325  67.264  0.00  0.00     0.013 C 
ATOM     48  H30 non d ame     -10.238  10.917  66.307  0.00  0.00     0.072 H 
BRANCH  47  49
ATOM     49  C21 non d ame     -11.703  12.298  67.048  0.00  0.00    -0.038 C 
ATOM     50  H31 non d ame     -12.592  11.803  67.441  0.00  0.00     0.036 H 
ATOM     51  H32 non d ame     -11.368  13.242  67.479  0.00  0.00     0.036 H 
BRANCH  49  52
ATOM     52  C22 non d ame     -11.981  12.574  65.554  0.00  0.00     0.018 C 
ATOM     53  H33 non d ame     -12.162  11.598  65.102  0.00  0.00     0.048 H 
ATOM     54  H34 non d ame     -12.759  13.337  65.535  0.00  0.00     0.048 H 
BRANCH  52  55
ATOM     55  C23 non d ame     -10.767  13.178  64.794  0.00  0.00     0.259 C 
ATOM     56  O7  non d ame     -10.285  14.204  65.148  0.00  0.00    -0.265 OA
BRANCH  55  57
ATOM     57  O8  non d ame     -10.246  12.497  63.659  0.00  0.00    -0.317 OA
BRANCH  57  58
ATOM     58  C29 non d ame     -10.489  11.087  63.663  0.00  0.00     0.052 C 
ATOM     59  H47 non d ame     -10.590  10.807  64.711  0.00  0.00     0.082 H 
ATOM     60  H48 non d ame     -11.319  10.929  62.974  0.00  0.00     0.082 H 
BRANCH  58  61
ATOM     61  C35 non d ame      -9.232  10.383  63.085  0.00  0.00    -0.034 A 
ATOM     62  C30 non d ame      -8.517  10.975  62.050  0.00  0.00    -0.075 A 
ATOM     63  C31 non d ame      -7.388  10.344  61.530  0.00  0.00    -0.082 A 
ATOM     64  H49 non d ame      -8.840  11.934  61.645  0.00  0.00     0.084 H 
ATOM     65  C32 non d ame      -6.976   9.113  62.050  0.00  0.00    -0.083 A 
ATOM     66  H50 non d ame      -6.829  10.811  60.720  0.00  0.00     0.083 H 
ATOM     67  C33 non d ame      -7.695   8.524  63.081  0.00  0.00    -0.082 A 
ATOM     68  H51 non d ame      -6.095   8.612  61.649  0.00  0.00     0.083 H 
ATOM     69  C34 non d ame      -8.823   9.154  63.604  0.00  0.00    -0.075 A 
ATOM     70  H52 non d ame      -7.372   7.563  63.482  0.00  0.00     0.083 H 
ATOM     71  H53 non d ame      -9.381   8.685  64.416  0.00  0.00     0.084 H 
ENDBRANCH  58  61
ENDBRANCH  57  58
ENDBRANCH  55  57
ENDBRANCH  52  55
ENDBRANCH  49  52
ENDBRANCH  47  49
BRANCH  47  72
ATOM     72  C24 non d ame     -11.023  10.202  68.191  0.00  0.00    -0.039 C 
ATOM     73  H35 non d ame     -12.105  10.150  68.072  0.00  0.00     0.036 H 
ATOM     74  H36 non d ame     -10.405   9.342  67.933  0.00  0.00     0.036 H 
BRANCH  72  75
ATOM     75  C25 non d ame     -10.734  10.548  69.728  0.00  0.00    -0.001 C 
ATOM     76  C26 non d ame      -9.695   9.444  70.366  0.00  0.00    -0.035 C 
ATOM     77  C27 non d ame     -10.223   8.959  71.514  0.00  0.00     0.085 C 
ATOM     78  H38 non d ame      -9.639   8.568  69.720  0.00  0.00     0.036 H 
ATOM     79  H39 non d ame      -8.780   9.938  70.694  0.00  0.00     0.036 H 
ATOM     80  N5  non d ame     -11.670   9.387  71.550  0.00  0.00    -0.049 N 
ATOM     81  H40 non d ame     -10.175   7.873  71.421  0.00  0.00     0.075 H 
ATOM     82  H41 non d ame      -9.685   9.462  72.317  0.00  0.00     0.075 H 
ATOM     83  C28 non d ame     -11.822  10.534  70.424  0.00  0.00     0.193 C 
ATOM     84  H42 non d ame     -12.213   8.584  71.265  0.00  0.00     0.280 HD
ATOM     85  H43 non d ame     -11.824   9.804  72.456  0.00  0.00     0.280 HD
ATOM     86  H44 non d ame     -11.889  11.584  70.709  0.00  0.00     0.129 H 
ATOM     87  H37 non d ame     -10.491  11.600  69.876  0.00  0.00     0.046 H 
BRANCH  83  88
ATOM     88  O6  non d ame     -12.974  10.283  69.617  0.00  0.00    -0.369 OA
ATOM     89  H45 non d ame     -13.575   9.703  70.090  0.00  0.00     0.212 HD
ENDBRANCH  83  88
ENDBRANCH  72  75
ENDBRANCH  47  72
ENDBRANCH  45  47
ENDBRANCH   1  43
BRANCH   1  90
ATOM     90  C16 non d ame      -6.606  12.197  69.228  0.00  0.00    -0.035 C 
ATOM     91  H21 non d ame      -5.740  12.751  69.591  0.00  0.00     0.037 H 
ATOM     92  H22 non d ame      -7.558  12.271  69.752  0.00  0.00     0.037 H 
BRANCH  90  93
ATOM     93  C17 non d ame      -6.204  10.688  69.252  0.00  0.00    -0.059 C 
ATOM     94  H23 non d ame      -7.031  10.119  68.828  0.00  0.00     0.038 H 
BRANCH  93  95
ATOM     95  C18 non d ame      -4.936  10.401  68.387  0.00  0.00    -0.073 C 
ATOM     96  H24 non d ame      -4.882  11.122  67.570  0.00  0.00     0.028 H 
ATOM     97  H25 non d ame      -4.044  10.491  69.008  0.00  0.00     0.028 H 
ATOM     98  H26 non d ame      -4.994   9.393  67.979  0.00  0.00     0.028 H 
ENDBRANCH  93  95
BRANCH  93  99
ATOM     99  C19 non d ame      -6.006  10.198  70.689  0.00  0.00    -0.073 C 
ATOM    100  H27 non d ame      -6.571   9.278  70.840  0.00  0.00     0.028 H 
ATOM    101  H28 non d ame      -4.947  10.007  70.865  0.00  0.00     0.028 H 
ATOM    102  H29 non d ame      -6.359  10.959  71.384  0.00  0.00     0.028 H 
ENDBRANCH  93  99
ENDBRANCH  90  93
ENDBRANCH   1  90
TORSDOF 26
ENDMDL
MODEL 3
REMARK VINA RESULT:      -6.6      3.582      7.501
REMARK  26 active torsions:
REMARK  status: ('A' for Active; 'I' for Inactive)
REMARK    1  A    between atoms: C2_2  and  C3_3 
REMARK    2  A    between atoms: C4_6  and  C5_7 
REMARK       I    between atoms: C5_7  and  N2_9 
REMARK    3  A    between atoms: N2_9  and  C6_10 
REMARK    4  A    between atoms: C6_10  and  C7_11 
REMARK    5  A    between atoms: C6_10  and  C8_13 
REMARK       I    between atoms: C7_11  and  N3_14 
REMARK    6  A    between atoms: N3_14  and  C9_15 
REMARK    7  A    between atoms: C9_15  and  C10_16 
REMARK    8  A    between atoms: C9_15  and  C11_18 
REMARK       I    between atoms: C10_16  and  N4_21 
REMARK    9  A    between atoms: C11_18  and  C12_19 
REMARK   10  A    between atoms: C11_18  and  C13_20 
REMARK   11  A    between atoms: N4_21  and  C14_22 
REMARK   12  A    between atoms: C14_22  and  C15_23 
REMARK   13  A    between atoms: C14_22  and  C16_25 
REMARK       I    between atoms: C15_23  and  N6_40 
REMARK   14  A    between atoms: C16_25  and  C17_26 
REMARK   15  A    between atoms: C17_26  and  C18_27 
REMARK   16  A    between atoms: C17_26  and  C19_28 
REMARK   17  A    between atoms: C20_29  and  C21_30 
REMARK   18  A    between atoms: C20_29  and  C24_33 
REMARK   19  A    between atoms: C20_29  and  N6_40 
REMARK   20  A    between atoms: C21_30  and  C22_31 
REMARK   21  A    between atoms: C22_31  and  C23_32 
REMARK   22  A    between atoms: C23_32  and  O8_43 
REMARK   23  A    between atoms: C24_33  and  C25_34 
REMARK   24  A    between atoms: C28_38  and  O6_39 
REMARK   25  A    between atoms: C29_42  and  O8_43 
REMARK   26  A    between atoms: C29_42  and  C35_49 
ROOT
ATOM      1  C14 non d ame      -6.670  15.755  67.723  0.00  0.00     0.089 C 
ATOM      2  H20 non d ame      -6.066  16.304  67.000  0.00  0.00     0.087 H 
ENDROOT
BRANCH   1   3
ATOM      3  N4  non d ame      -8.067  15.960  67.373  0.00  0.00    -0.346 N 
ATOM      4  C10 non d ame      -8.467  17.099  66.469  0.00  0.00     0.241 C 
ATOM      5  O4  non d ame      -7.645  17.839  66.037  0.00  0.00    -0.271 OA
ATOM      6  H19 non d ame      -8.751  15.320  67.753  0.00  0.00     0.163 HD
BRANCH   4   7
ATOM      7  C9  non d ame      -9.917  17.293  66.112  0.00  0.00     0.092 C 
ATOM      8  H11 non d ame      -9.985  17.853  65.180  0.00  0.00     0.088 H 
BRANCH   7   9
ATOM      9  N3  non d ame     -10.542  15.988  65.878  0.00  0.00    -0.346 N 
ATOM     10  C7  non d ame     -11.351  15.775  64.704  0.00  0.00     0.240 C 
ATOM     11  O3  non d ame     -11.511  16.644  63.936  0.00  0.00    -0.271 OA
ATOM     12  H10 non d ame     -10.415  15.229  66.532  0.00  0.00     0.163 HD
BRANCH  10  13
ATOM     13  C6  non d ame     -12.016  14.385  64.463  0.00  0.00     0.086 C 
ATOM     14  H6  non d ame     -12.626  14.359  63.559  0.00  0.00     0.086 H 
BRANCH  13  15
ATOM     15  N2  non d ame     -10.973  13.388  64.288  0.00  0.00    -0.343 N 
ATOM     16  C5  non d ame     -11.287  12.127  63.610  0.00  0.00     0.273 C 
ATOM     17  O2  non d ame     -12.381  11.925  63.212  0.00  0.00    -0.266 OA
ATOM     18  H5  non d ame     -10.042  13.567  64.633  0.00  0.00     0.163 HD
BRANCH  16  19
ATOM     19  C4  non d ame     -10.194  11.065  63.416  0.00  0.00     0.154 A 
ATOM     20  C1  non d ame      -9.850  10.004  64.314  0.00  0.00    -0.017 A 
ATOM     21  C2  non d ame      -8.793   9.317  63.677  0.00  0.00     0.077 A 
ATOM     22  H1  non d ame     -10.299   9.769  65.279  0.00  0.00     0.091 H 
ATOM     23  O1  non d ame      -8.564   9.919  62.546  0.00  0.00    -0.218 OA
ATOM     24  N1  non d ame      -9.369  10.943  62.373  0.00  0.00    -0.123 NA
BRANCH  21  25
ATOM     25  C3  non d ame      -8.058   8.096  64.214  0.00  0.00    -0.029 C 
ATOM     26  H2  non d ame      -7.421   7.681  63.432  0.00  0.00     0.036 H 
ATOM     27  H3  non d ame      -7.445   8.387  65.066  0.00  0.00     0.036 H 
ATOM     28  H4  non d ame      -8.783   7.344  64.529  0.00  0.00     0.036 H 
ENDBRANCH  21  25
ENDBRANCH  16  19
ENDBRANCH  13  15
BRANCH  13  29
ATOM     29  C8  non d ame     -12.880  14.025  65.644  0.00  0.00    -0.049 C 
ATOM     30  H7  non d ame     -13.327  14.930  66.057  0.00  0.00     0.030 H 
ATOM     31  H8  non d ame     -13.670  13.345  65.323  0.00  0.00     0.030 H 
ATOM     32  H9  non d ame     -12.271  13.542  66.406  0.00  0.00     0.030 H 
ENDBRANCH  13  29
ENDBRANCH  10  13
ENDBRANCH   7   9
BRANCH   7  33
ATOM     33  C11 non d ame     -10.648  18.013  67.283  0.00  0.00    -0.033 C 
ATOM     34  H12 non d ame     -11.694  17.707  67.255  0.00  0.00     0.042 H 
BRANCH  33  35
ATOM     35  C12 non d ame     -10.069  17.581  68.666  0.00  0.00    -0.071 C 
ATOM     36  H13 non d ame     -10.716  16.825  69.110  0.00  0.00     0.028 H 
ATOM     37  H14 non d ame      -9.069  17.168  68.529  0.00  0.00     0.028 H 
ATOM     38  H15 non d ame     -10.016  18.448  69.324  0.00  0.00     0.028 H 
ENDBRANCH  33  35
BRANCH  33  39
ATOM     39  C13 non d ame     -10.593  19.565  67.105  0.00  0.00    -0.071 C 
ATOM     40  H16 non d ame      -9.554  19.891  67.084  0.00  0.00     0.028 H 
ATOM     41  H17 non d ame     -11.082  19.841  66.171  0.00  0.00     0.028 H 
ATOM     42  H18 non d ame     -11.106  20.043  67.939  0.00  0.00     0.028 H 
ENDBRANCH  33  39
ENDBRANCH   7  33
ENDBRANCH   4   7
ENDBRANCH   1   3
BRANCH   1  43
ATOM     43  C15 non d ame      -6.372  14.229  67.700  0.00  0.00     0.240 C 
ATOM     44  O5  non d ame      -5.343  13.834  67.253  0.00  0.00    -0.271 OA
ATOM     45  N6  non d ame      -7.365  13.258  68.242  0.00  0.00    -0.355 N 
ATOM     46  H46 non d ame      -8.241  13.582  68.627  0.00  0.00     0.162 HD
BRANCH  45  47
ATOM     47  C20 non d ame      -7.067  11.810  68.213  0.00  0.00     0.013 C 
ATOM     48  H30 non d ame      -6.044  11.686  67.857  0.00  0.00     0.072 H 
BRANCH  47  49
ATOM     49  C21 non d ame      -8.028  11.120  67.272  0.00  0.00    -0.038 C 
ATOM     50  H31 non d ame      -8.127  11.783  66.413  0.00  0.00     0.036 H 
ATOM     51  H32 non d ame      -7.635  10.110  67.140  0.00  0.00     0.036 H 
BRANCH  49  52
ATOM     52  C22 non d ame      -9.443  10.963  67.869  0.00  0.00     0.018 C 
ATOM     53  H33 non d ame      -9.926  10.181  67.283  0.00  0.00     0.048 H 
ATOM     54  H34 non d ame      -9.297  10.829  68.942  0.00  0.00     0.048 H 
BRANCH  52  55
ATOM     55  C23 non d ame     -10.332  12.227  67.711  0.00  0.00     0.259 C 
ATOM     56  O7  non d ame      -9.941  13.166  67.098  0.00  0.00    -0.265 OA
BRANCH  55  57
ATOM     57  O8  non d ame     -11.617  12.256  68.320  0.00  0.00    -0.317 OA
BRANCH  57  58
ATOM     58  C29 non d ame     -11.602  11.995  69.727  0.00  0.00     0.052 C 
ATOM     59  H47 non d ame     -12.237  11.122  69.872  0.00  0.00     0.082 H 
ATOM     60  H48 non d ame     -10.549  11.956  70.008  0.00  0.00     0.082 H 
BRANCH  58  61
ATOM     61  C35 non d ame     -12.257  13.205  70.445  0.00  0.00    -0.034 A 
ATOM     62  C30 non d ame     -13.084  12.998  71.544  0.00  0.00    -0.075 A 
ATOM     63  C31 non d ame     -13.673  14.084  72.190  0.00  0.00    -0.082 A 
ATOM     64  H49 non d ame     -13.271  11.985  71.899  0.00  0.00     0.084 H 
ATOM     65  C32 non d ame     -13.432  15.382  71.731  0.00  0.00    -0.083 A 
ATOM     66  H50 non d ame     -14.319  13.918  73.051  0.00  0.00     0.083 H 
ATOM     67  C33 non d ame     -12.609  15.584  70.632  0.00  0.00    -0.082 A 
ATOM     68  H51 non d ame     -13.889  16.237  72.230  0.00  0.00     0.083 H 
ATOM     69  C34 non d ame     -12.017  14.501  69.985  0.00  0.00    -0.075 A 
ATOM     70  H52 non d ame     -12.425  16.598  70.275  0.00  0.00     0.083 H 
ATOM     71  H53 non d ame     -11.369  14.668  69.123  0.00  0.00     0.084 H 
ENDBRANCH  58  61
ENDBRANCH  57  58
ENDBRANCH  55  57
ENDBRANCH  52  55
ENDBRANCH  49  52
ENDBRANCH  47  49
BRANCH  47  72
ATOM     72  C24 non d ame      -7.216  11.225  69.615  0.00  0.00    -0.039 C 
ATOM     73  H35 non d ame      -6.819  11.983  70.291  0.00  0.00     0.036 H 
ATOM     74  H36 non d ame      -8.259  10.919  69.693  0.00  0.00     0.036 H 
BRANCH  72  75
ATOM     75  C25 non d ame      -6.322   9.908  69.806  0.00  0.00    -0.001 C 
ATOM     76  C26 non d ame      -7.292   8.604  70.055  0.00  0.00    -0.035 C 
ATOM     77  C27 non d ame      -6.871   7.953  71.166  0.00  0.00     0.085 C 
ATOM     78  H38 non d ame      -8.297   8.931  70.318  0.00  0.00     0.036 H 
ATOM     79  H39 non d ame      -7.147   7.872  69.260  0.00  0.00     0.036 H 
ATOM     80  N5  non d ame      -5.910   8.873  71.879  0.00  0.00    -0.049 N 
ATOM     81  H40 non d ame      -7.761   7.821  71.782  0.00  0.00     0.075 H 
ATOM     82  H41 non d ame      -6.324   7.082  70.803  0.00  0.00     0.075 H 
ATOM     83  C28 non d ame      -5.526  10.026  70.816  0.00  0.00     0.193 C 
ATOM     84  H42 non d ame      -6.427   9.295  72.638  0.00  0.00     0.280 HD
ATOM     85  H43 non d ame      -5.083   8.328  72.075  0.00  0.00     0.280 HD
ATOM     86  H44 non d ame      -4.560  10.014  70.311  0.00  0.00     0.129 H 
ATOM     87  H37 non d ame      -5.555   9.816  69.038  0.00  0.00     0.046 H 
BRANCH  83  88
ATOM     88  O6  non d ame      -5.621  11.313  71.430  0.00  0.00    -0.369 OA
ATOM     89  H45 non d ame      -4.914  11.874  71.106  0.00  0.00     0.212 HD
ENDBRANCH  83  88
ENDBRANCH  72  75
ENDBRANCH  47  72
ENDBRANCH  45  47
ENDBRANCH   1  43
BRANCH   1  90
ATOM     90  C16 non d ame      -6.422  16.303  69.121  0.00  0.00    -0.035 C 
ATOM     91  H21 non d ame      -7.267  16.961  69.326  0.00  0.00     0.037 H 
ATOM     92  H22 non d ame      -6.249  15.428  69.746  0.00  0.00     0.037 H 
BRANCH  90  93
ATOM     93  C17 non d ame      -5.139  17.186  69.229  0.00  0.00    -0.059 C 
ATOM     94  H23 non d ame      -4.365  16.586  69.708  0.00  0.00     0.038 H 
BRANCH  93  95
ATOM     95  C18 non d ame      -4.605  17.625  67.829  0.00  0.00    -0.073 C 
ATOM     96  H24 non d ame      -5.237  18.419  67.432  0.00  0.00     0.028 H 
ATOM     97  H25 non d ame      -3.583  17.991  67.929  0.00  0.00     0.028 H 
ATOM     98  H26 non d ame      -4.620  16.773  67.150  0.00  0.00     0.028 H 
ENDBRANCH  93  95
BRANCH  93  99
ATOM     99  C19 non d ame      -5.388  18.403  70.124  0.00  0.00    -0.073 C 
ATOM    100  H27 non d ame      -5.341  19.311  69.523  0.00  0.00     0.028 H 
ATOM    101  H28 non d ame      -6.374  18.321  70.583  0.00  0.00     0.028 H 
ATOM    102  H29 non d ame      -4.627  18.443  70.903  0.00  0.00     0.028 H 
ENDBRANCH  93  99
ENDBRANCH  90  93
ENDBRANCH   1  90
TORSDOF 26
ENDMDL
MODEL 4
REMARK VINA RESULT:      -6.5      3.183      6.430
REMARK  26 active torsions:
REMARK  status: ('A' for Active; 'I' for Inactive)
REMARK    1  A    between atoms: C2_2  and  C3_3 
REMARK    2  A    between atoms: C4_6  and  C5_7 
REMARK       I    between atoms: C5_7  and  N2_9 
REMARK    3  A    between atoms: N2_9  and  C6_10 
REMARK    4  A    between atoms: C6_10  and  C7_11 
REMARK    5  A    between atoms: C6_10  and  C8_13 
REMARK       I    between atoms: C7_11  and  N3_14 
REMARK    6  A    between atoms: N3_14  and  C9_15 
REMARK    7  A    between atoms: C9_15  and  C10_16 
REMARK    8  A    between atoms: C9_15  and  C11_18 
REMARK       I    between atoms: C10_16  and  N4_21 
REMARK    9  A    between atoms: C11_18  and  C12_19 
REMARK   10  A    between atoms: C11_18  and  C13_20 
REMARK   11  A    between atoms: N4_21  and  C14_22 
REMARK   12  A    between atoms: C14_22  and  C15_23 
REMARK   13  A    between atoms: C14_22  and  C16_25 
REMARK       I    between atoms: C15_23  and  N6_40 
REMARK   14  A    between atoms: C16_25  and  C17_26 
REMARK   15  A    between atoms: C17_26  and  C18_27 
REMARK   16  A    between atoms: C17_26  and  C19_28 
REMARK   17  A    between atoms: C20_29  and  C21_30 
REMARK   18  A    between atoms: C20_29  and  C24_33 
REMARK   19  A    between atoms: C20_29  and  N6_40 
REMARK   20  A    between atoms: C21_30  and  C22_31 
REMARK   21  A    between atoms: C22_31  and  C23_32 
REMARK   22  A    between atoms: C23_32  and  O8_43 
REMARK   23  A    between atoms: C24_33  and  C25_34 
REMARK   24  A    between atoms: C28_38  and  O6_39 
REMARK   25  A    between atoms: C29_42  and  O8_43 
REMARK   26  A    between atoms: C29_42  and  C35_49 
ROOT
ATOM      1  C14 non d ame      -7.014  12.827  68.069  0.00  0.00     0.089 C 
ATOM      2  H20 non d ame      -6.265  12.652  67.297  0.00  0.00     0.087 H 
ENDROOT
BRANCH   1   3
ATOM      3  N4  non d ame      -7.279  14.257  68.107  0.00  0.00    -0.346 N 
ATOM      4  C10 non d ame      -6.214  15.240  67.689  0.00  0.00     0.241 C 
ATOM      5  O4  non d ame      -5.151  14.856  67.327  0.00  0.00    -0.271 OA
ATOM      6  H19 non d ame      -8.189  14.564  68.421  0.00  0.00     0.163 HD
BRANCH   4   7
ATOM      7  C9  non d ame      -6.507  16.717  67.730  0.00  0.00     0.092 C 
ATOM      8  H11 non d ame      -6.261  17.158  66.764  0.00  0.00     0.088 H 
BRANCH   7   9
ATOM      9  N3  non d ame      -7.942  16.925  67.948  0.00  0.00    -0.346 N 
ATOM     10  C7  non d ame      -8.776  17.390  66.867  0.00  0.00     0.240 C 
ATOM     11  O3  non d ame      -8.308  17.604  65.815  0.00  0.00    -0.271 OA
ATOM     12  H10 non d ame      -8.359  16.747  68.850  0.00  0.00     0.163 HD
BRANCH  10  13
ATOM     13  C6  non d ame     -10.301  17.614  67.107  0.00  0.00     0.086 C 
ATOM     14  H6  non d ame     -10.924  17.075  66.393  0.00  0.00     0.086 H 
BRANCH  13  15
ATOM     15  N2  non d ame     -10.649  17.110  68.425  0.00  0.00    -0.343 N 
ATOM     16  C5  non d ame     -11.359  15.834  68.545  0.00  0.00     0.273 C 
ATOM     17  O2  non d ame     -11.648  15.223  67.575  0.00  0.00    -0.266 OA
ATOM     18  H5  non d ame     -10.401  17.639  69.248  0.00  0.00     0.163 HD
BRANCH  16  19
ATOM     19  C4  non d ame     -11.732  15.288  69.932  0.00  0.00     0.154 A 
ATOM     20  C1  non d ame     -11.714  15.999  71.174  0.00  0.00    -0.017 A 
ATOM     21  C2  non d ame     -12.138  15.057  72.138  0.00  0.00     0.077 A 
ATOM     22  H1  non d ame     -11.436  17.038  71.350  0.00  0.00     0.091 H 
ATOM     23  O1  non d ame     -12.371  13.940  71.512  0.00  0.00    -0.218 OA
ATOM     24  N1  non d ame     -12.141  14.050  70.224  0.00  0.00    -0.123 NA
BRANCH  21  25
ATOM     25  C3  non d ame     -12.295  15.304  73.632  0.00  0.00    -0.029 C 
ATOM     26  H2  non d ame     -11.318  15.252  74.115  0.00  0.00     0.036 H 
ATOM     27  H3  non d ame     -12.727  16.292  73.793  0.00  0.00     0.036 H 
ATOM     28  H4  non d ame     -12.953  14.547  74.060  0.00  0.00     0.036 H 
ENDBRANCH  21  25
ENDBRANCH  16  19
ENDBRANCH  13  15
BRANCH  13  29
ATOM     29  C8  non d ame     -10.617  19.085  67.017  0.00  0.00    -0.049 C 
ATOM     30  H7  non d ame     -10.342  19.457  66.030  0.00  0.00     0.030 H 
ATOM     31  H8  non d ame     -11.686  19.236  67.177  0.00  0.00     0.030 H 
ATOM     32  H9  non d ame     -10.055  19.624  67.778  0.00  0.00     0.030 H 
ENDBRANCH  13  29
ENDBRANCH  10  13
ENDBRANCH   7   9
BRANCH   7  33
ATOM     33  C11 non d ame      -5.707  17.373  68.893  0.00  0.00    -0.033 C 
ATOM     34  H12 non d ame      -4.672  17.469  68.567  0.00  0.00     0.042 H 
BRANCH  33  35
ATOM     35  C12 non d ame      -6.235  18.807  69.209  0.00  0.00    -0.071 C 
ATOM     36  H13 non d ame      -6.739  18.804  70.175  0.00  0.00     0.028 H 
ATOM     37  H14 non d ame      -5.398  19.504  69.238  0.00  0.00     0.028 H 
ATOM     38  H15 non d ame      -6.936  19.114  68.433  0.00  0.00     0.028 H 
ENDBRANCH  33  35
BRANCH  33  39
ATOM     39  C13 non d ame      -5.730  16.468  70.167  0.00  0.00    -0.071 C 
ATOM     40  H16 non d ame      -6.268  15.546  69.948  0.00  0.00     0.028 H 
ATOM     41  H17 non d ame      -4.708  16.231  70.464  0.00  0.00     0.028 H 
ATOM     42  H18 non d ame      -6.231  16.997  70.978  0.00  0.00     0.028 H 
ENDBRANCH  33  39
ENDBRANCH   7  33
ENDBRANCH   4   7
ENDBRANCH   1   3
BRANCH   1  43
ATOM     43  C15 non d ame      -8.348  12.084  67.772  0.00  0.00     0.240 C 
ATOM     44  O5  non d ame      -9.361  12.469  68.263  0.00  0.00    -0.271 OA
ATOM     45  N6  non d ame      -8.366  10.899  66.869  0.00  0.00    -0.355 N 
ATOM     46  H46 non d ame      -7.514  10.565  66.443  0.00  0.00     0.162 HD
BRANCH  45  47
ATOM     47  C20 non d ame      -9.643  10.204  66.596  0.00  0.00     0.013 C 
ATOM     48  H30 non d ame     -10.417  10.674  67.204  0.00  0.00     0.072 H 
BRANCH  47  49
ATOM     49  C21 non d ame      -9.509   8.745  66.969  0.00  0.00    -0.038 C 
ATOM     50  H31 non d ame     -10.073   8.624  67.894  0.00  0.00     0.036 H 
ATOM     51  H32 non d ame      -9.796   8.187  66.077  0.00  0.00     0.036 H 
BRANCH  49  52
ATOM     52  C22 non d ame      -8.054   8.339  67.287  0.00  0.00     0.018 C 
ATOM     53  H33 non d ame      -7.915   7.357  66.835  0.00  0.00     0.048 H 
ATOM     54  H34 non d ame      -7.436   9.179  66.967  0.00  0.00     0.048 H 
BRANCH  52  55
ATOM     55  C23 non d ame      -7.774   8.153  68.805  0.00  0.00     0.259 C 
ATOM     56  O7  non d ame      -6.664   7.999  69.198  0.00  0.00    -0.265 OA
BRANCH  55  57
ATOM     57  O8  non d ame      -8.863   8.155  69.720  0.00  0.00    -0.317 OA
BRANCH  57  58
ATOM     58  C29 non d ame      -9.059   9.403  70.391  0.00  0.00     0.052 C 
ATOM     59  H47 non d ame      -8.421   9.368  71.273  0.00  0.00     0.082 H 
ATOM     60  H48 non d ame      -8.900  10.172  69.635  0.00  0.00     0.082 H 
BRANCH  58  61
ATOM     61  C35 non d ame     -10.538   9.470  70.855  0.00  0.00    -0.034 A 
ATOM     62  C30 non d ame     -11.007   8.582  71.817  0.00  0.00    -0.075 A 
ATOM     63  C31 non d ame     -12.335   8.642  72.235  0.00  0.00    -0.082 A 
ATOM     64  H49 non d ame     -10.334   7.840  72.244  0.00  0.00     0.084 H 
ATOM     65  C32 non d ame     -13.197   9.594  71.684  0.00  0.00    -0.083 A 
ATOM     66  H50 non d ame     -12.699   7.946  72.990  0.00  0.00     0.083 H 
ATOM     67  C33 non d ame     -12.726  10.477  70.721  0.00  0.00    -0.082 A 
ATOM     68  H51 non d ame     -14.238   9.648  72.004  0.00  0.00     0.083 H 
ATOM     69  C34 non d ame     -11.398  10.422  70.303  0.00  0.00    -0.075 A 
ATOM     70  H52 non d ame     -13.402  11.217  70.291  0.00  0.00     0.083 H 
ATOM     71  H53 non d ame     -11.035  11.119  69.547  0.00  0.00     0.084 H 
ENDBRANCH  58  61
ENDBRANCH  57  58
ENDBRANCH  55  57
ENDBRANCH  52  55
ENDBRANCH  49  52
ENDBRANCH  47  49
BRANCH  47  72
ATOM     72  C24 non d ame      -9.989  10.323  65.114  0.00  0.00    -0.039 C 
ATOM     73  H35 non d ame      -9.077  10.055  64.581  0.00  0.00     0.036 H 
ATOM     74  H36 non d ame     -10.893   9.730  64.978  0.00  0.00     0.036 H 
BRANCH  72  75
ATOM     75  C25 non d ame     -10.348  11.831  64.708  0.00  0.00    -0.001 C 
ATOM     76  C26 non d ame     -11.690  12.326  65.518  0.00  0.00    -0.035 C 
ATOM     77  C27 non d ame     -12.575  12.833  64.628  0.00  0.00     0.085 C 
ATOM     78  H38 non d ame     -12.213  11.465  65.934  0.00  0.00     0.036 H 
ATOM     79  H39 non d ame     -11.451  13.178  66.154  0.00  0.00     0.036 H 
ATOM     80  N5  non d ame     -12.098  12.433  63.253  0.00  0.00    -0.049 N 
ATOM     81  H40 non d ame     -13.520  12.330  64.836  0.00  0.00     0.075 H 
ATOM     82  H41 non d ame     -12.500  13.916  64.727  0.00  0.00     0.075 H 
ATOM     83  C28 non d ame     -10.574  11.932  63.440  0.00  0.00     0.193 C 
ATOM     84  H42 non d ame     -12.663  11.644  62.972  0.00  0.00     0.280 HD
ATOM     85  H43 non d ame     -12.093  13.274  62.695  0.00  0.00     0.280 HD
ATOM     86  H44 non d ame      -9.741  12.568  63.140  0.00  0.00     0.129 H 
ATOM     87  H37 non d ame      -9.477  12.486  64.743  0.00  0.00     0.046 H 
BRANCH  83  88
ATOM     88  O6  non d ame     -10.375  10.694  62.756  0.00  0.00    -0.369 OA
ATOM     89  H45 non d ame     -10.310   9.982  63.396  0.00  0.00     0.212 HD
ENDBRANCH  83  88
ENDBRANCH  72  75
ENDBRANCH  47  72
ENDBRANCH  45  47
ENDBRANCH   1  43
BRANCH   1  90
ATOM     90  C16 non d ame      -6.473  12.385  69.420  0.00  0.00    -0.035 C 
ATOM     91  H21 non d ame      -6.411  13.295  70.017  0.00  0.00     0.037 H 
ATOM     92  H22 non d ame      -7.121  11.569  69.737  0.00  0.00     0.037 H 
BRANCH  90  93
ATOM     93  C17 non d ame      -5.026  11.802  69.355  0.00  0.00    -0.059 C 
ATOM     94  H23 non d ame      -4.986  10.940  70.021  0.00  0.00     0.038 H 
BRANCH  93  95
ATOM     95  C18 non d ame      -4.651  11.312  67.920  0.00  0.00    -0.073 C 
ATOM     96  H24 non d ame      -3.619  11.585  67.701  0.00  0.00     0.028 H 
ATOM     97  H25 non d ame      -4.758  10.228  67.866  0.00  0.00     0.028 H 
ATOM     98  H26 non d ame      -5.314  11.778  67.191  0.00  0.00     0.028 H 
ENDBRANCH  93  95
BRANCH  93  99
ATOM     99  C19 non d ame      -4.003  12.819  69.868  0.00  0.00    -0.073 C 
ATOM    100  H27 non d ame      -4.242  13.806  69.471  0.00  0.00     0.028 H 
ATOM    101  H28 non d ame      -4.034  12.847  70.957  0.00  0.00     0.028 H 
ATOM    102  H29 non d ame      -3.006  12.528  69.540  0.00  0.00     0.028 H 
ENDBRANCH  93  99
ENDBRANCH  90  93
ENDBRANCH   1  90
TORSDOF 26
ENDMDL
MODEL 5
REMARK VINA RESULT:      -6.4      2.999      5.261
REMARK  26 active torsions:
REMARK  status: ('A' for Active; 'I' for Inactive)
REMARK    1  A    between atoms: C2_2  and  C3_3 
REMARK    2  A    between atoms: C4_6  and  C5_7 
REMARK       I    between atoms: C5_7  and  N2_9 
REMARK    3  A    between atoms: N2_9  and  C6_10 
REMARK    4  A    between atoms: C6_10  and  C7_11 
REMARK    5  A    between atoms: C6_10  and  C8_13 
REMARK       I    between atoms: C7_11  and  N3_14 
REMARK    6  A    between atoms: N3_14  and  C9_15 
REMARK    7  A    between atoms: C9_15  and  C10_16 
REMARK    8  A    between atoms: C9_15  and  C11_18 
REMARK       I    between atoms: C10_16  and  N4_21 
REMARK    9  A    between atoms: C11_18  and  C12_19 
REMARK   10  A    between atoms: C11_18  and  C13_20 
REMARK   11  A    between atoms: N4_21  and  C14_22 
REMARK   12  A    between atoms: C14_22  and  C15_23 
REMARK   13  A    between atoms: C14_22  and  C16_25 
REMARK       I    between atoms: C15_23  and  N6_40 
REMARK   14  A    between atoms: C16_25  and  C17_26 
REMARK   15  A    between atoms: C17_26  and  C18_27 
REMARK   16  A    between atoms: C17_26  and  C19_28 
REMARK   17  A    between atoms: C20_29  and  C21_30 
REMARK   18  A    between atoms: C20_29  and  C24_33 
REMARK   19  A    between atoms: C20_29  and  N6_40 
REMARK   20  A    between atoms: C21_30  and  C22_31 
REMARK   21  A    between atoms: C22_31  and  C23_32 
REMARK   22  A    between atoms: C23_32  and  O8_43 
REMARK   23  A    between atoms: C24_33  and  C25_34 
REMARK   24  A    between atoms: C28_38  and  O6_39 
REMARK   25  A    between atoms: C29_42  and  O8_43 
REMARK   26  A    between atoms: C29_42  and  C35_49 
ROOT
ATOM      1  C14 non d ame      -6.017  10.998  66.849  0.00  0.00     0.089 C 
ATOM      2  H20 non d ame      -5.277  11.333  67.576  0.00  0.00     0.087 H 
ENDROOT
BRANCH   1   3
ATOM      3  N4  non d ame      -7.016  12.049  66.723  0.00  0.00    -0.346 N 
ATOM      4  C10 non d ame      -6.838  13.360  67.447  0.00  0.00     0.241 C 
ATOM      5  O4  non d ame      -5.882  13.545  68.126  0.00  0.00    -0.271 OA
ATOM      6  H19 non d ame      -7.823  11.870  66.142  0.00  0.00     0.163 HD
BRANCH   4   7
ATOM      7  C9  non d ame      -7.879  14.438  67.302  0.00  0.00     0.092 C 
ATOM      8  H11 non d ame      -7.935  14.744  66.257  0.00  0.00     0.088 H 
BRANCH   7   9
ATOM      9  N3  non d ame      -9.193  13.901  67.667  0.00  0.00    -0.346 N 
ATOM     10  C7  non d ame     -10.303  14.028  66.756  0.00  0.00     0.240 C 
ATOM     11  O3  non d ame     -10.157  14.562  65.724  0.00  0.00    -0.271 OA
ATOM     12  H10 non d ame      -9.334  13.440  68.554  0.00  0.00     0.163 HD
BRANCH  10  13
ATOM     13  C6  non d ame     -11.700  13.458  67.152  0.00  0.00     0.086 C 
ATOM     14  H6  non d ame     -11.693  12.375  67.279  0.00  0.00     0.086 H 
BRANCH  13  15
ATOM     15  N2  non d ame     -12.094  14.025  68.431  0.00  0.00    -0.343 N 
ATOM     16  C5  non d ame     -12.084  13.180  69.627  0.00  0.00     0.273 C 
ATOM     17  O2  non d ame     -11.759  12.047  69.550  0.00  0.00    -0.266 OA
ATOM     18  H5  non d ame     -12.373  14.994  68.488  0.00  0.00     0.163 HD
BRANCH  16  19
ATOM     19  C4  non d ame     -12.497  13.767  70.987  0.00  0.00     0.154 A 
ATOM     20  C1  non d ame     -11.974  14.940  71.617  0.00  0.00    -0.017 A 
ATOM     21  C2  non d ame     -12.679  15.044  72.837  0.00  0.00     0.077 A 
ATOM     22  H1  non d ame     -11.200  15.614  71.246  0.00  0.00     0.091 H 
ATOM     23  O1  non d ame     -13.509  14.043  72.890  0.00  0.00    -0.218 OA
ATOM     24  N1  non d ame     -13.420  13.283  71.822  0.00  0.00    -0.123 NA
BRANCH  21  25
ATOM     25  C3  non d ame     -12.502  16.127  73.891  0.00  0.00    -0.029 C 
ATOM     26  H2  non d ame     -11.677  15.860  74.554  0.00  0.00     0.036 H 
ATOM     27  H3  non d ame     -12.281  17.077  73.403  0.00  0.00     0.036 H 
ATOM     28  H4  non d ame     -13.419  16.223  74.473  0.00  0.00     0.036 H 
ENDBRANCH  21  25
ENDBRANCH  16  19
ENDBRANCH  13  15
BRANCH  13  29
ATOM     29  C8  non d ame     -12.712  13.817  66.094  0.00  0.00    -0.049 C 
ATOM     30  H7  non d ame     -13.152  14.787  66.327  0.00  0.00     0.030 H 
ATOM     31  H8  non d ame     -12.219  13.866  65.122  0.00  0.00     0.030 H 
ATOM     32  H9  non d ame     -13.494  13.061  66.067  0.00  0.00     0.030 H 
ENDBRANCH  13  29
ENDBRANCH  10  13
ENDBRANCH   7   9
BRANCH   7  33
ATOM     33  C11 non d ame      -7.528  15.629  68.241  0.00  0.00    -0.033 C 
ATOM     34  H12 non d ame      -6.668  15.331  68.842  0.00  0.00     0.042 H 
BRANCH  33  35
ATOM     35  C12 non d ame      -7.115  16.894  67.426  0.00  0.00    -0.071 C 
ATOM     36  H13 non d ame      -7.980  17.546  67.305  0.00  0.00     0.028 H 
ATOM     37  H14 non d ame      -6.329  17.429  67.959  0.00  0.00     0.028 H 
ATOM     38  H15 non d ame      -6.747  16.590  66.447  0.00  0.00     0.028 H 
ENDBRANCH  33  35
BRANCH  33  39
ATOM     39  C13 non d ame      -8.711  15.942  69.213  0.00  0.00    -0.071 C 
ATOM     40  H16 non d ame      -9.648  15.626  68.757  0.00  0.00     0.028 H 
ATOM     41  H17 non d ame      -8.563  15.406  70.151  0.00  0.00     0.028 H 
ATOM     42  H18 non d ame      -8.745  17.013  69.408  0.00  0.00     0.028 H 
ENDBRANCH  33  39
ENDBRANCH   7  33
ENDBRANCH   4   7
ENDBRANCH   1   3
BRANCH   1  43
ATOM     43  C15 non d ame      -5.390  10.742  65.448  0.00  0.00     0.240 C 
ATOM     44  O5  non d ame      -4.470  11.401  65.082  0.00  0.00    -0.271 OA
ATOM     45  N6  non d ame      -5.930   9.669  64.566  0.00  0.00    -0.355 N 
ATOM     46  H46 non d ame      -6.708   9.100  64.867  0.00  0.00     0.162 HD
BRANCH  45  47
ATOM     47  C20 non d ame      -5.322   9.436  63.238  0.00  0.00     0.013 C 
ATOM     48  H30 non d ame      -4.685  10.290  63.007  0.00  0.00     0.072 H 
BRANCH  47  49
ATOM     49  C21 non d ame      -6.416   9.314  62.201  0.00  0.00    -0.038 C 
ATOM     50  H31 non d ame      -6.483  10.292  61.725  0.00  0.00     0.036 H 
ATOM     51  H32 non d ame      -6.161   8.434  61.608  0.00  0.00     0.036 H 
BRANCH  49  52
ATOM     52  C22 non d ame      -7.802   9.034  62.822  0.00  0.00     0.018 C 
ATOM     53  H33 non d ame      -8.359   8.480  62.066  0.00  0.00     0.048 H 
ATOM     54  H34 non d ame      -7.604   8.580  63.794  0.00  0.00     0.048 H 
BRANCH  52  55
ATOM     55  C23 non d ame      -8.630  10.318  63.108  0.00  0.00     0.259 C 
ATOM     56  O7  non d ame      -9.076  10.958  62.213  0.00  0.00    -0.265 OA
BRANCH  55  57
ATOM     57  O8  non d ame      -8.837  10.729  64.454  0.00  0.00    -0.317 OA
BRANCH  57  58
ATOM     58  C29 non d ame     -10.167  10.508  64.933  0.00  0.00     0.052 C 
ATOM     59  H47 non d ame     -10.503  11.468  65.324  0.00  0.00     0.082 H 
ATOM     60  H48 non d ame     -10.703  10.038  64.108  0.00  0.00     0.082 H 
BRANCH  58  61
ATOM     61  C35 non d ame     -10.091   9.497  66.108  0.00  0.00    -0.034 A 
ATOM     62  C30 non d ame     -10.491   9.881  67.384  0.00  0.00    -0.075 A 
ATOM     63  C31 non d ame     -10.423   8.974  68.439  0.00  0.00    -0.082 A 
ATOM     64  H49 non d ame     -10.857  10.892  67.556  0.00  0.00     0.084 H 
ATOM     65  C32 non d ame      -9.950   7.678  68.216  0.00  0.00    -0.083 A 
ATOM     66  H50 non d ame     -10.738   9.277  69.437  0.00  0.00     0.083 H 
ATOM     67  C33 non d ame      -9.548   7.299  66.942  0.00  0.00    -0.082 A 
ATOM     68  H51 non d ame      -9.893   6.961  69.036  0.00  0.00     0.083 H 
ATOM     69  C34 non d ame      -9.617   8.203  65.883  0.00  0.00    -0.075 A 
ATOM     70  H52 non d ame      -9.178   6.288  66.771  0.00  0.00     0.083 H 
ATOM     71  H53 non d ame      -9.301   7.898  64.885  0.00  0.00     0.084 H 
ENDBRANCH  58  61
ENDBRANCH  57  58
ENDBRANCH  55  57
ENDBRANCH  52  55
ENDBRANCH  49  52
ENDBRANCH  47  49
BRANCH  47  72
ATOM     72  C24 non d ame      -4.498   8.151  63.265  0.00  0.00    -0.039 C 
ATOM     73  H35 non d ame      -4.749   7.626  62.343  0.00  0.00     0.036 H 
ATOM     74  H36 non d ame      -3.471   8.468  63.449  0.00  0.00     0.036 H 
BRANCH  72  75
ATOM     75  C25 non d ame      -4.924   7.200  64.482  0.00  0.00    -0.001 C 
ATOM     76  C26 non d ame      -3.721   7.148  65.601  0.00  0.00    -0.035 C 
ATOM     77  C27 non d ame      -3.436   5.853  65.876  0.00  0.00     0.085 C 
ATOM     78  H38 non d ame      -2.795   7.528  65.171  0.00  0.00     0.036 H 
ATOM     79  H39 non d ame      -4.080   7.538  66.554  0.00  0.00     0.036 H 
ATOM     80  N5  non d ame      -4.104   5.018  64.811  0.00  0.00    -0.049 N 
ATOM     81  H40 non d ame      -2.354   5.764  65.771  0.00  0.00     0.075 H 
ATOM     82  H41 non d ame      -3.909   5.648  66.836  0.00  0.00     0.075 H 
ATOM     83  C28 non d ame      -5.157   5.996  64.074  0.00  0.00     0.193 C 
ATOM     84  H42 non d ame      -3.382   4.767  64.150  0.00  0.00     0.280 HD
ATOM     85  H43 non d ame      -4.619   4.297  65.294  0.00  0.00     0.280 HD
ATOM     86  H44 non d ame      -6.224   5.918  64.283  0.00  0.00     0.129 H 
ATOM     87  H37 non d ame      -5.929   7.417  64.843  0.00  0.00     0.046 H 
BRANCH  83  88
ATOM     88  O6  non d ame      -5.034   5.873  62.657  0.00  0.00    -0.369 OA
ATOM     89  H45 non d ame      -5.526   5.105  62.358  0.00  0.00     0.212 HD
ENDBRANCH  83  88
ENDBRANCH  72  75
ENDBRANCH  47  72
ENDBRANCH  45  47
ENDBRANCH   1  43
BRANCH   1  90
ATOM     90  C16 non d ame      -6.690   9.729  67.348  0.00  0.00    -0.035 C 
ATOM     91  H21 non d ame      -7.554  10.067  67.921  0.00  0.00     0.037 H 
ATOM     92  H22 non d ame      -6.832   9.111  66.462  0.00  0.00     0.037 H 
BRANCH  90  93
ATOM     93  C17 non d ame      -5.807   8.897  68.331  0.00  0.00    -0.059 C 
ATOM     94  H23 non d ame      -5.473   8.005  67.800  0.00  0.00     0.038 H 
BRANCH  93  95
ATOM     95  C18 non d ame      -4.538   9.681  68.792  0.00  0.00    -0.073 C 
ATOM     96  H24 non d ame      -4.647  10.734  68.532  0.00  0.00     0.028 H 
ATOM     97  H25 non d ame      -4.424   9.584  69.872  0.00  0.00     0.028 H 
ATOM     98  H26 non d ame      -3.658   9.272  68.297  0.00  0.00     0.028 H 
ENDBRANCH  93  95
BRANCH  93  99
ATOM     99  C19 non d ame      -6.626   8.427  69.536  0.00  0.00    -0.073 C 
ATOM    100  H27 non d ame      -6.453   9.099  70.376  0.00  0.00     0.028 H 
ATOM    101  H28 non d ame      -7.686   8.431  69.279  0.00  0.00     0.028 H 
ATOM    102  H29 non d ame      -6.322   7.418  69.810  0.00  0.00     0.028 H 
ENDBRANCH  93  99
ENDBRANCH  90  93
ENDBRANCH   1  90
TORSDOF 26
ENDMDL
MODEL 6
REMARK VINA RESULT:      -6.3      3.953      7.027
REMARK  26 active torsions:
REMARK  status: ('A' for Active; 'I' for Inactive)
REMARK    1  A    between atoms: C2_2  and  C3_3 
REMARK    2  A    between atoms: C4_6  and  C5_7 
REMARK       I    between atoms: C5_7  and  N2_9 
REMARK    3  A    between atoms: N2_9  and  C6_10 
REMARK    4  A    between atoms: C6_10  and  C7_11 
REMARK    5  A    between atoms: C6_10  and  C8_13 
REMARK       I    between atoms: C7_11  and  N3_14 
REMARK    6  A    between atoms: N3_14  and  C9_15 
REMARK    7  A    between atoms: C9_15  and  C10_16 
REMARK    8  A    between atoms: C9_15  and  C11_18 
REMARK       I    between atoms: C10_16  and  N4_21 
REMARK    9  A    between atoms: C11_18  and  C12_19 
REMARK   10  A    between atoms: C11_18  and  C13_20 
REMARK   11  A    between atoms: N4_21  and  C14_22 
REMARK   12  A    between atoms: C14_22  and  C15_23 
REMARK   13  A    between atoms: C14_22  and  C16_25 
REMARK       I    between atoms: C15_23  and  N6_40 
REMARK   14  A    between atoms: C16_25  and  C17_26 
REMARK   15  A    between atoms: C17_26  and  C18_27 
REMARK   16  A    between atoms: C17_26  and  C19_28 
REMARK   17  A    between atoms: C20_29  and  C21_30 
REMARK   18  A    between atoms: C20_29  and  C24_33 
REMARK   19  A    between atoms: C20_29  and  N6_40 
REMARK   20  A    between atoms: C21_30  and  C22_31 
REMARK   21  A    between atoms: C22_31  and  C23_32 
REMARK   22  A    between atoms: C23_32  and  O8_43 
REMARK   23  A    between atoms: C24_33  and  C25_34 
REMARK   24  A    between atoms: C28_38  and  O6_39 
REMARK   25  A    between atoms: C29_42  and  O8_43 
REMARK   26  A    between atoms: C29_42  and  C35_49 
ROOT
ATOM      1  C14 non d ame      -6.596  13.722  68.387  0.00  0.00     0.089 C 
ATOM      2  H20 non d ame      -5.863  13.645  67.585  0.00  0.00     0.087 H 
ENDROOT
BRANCH   1   3
ATOM      3  N4  non d ame      -6.841  15.136  68.625  0.00  0.00    -0.346 N 
ATOM      4  C10 non d ame      -6.197  16.179  67.747  0.00  0.00     0.241 C 
ATOM      5  O4  non d ame      -5.483  15.855  66.855  0.00  0.00    -0.271 OA
ATOM      6  H19 non d ame      -7.450  15.391  69.391  0.00  0.00     0.163 HD
BRANCH   4   7
ATOM      7  C9  non d ame      -6.465  17.638  68.003  0.00  0.00     0.092 C 
ATOM      8  H11 non d ame      -6.155  18.219  67.134  0.00  0.00     0.088 H 
BRANCH   7   9
ATOM      9  N3  non d ame      -7.907  17.848  68.171  0.00  0.00    -0.346 N 
ATOM     10  C7  non d ame      -8.774  17.855  67.019  0.00  0.00     0.240 C 
ATOM     11  O3  non d ame      -8.328  17.694  65.949  0.00  0.00    -0.271 OA
ATOM     12  H10 non d ame      -8.305  17.990  69.088  0.00  0.00     0.163 HD
BRANCH  10  13
ATOM     13  C6  non d ame     -10.306  18.082  67.205  0.00  0.00     0.086 C 
ATOM     14  H6  non d ame     -10.900  17.619  66.417  0.00  0.00     0.086 H 
BRANCH  13  15
ATOM     15  N2  non d ame     -10.725  17.472  68.456  0.00  0.00    -0.343 N 
ATOM     16  C5  non d ame     -11.251  16.105  68.450  0.00  0.00     0.273 C 
ATOM     17  O2  non d ame     -11.336  15.507  67.434  0.00  0.00    -0.266 OA
ATOM     18  H5  non d ame     -10.651  17.991  69.319  0.00  0.00     0.163 HD
BRANCH  16  19
ATOM     19  C4  non d ame     -11.696  15.446  69.765  0.00  0.00     0.154 A 
ATOM     20  C1  non d ame     -11.728  16.045  71.064  0.00  0.00    -0.017 A 
ATOM     21  C2  non d ame     -12.208  15.029  71.921  0.00  0.00     0.077 A 
ATOM     22  H1  non d ame     -11.446  17.061  71.343  0.00  0.00     0.091 H 
ATOM     23  O1  non d ame     -12.425  13.975  71.189  0.00  0.00    -0.218 OA
ATOM     24  N1  non d ame     -12.132  14.194  69.928  0.00  0.00    -0.123 NA
BRANCH  21  25
ATOM     25  C3  non d ame     -12.433  15.148  73.422  0.00  0.00    -0.029 C 
ATOM     26  H2  non d ame     -12.072  14.245  73.917  0.00  0.00     0.036 H 
ATOM     27  H3  non d ame     -11.890  16.013  73.803  0.00  0.00     0.036 H 
ATOM     28  H4  non d ame     -13.497  15.271  73.623  0.00  0.00     0.036 H 
ENDBRANCH  21  25
ENDBRANCH  16  19
ENDBRANCH  13  15
BRANCH  13  29
ATOM     29  C8  non d ame     -10.599  19.561  67.229  0.00  0.00    -0.049 C 
ATOM     30  H7  non d ame     -11.630  19.723  67.542  0.00  0.00     0.030 H 
ATOM     31  H8  non d ame      -9.925  20.053  67.933  0.00  0.00     0.030 H 
ATOM     32  H9  non d ame     -10.452  19.977  66.234  0.00  0.00     0.030 H 
ENDBRANCH  13  29
ENDBRANCH  10  13
ENDBRANCH   7   9
BRANCH   7  33
ATOM     33  C11 non d ame      -5.724  18.083  69.298  0.00  0.00    -0.033 C 
ATOM     34  H12 non d ame      -6.036  17.414  70.101  0.00  0.00     0.042 H 
BRANCH  33  35
ATOM     35  C12 non d ame      -4.178  17.942  69.145  0.00  0.00    -0.071 C 
ATOM     36  H13 non d ame      -3.954  17.150  68.431  0.00  0.00     0.028 H 
ATOM     37  H14 non d ame      -3.761  18.883  68.785  0.00  0.00     0.028 H 
ATOM     38  H15 non d ame      -3.738  17.697  70.111  0.00  0.00     0.028 H 
ENDBRANCH  33  35
BRANCH  33  39
ATOM     39  C13 non d ame      -6.124  19.539  69.700  0.00  0.00    -0.071 C 
ATOM     40  H16 non d ame      -7.105  19.529  70.173  0.00  0.00     0.028 H 
ATOM     41  H17 non d ame      -5.388  19.939  70.396  0.00  0.00     0.028 H 
ATOM     42  H18 non d ame      -6.158  20.164  68.807  0.00  0.00     0.028 H 
ENDBRANCH  33  39
ENDBRANCH   7  33
ENDBRANCH   4   7
ENDBRANCH   1   3
BRANCH   1  43
ATOM     43  C15 non d ame      -7.945  13.041  68.018  0.00  0.00     0.240 C 
ATOM     44  O5  non d ame      -8.970  13.519  68.388  0.00  0.00    -0.271 OA
ATOM     45  N6  non d ame      -7.962  11.798  67.195  0.00  0.00    -0.355 N 
ATOM     46  H46 non d ame      -7.099  11.385  66.872  0.00  0.00     0.162 HD
BRANCH  45  47
ATOM     47  C20 non d ame      -9.253  11.164  66.852  0.00  0.00     0.013 C 
ATOM     48  H30 non d ame     -10.036  11.913  66.968  0.00  0.00     0.072 H 
BRANCH  47  49
ATOM     49  C21 non d ame      -9.506  10.004  67.787  0.00  0.00    -0.038 C 
ATOM     50  H31 non d ame     -10.234   9.369  67.281  0.00  0.00     0.036 H 
ATOM     51  H32 non d ame      -8.520   9.609  68.039  0.00  0.00     0.036 H 
BRANCH  49  52
ATOM     52  C22 non d ame     -10.154  10.438  69.119  0.00  0.00     0.018 C 
ATOM     53  H33 non d ame     -10.029   9.593  69.799  0.00  0.00     0.048 H 
ATOM     54  H34 non d ame      -9.711  11.403  69.363  0.00  0.00     0.048 H 
BRANCH  52  55
ATOM     55  C23 non d ame     -11.686  10.681  69.019  0.00  0.00     0.259 C 
ATOM     56  O7  non d ame     -12.145  11.250  68.083  0.00  0.00    -0.265 OA
BRANCH  55  57
ATOM     57  O8  non d ame     -12.534  10.229  70.067  0.00  0.00    -0.317 OA
BRANCH  57  58
ATOM     58  C29 non d ame     -11.915  10.222  71.357  0.00  0.00     0.052 C 
ATOM     59  H47 non d ame     -10.959  10.728  71.229  0.00  0.00     0.082 H 
ATOM     60  H48 non d ame     -12.658  10.628  72.043  0.00  0.00     0.082 H 
BRANCH  58  61
ATOM     61  C35 non d ame     -11.640   8.745  71.748  0.00  0.00    -0.034 A 
ATOM     62  C30 non d ame     -10.435   8.396  72.346  0.00  0.00    -0.075 A 
ATOM     63  C31 non d ame     -10.188   7.070  72.697  0.00  0.00    -0.082 A 
ATOM     64  H49 non d ame      -9.683   9.160  72.540  0.00  0.00     0.084 H 
ATOM     65  C32 non d ame     -11.153   6.090  72.446  0.00  0.00    -0.083 A 
ATOM     66  H50 non d ame      -9.243   6.799  73.167  0.00  0.00     0.083 H 
ATOM     67  C33 non d ame     -12.354   6.443  71.845  0.00  0.00    -0.082 A 
ATOM     68  H51 non d ame     -10.968   5.051  72.717  0.00  0.00     0.083 H 
ATOM     69  C34 non d ame     -12.605   7.768  71.495  0.00  0.00    -0.075 A 
ATOM     70  H52 non d ame     -13.103   5.676  71.648  0.00  0.00     0.083 H 
ATOM     71  H53 non d ame     -13.552   8.038  71.025  0.00  0.00     0.084 H 
ENDBRANCH  58  61
ENDBRANCH  57  58
ENDBRANCH  55  57
ENDBRANCH  52  55
ENDBRANCH  49  52
ENDBRANCH  47  49
BRANCH  47  72
ATOM     72  C24 non d ame      -9.213  10.659  65.411  0.00  0.00    -0.039 C 
ATOM     73  H35 non d ame      -8.155  10.547  65.172  0.00  0.00     0.036 H 
ATOM     74  H36 non d ame      -9.870   9.789  65.390  0.00  0.00     0.036 H 
BRANCH  72  75
ATOM     75  C25 non d ame      -9.818  11.733  64.389  0.00  0.00    -0.001 C 
ATOM     76  C26 non d ame     -11.124  12.473  65.060  0.00  0.00    -0.035 C 
ATOM     77  C27 non d ame     -12.159  12.405  64.190  0.00  0.00     0.085 C 
ATOM     78  H38 non d ame     -11.476  11.901  65.919  0.00  0.00     0.036 H 
ATOM     79  H39 non d ame     -10.940  13.543  65.156  0.00  0.00     0.036 H 
ATOM     80  N5  non d ame     -11.777  11.407  63.124  0.00  0.00    -0.049 N 
ATOM     81  H40 non d ame     -12.998  12.010  64.763  0.00  0.00     0.075 H 
ATOM     82  H41 non d ame     -12.225  13.396  63.739  0.00  0.00     0.075 H 
ATOM     83  C28 non d ame     -10.187  11.172  63.286  0.00  0.00     0.193 C 
ATOM     84  H42 non d ame     -12.253  10.546  63.355  0.00  0.00     0.280 HD
ATOM     85  H43 non d ame     -11.947  11.855  62.236  0.00  0.00     0.280 HD
ATOM     86  H44 non d ame      -9.487  11.629  62.586  0.00  0.00     0.129 H 
ATOM     87  H37 non d ame      -9.048  12.377  63.963  0.00  0.00     0.046 H 
BRANCH  83  88
ATOM     88  O6  non d ame      -9.891   9.775  63.265  0.00  0.00    -0.369 OA
ATOM     89  H45 non d ame      -9.352   9.574  62.497  0.00  0.00     0.212 HD
ENDBRANCH  83  88
ENDBRANCH  72  75
ENDBRANCH  47  72
ENDBRANCH  45  47
ENDBRANCH   1  43
BRANCH   1  90
ATOM     90  C16 non d ame      -6.038  13.094  69.655  0.00  0.00    -0.035 C 
ATOM     91  H21 non d ame      -6.909  12.772  70.226  0.00  0.00     0.037 H 
ATOM     92  H22 non d ame      -5.308  12.360  69.316  0.00  0.00     0.037 H 
BRANCH  90  93
ATOM     93  C17 non d ame      -5.264  14.101  70.564  0.00  0.00    -0.059 C 
ATOM     94  H23 non d ame      -5.611  15.104  70.316  0.00  0.00     0.038 H 
BRANCH  93  95
ATOM     95  C18 non d ame      -5.543  13.861  72.082  0.00  0.00    -0.073 C 
ATOM     96  H24 non d ame      -5.073  14.652  72.667  0.00  0.00     0.028 H 
ATOM     97  H25 non d ame      -6.618  13.868  72.260  0.00  0.00     0.028 H 
ATOM     98  H26 non d ame      -5.132  12.896  72.379  0.00  0.00     0.028 H 
ENDBRANCH  93  95
BRANCH  93  99
ATOM     99  C19 non d ame      -3.762  14.057  70.272  0.00  0.00    -0.073 C 
ATOM    100  H27 non d ame      -3.230  13.710  71.158  0.00  0.00     0.028 H 
ATOM    101  H28 non d ame      -3.572  13.374  69.443  0.00  0.00     0.028 H 
ATOM    102  H29 non d ame      -3.414  15.055  70.007  0.00  0.00     0.028 H 
ENDBRANCH  93  99
ENDBRANCH  90  93
ENDBRANCH   1  90
TORSDOF 26
ENDMDL
MODEL 7
REMARK VINA RESULT:      -6.3      2.032      5.524
REMARK  26 active torsions:
REMARK  status: ('A' for Active; 'I' for Inactive)
REMARK    1  A    between atoms: C2_2  and  C3_3 
REMARK    2  A    between atoms: C4_6  and  C5_7 
REMARK       I    between atoms: C5_7  and  N2_9 
REMARK    3  A    between atoms: N2_9  and  C6_10 
REMARK    4  A    between atoms: C6_10  and  C7_11 
REMARK    5  A    between atoms: C6_10  and  C8_13 
REMARK       I    between atoms: C7_11  and  N3_14 
REMARK    6  A    between atoms: N3_14  and  C9_15 
REMARK    7  A    between atoms: C9_15  and  C10_16 
REMARK    8  A    between atoms: C9_15  and  C11_18 
REMARK       I    between atoms: C10_16  and  N4_21 
REMARK    9  A    between atoms: C11_18  and  C12_19 
REMARK   10  A    between atoms: C11_18  and  C13_20 
REMARK   11  A    between atoms: N4_21  and  C14_22 
REMARK   12  A    between atoms: C14_22  and  C15_23 
REMARK   13  A    between atoms: C14_22  and  C16_25 
REMARK       I    between atoms: C15_23  and  N6_40 
REMARK   14  A    between atoms: C16_25  and  C17_26 
REMARK   15  A    between atoms: C17_26  and  C18_27 
REMARK   16  A    between atoms: C17_26  and  C19_28 
REMARK   17  A    between atoms: C20_29  and  C21_30 
REMARK   18  A    between atoms: C20_29  and  C24_33 
REMARK   19  A    between atoms: C20_29  and  N6_40 
REMARK   20  A    between atoms: C21_30  and  C22_31 
REMARK   21  A    between atoms: C22_31  and  C23_32 
REMARK   22  A    between atoms: C23_32  and  O8_43 
REMARK   23  A    between atoms: C24_33  and  C25_34 
REMARK   24  A    between atoms: C28_38  and  O6_39 
REMARK   25  A    between atoms: C29_42  and  O8_43 
REMARK   26  A    between atoms: C29_42  and  C35_49 
ROOT
ATOM      1  C14 non d ame      -7.711   8.967  66.469  0.00  0.00     0.089 C 
ATOM      2  H20 non d ame      -8.009   8.178  65.779  0.00  0.00     0.087 H 
ENDROOT
BRANCH   1   3
ATOM      3  N4  non d ame      -8.424  10.177  66.085  0.00  0.00    -0.346 N 
ATOM      4  C10 non d ame      -9.921  10.155  65.905  0.00  0.00     0.241 C 
ATOM      5  O4  non d ame     -10.530   9.150  66.073  0.00  0.00    -0.271 OA
ATOM      6  H19 non d ame      -7.886  11.021  65.945  0.00  0.00     0.163 HD
BRANCH   4   7
ATOM      7  C9  non d ame     -10.643  11.417  65.513  0.00  0.00     0.092 C 
ATOM      8  H11 non d ame     -11.687  11.342  65.817  0.00  0.00     0.088 H 
BRANCH   7   9
ATOM      9  N3  non d ame     -10.064  12.555  66.234  0.00  0.00    -0.346 N 
ATOM     10  C7  non d ame     -10.691  13.042  67.437  0.00  0.00     0.240 C 
ATOM     11  O3  non d ame     -11.664  12.530  67.840  0.00  0.00    -0.271 OA
ATOM     12  H10 non d ame      -9.226  13.007  65.897  0.00  0.00     0.163 HD
BRANCH  10  13
ATOM     13  C6  non d ame     -10.072  14.255  68.197  0.00  0.00     0.086 C 
ATOM     14  H6  non d ame     -10.258  15.206  67.697  0.00  0.00     0.086 H 
BRANCH  13  15
ATOM     15  N2  non d ame     -10.684  14.350  69.512  0.00  0.00    -0.343 N 
ATOM     16  C5  non d ame     -11.680  15.393  69.770  0.00  0.00     0.273 C 
ATOM     17  O2  non d ame     -11.979  16.151  68.914  0.00  0.00    -0.266 OA
ATOM     18  H5  non d ame     -10.421  13.700  70.238  0.00  0.00     0.163 HD
BRANCH  16  19
ATOM     19  C4  non d ame     -12.337  15.503  71.155  0.00  0.00     0.154 A 
ATOM     20  C1  non d ame     -11.676  15.609  72.419  0.00  0.00    -0.017 A 
ATOM     21  C2  non d ame     -12.718  15.683  73.370  0.00  0.00     0.077 A 
ATOM     22  H1  non d ame     -10.604  15.630  72.618  0.00  0.00     0.091 H 
ATOM     23  O1  non d ame     -13.843  15.627  72.717  0.00  0.00    -0.218 OA
ATOM     24  N1  non d ame     -13.646  15.521  71.423  0.00  0.00    -0.123 NA
BRANCH  21  25
ATOM     25  C3  non d ame     -12.555  15.807  74.878  0.00  0.00    -0.029 C 
ATOM     26  H2  non d ame     -13.018  14.949  75.367  0.00  0.00     0.036 H 
ATOM     27  H3  non d ame     -11.495  15.840  75.128  0.00  0.00     0.036 H 
ATOM     28  H4  non d ame     -13.037  16.723  75.223  0.00  0.00     0.036 H 
ENDBRANCH  21  25
ENDBRANCH  16  19
ENDBRANCH  13  15
BRANCH  13  29
ATOM     29  C8  non d ame      -8.583  14.061  68.334  0.00  0.00    -0.049 C 
ATOM     30  H7  non d ame      -8.378  13.419  69.190  0.00  0.00     0.030 H 
ATOM     31  H8  non d ame      -8.193  13.594  67.428  0.00  0.00     0.030 H 
ATOM     32  H9  non d ame      -8.102  15.027  68.481  0.00  0.00     0.030 H 
ENDBRANCH  13  29
ENDBRANCH  10  13
ENDBRANCH   7   9
BRANCH   7  33
ATOM     33  C11 non d ame     -10.494  11.645  63.981  0.00  0.00    -0.033 C 
ATOM     34  H12 non d ame      -9.873  12.531  63.840  0.00  0.00     0.042 H 
BRANCH  33  35
ATOM     35  C12 non d ame      -9.764  10.448  63.296  0.00  0.00    -0.071 C 
ATOM     36  H13 non d ame     -10.371   9.548  63.396  0.00  0.00     0.028 H 
ATOM     37  H14 non d ame      -9.615  10.669  62.239  0.00  0.00     0.028 H 
ATOM     38  H15 non d ame      -8.798  10.290  63.773  0.00  0.00     0.028 H 
ENDBRANCH  33  35
BRANCH  33  39
ATOM     39  C13 non d ame     -11.882  11.917  63.319  0.00  0.00    -0.071 C 
ATOM     40  H16 non d ame     -12.653  11.356  63.847  0.00  0.00     0.028 H 
ATOM     41  H17 non d ame     -12.108  12.982  63.369  0.00  0.00     0.028 H 
ATOM     42  H18 non d ame     -11.854  11.601  62.276  0.00  0.00     0.028 H 
ENDBRANCH  33  39
ENDBRANCH   7  33
ENDBRANCH   4   7
ENDBRANCH   1   3
BRANCH   1  43
ATOM     43  C15 non d ame      -8.074   8.626  67.943  0.00  0.00     0.240 C 
ATOM     44  O5  non d ame      -7.567   9.233  68.832  0.00  0.00    -0.271 OA
ATOM     45  N6  non d ame      -9.058   7.549  68.248  0.00  0.00    -0.355 N 
ATOM     46  H46 non d ame      -9.498   7.030  67.501  0.00  0.00     0.162 HD
BRANCH  45  47
ATOM     47  C20 non d ame      -9.392   7.238  69.654  0.00  0.00     0.013 C 
ATOM     48  H30 non d ame      -8.769   7.863  70.293  0.00  0.00     0.072 H 
BRANCH  47  49
ATOM     49  C21 non d ame      -9.107   5.778  69.925  0.00  0.00    -0.038 C 
ATOM     50  H31 non d ame      -8.032   5.658  69.792  0.00  0.00     0.036 H 
ATOM     51  H32 non d ame      -9.565   5.564  70.892  0.00  0.00     0.036 H 
BRANCH  49  52
ATOM     52  C22 non d ame      -9.782   4.836  68.905  0.00  0.00     0.018 C 
ATOM     53  H33 non d ame     -10.608   4.364  69.439  0.00  0.00     0.048 H 
ATOM     54  H34 non d ame      -9.981   5.448  68.024  0.00  0.00     0.048 H 
BRANCH  52  55
ATOM     55  C23 non d ame      -8.867   3.676  68.424  0.00  0.00     0.259 C 
ATOM     56  O7  non d ame      -8.644   2.750  69.134  0.00  0.00    -0.265 OA
BRANCH  55  57
ATOM     57  O8  non d ame      -8.284   3.739  67.128  0.00  0.00    -0.317 OA
BRANCH  57  58
ATOM     58  C29 non d ame      -7.021   4.410  67.088  0.00  0.00     0.052 C 
ATOM     59  H47 non d ame      -7.065   5.169  67.868  0.00  0.00     0.082 H 
ATOM     60  H48 non d ame      -6.268   3.624  67.134  0.00  0.00     0.082 H 
BRANCH  58  61
ATOM     61  C35 non d ame      -6.902   5.124  65.715  0.00  0.00    -0.034 A 
ATOM     62  C30 non d ame      -5.648   5.374  65.167  0.00  0.00    -0.075 A 
ATOM     63  C31 non d ame      -5.540   6.015  63.934  0.00  0.00    -0.082 A 
ATOM     64  H49 non d ame      -4.750   5.067  65.703  0.00  0.00     0.084 H 
ATOM     65  C32 non d ame      -6.693   6.409  63.249  0.00  0.00    -0.083 A 
ATOM     66  H50 non d ame      -4.557   6.208  63.506  0.00  0.00     0.083 H 
ATOM     67  C33 non d ame      -7.943   6.161  63.801  0.00  0.00    -0.082 A 
ATOM     68  H51 non d ame      -6.618   6.911  62.285  0.00  0.00     0.083 H 
ATOM     69  C34 non d ame      -8.054   5.518  65.033  0.00  0.00    -0.075 A 
ATOM     70  H52 non d ame      -8.840   6.471  63.266  0.00  0.00     0.083 H 
ATOM     71  H53 non d ame      -9.040   5.325  65.460  0.00  0.00     0.084 H 
ENDBRANCH  58  61
ENDBRANCH  57  58
ENDBRANCH  55  57
ENDBRANCH  52  55
ENDBRANCH  49  52
ENDBRANCH  47  49
BRANCH  47  72
ATOM     72  C24 non d ame     -10.870   7.525  69.909  0.00  0.00    -0.039 C 
ATOM     73  H35 non d ame     -11.297   7.745  68.930  0.00  0.00     0.036 H 
ATOM     74  H36 non d ame     -11.237   6.674  70.484  0.00  0.00     0.036 H 
BRANCH  72  75
ATOM     75  C25 non d ame     -11.072   8.830  70.817  0.00  0.00    -0.001 C 
ATOM     76  C26 non d ame     -12.230   8.550  71.951  0.00  0.00    -0.035 C 
ATOM     77  C27 non d ame     -13.141   9.551  71.901  0.00  0.00     0.085 C 
ATOM     78  H38 non d ame     -12.808   7.666  71.684  0.00  0.00     0.036 H 
ATOM     79  H39 non d ame     -11.804   8.642  72.950  0.00  0.00     0.036 H 
ATOM     80  N5  non d ame     -12.890  10.313  70.622  0.00  0.00    -0.049 N 
ATOM     81  H40 non d ame     -14.112   9.058  71.837  0.00  0.00     0.075 H 
ATOM     82  H41 non d ame     -12.911  10.196  72.749  0.00  0.00     0.075 H 
ATOM     83  C28 non d ame     -11.435   9.843  70.103  0.00  0.00     0.193 C 
ATOM     84  H42 non d ame     -13.585   9.997  69.960  0.00  0.00     0.280 HD
ATOM     85  H43 non d ame     -12.842  11.289  70.875  0.00  0.00     0.280 HD
ATOM     86  H44 non d ame     -10.568  10.493  70.225  0.00  0.00     0.129 H 
ATOM     87  H37 non d ame     -10.125   9.241  71.165  0.00  0.00     0.046 H 
BRANCH  83  88
ATOM     88  O6  non d ame     -11.486   9.532  68.710  0.00  0.00    -0.369 OA
ATOM     89  H45 non d ame     -11.957   8.706  68.584  0.00  0.00     0.212 HD
ENDBRANCH  83  88
ENDBRANCH  72  75
ENDBRANCH  47  72
ENDBRANCH  45  47
ENDBRANCH   1  43
BRANCH   1  90
ATOM     90  C16 non d ame      -6.215   9.214  66.355  0.00  0.00    -0.035 C 
ATOM     91  H21 non d ame      -5.841   9.195  67.378  0.00  0.00     0.037 H 
ATOM     92  H22 non d ame      -5.857   8.484  65.630  0.00  0.00     0.037 H 
BRANCH  90  93
ATOM     93  C17 non d ame      -5.855  10.621  65.780  0.00  0.00    -0.059 C 
ATOM     94  H23 non d ame      -6.789  11.134  65.553  0.00  0.00     0.038 H 
BRANCH  93  95
ATOM     95  C18 non d ame      -5.068  11.494  66.808  0.00  0.00    -0.073 C 
ATOM     96  H24 non d ame      -5.209  12.549  66.572  0.00  0.00     0.028 H 
ATOM     97  H25 non d ame      -5.438  11.295  67.813  0.00  0.00     0.028 H 
ATOM     98  H26 non d ame      -4.007  11.249  66.757  0.00  0.00     0.028 H 
ENDBRANCH  93  95
BRANCH  93  99
ATOM     99  C19 non d ame      -5.078  10.492  64.467  0.00  0.00    -0.073 C 
ATOM    100  H27 non d ame      -5.759  10.631  63.627  0.00  0.00     0.028 H 
ATOM    101  H28 non d ame      -4.296  11.250  64.431  0.00  0.00     0.028 H 
ATOM    102  H29 non d ame      -4.628   9.501  64.407  0.00  0.00     0.028 H 
ENDBRANCH  93  99
ENDBRANCH  90  93
ENDBRANCH   1  90
TORSDOF 26
ENDMDL
MODEL 8
REMARK VINA RESULT:      -6.3      2.601      9.962
REMARK  26 active torsions:
REMARK  status: ('A' for Active; 'I' for Inactive)
REMARK    1  A    between atoms: C2_2  and  C3_3 
REMARK    2  A    between atoms: C4_6  and  C5_7 
REMARK       I    between atoms: C5_7  and  N2_9 
REMARK    3  A    between atoms: N2_9  and  C6_10 
REMARK    4  A    between atoms: C6_10  and  C7_11 
REMARK    5  A    between atoms: C6_10  and  C8_13 
REMARK       I    between atoms: C7_11  and  N3_14 
REMARK    6  A    between atoms: N3_14  and  C9_15 
REMARK    7  A    between atoms: C9_15  and  C10_16 
REMARK    8  A    between atoms: C9_15  and  C11_18 
REMARK       I    between atoms: C10_16  and  N4_21 
REMARK    9  A    between atoms: C11_18  and  C12_19 
REMARK   10  A    between atoms: C11_18  and  C13_20 
REMARK   11  A    between atoms: N4_21  and  C14_22 
REMARK   12  A    between atoms: C14_22  and  C15_23 
REMARK   13  A    between atoms: C14_22  and  C16_25 
REMARK       I    between atoms: C15_23  and  N6_40 
REMARK   14  A    between atoms: C16_25  and  C17_26 
REMARK   15  A    between atoms: C17_26  and  C18_27 
REMARK   16  A    between atoms: C17_26  and  C19_28 
REMARK   17  A    between atoms: C20_29  and  C21_30 
REMARK   18  A    between atoms: C20_29  and  C24_33 
REMARK   19  A    between atoms: C20_29  and  N6_40 
REMARK   20  A    between atoms: C21_30  and  C22_31 
REMARK   21  A    between atoms: C22_31  and  C23_32 
REMARK   22  A    between atoms: C23_32  and  O8_43 
REMARK   23  A    between atoms: C24_33  and  C25_34 
REMARK   24  A    between atoms: C28_38  and  O6_39 
REMARK   25  A    between atoms: C29_42  and  O8_43 
REMARK   26  A    between atoms: C29_42  and  C35_49 
ROOT
ATOM      1  C14 non d ame      -9.892  10.183  68.671  0.00  0.00     0.089 C 
ATOM      2  H20 non d ame      -9.094  10.191  69.413  0.00  0.00     0.087 H 
ENDROOT
BRANCH   1   3
ATOM      3  N4  non d ame     -10.500   8.861  68.694  0.00  0.00    -0.346 N 
ATOM      4  C10 non d ame      -9.859   7.742  69.476  0.00  0.00     0.241 C 
ATOM      5  O4  non d ame      -8.852   7.929  70.076  0.00  0.00    -0.271 OA
ATOM      6  H19 non d ame     -11.355   8.722  68.174  0.00  0.00     0.163 HD
BRANCH   4   7
ATOM      7  C9  non d ame     -10.505   6.382  69.494  0.00  0.00     0.092 C 
ATOM      8  H11 non d ame     -11.562   6.483  69.249  0.00  0.00     0.088 H 
BRANCH   7   9
ATOM      9  N3  non d ame      -9.900   5.540  68.457  0.00  0.00    -0.346 N 
ATOM     10  C7  non d ame     -10.352   5.641  67.091  0.00  0.00     0.240 C 
ATOM     11  O3  non d ame     -11.203   6.393  66.809  0.00  0.00    -0.271 OA
ATOM     12  H10 non d ame      -9.167   4.885  68.686  0.00  0.00     0.163 HD
BRANCH  10  13
ATOM     13  C6  non d ame      -9.707   4.739  65.993  0.00  0.00     0.086 C 
ATOM     14  H6  non d ame     -10.336   4.636  65.109  0.00  0.00     0.086 H 
BRANCH  13  15
ATOM     15  N2  non d ame      -8.465   5.352  65.551  0.00  0.00    -0.343 N 
ATOM     16  C5  non d ame      -8.178   5.446  64.118  0.00  0.00     0.273 C 
ATOM     17  O2  non d ame      -8.951   5.024  63.330  0.00  0.00    -0.266 OA
ATOM     18  H5  non d ame      -7.809   5.708  66.231  0.00  0.00     0.163 HD
BRANCH  16  19
ATOM     19  C4  non d ame      -6.870   6.093  63.636  0.00  0.00     0.154 A 
ATOM     20  C1  non d ame      -6.560   7.489  63.596  0.00  0.00    -0.017 A 
ATOM     21  C2  non d ame      -5.247   7.556  63.077  0.00  0.00     0.077 A 
ATOM     22  H1  non d ame      -7.190   8.327  63.897  0.00  0.00     0.091 H 
ATOM     23  O1  non d ame      -4.858   6.335  62.851  0.00  0.00    -0.218 OA
ATOM     24  N1  non d ame      -5.788   5.464  63.168  0.00  0.00    -0.123 NA
BRANCH  21  25
ATOM     25  C3  non d ame      -4.438   8.822  62.831  0.00  0.00    -0.029 C 
ATOM     26  H2  non d ame      -5.071   9.572  62.356  0.00  0.00     0.036 H 
ATOM     27  H3  non d ame      -4.069   9.207  63.782  0.00  0.00     0.036 H 
ATOM     28  H4  non d ame      -3.594   8.594  62.180  0.00  0.00     0.036 H 
ENDBRANCH  21  25
ENDBRANCH  16  19
ENDBRANCH  13  15
BRANCH  13  29
ATOM     29  C8  non d ame      -9.433   3.370  66.559  0.00  0.00    -0.049 C 
ATOM     30  H7  non d ame      -8.391   3.307  66.874  0.00  0.00     0.030 H 
ATOM     31  H8  non d ame     -10.083   3.196  67.419  0.00  0.00     0.030 H 
ATOM     32  H9  non d ame      -9.628   2.616  65.798  0.00  0.00     0.030 H 
ENDBRANCH  13  29
ENDBRANCH  10  13
ENDBRANCH   7   9
BRANCH   7  33
ATOM     33  C11 non d ame     -10.287   5.722  70.887  0.00  0.00    -0.033 C 
ATOM     34  H12 non d ame      -9.433   6.214  71.353  0.00  0.00     0.042 H 
BRANCH  33  35
ATOM     35  C12 non d ame     -11.520   5.938  71.818  0.00  0.00    -0.071 C 
ATOM     36  H13 non d ame     -11.463   6.928  72.271  0.00  0.00     0.028 H 
ATOM     37  H14 non d ame     -12.436   5.860  71.232  0.00  0.00     0.028 H 
ATOM     38  H15 non d ame     -11.523   5.179  72.599  0.00  0.00     0.028 H 
ENDBRANCH  33  35
BRANCH  33  39
ATOM     39  C13 non d ame      -9.948   4.204  70.739  0.00  0.00    -0.071 C 
ATOM     40  H16 non d ame      -9.935   3.935  69.683  0.00  0.00     0.028 H 
ATOM     41  H17 non d ame      -8.970   4.004  71.178  0.00  0.00     0.028 H 
ATOM     42  H18 non d ame     -10.705   3.612  71.254  0.00  0.00     0.028 H 
ENDBRANCH  33  39
ENDBRANCH   7  33
ENDBRANCH   4   7
ENDBRANCH   1   3
BRANCH   1  43
ATOM     43  C15 non d ame     -10.992  11.240  68.979  0.00  0.00     0.240 C 
ATOM     44  O5  non d ame     -12.052  10.888  69.387  0.00  0.00    -0.271 OA
ATOM     45  N6  non d ame     -10.721  12.691  68.773  0.00  0.00    -0.355 N 
ATOM     46  H46 non d ame      -9.824  13.002  68.431  0.00  0.00     0.162 HD
BRANCH  45  47
ATOM     47  C20 non d ame     -11.777  13.683  69.072  0.00  0.00     0.013 C 
ATOM     48  H30 non d ame     -12.644  13.144  69.455  0.00  0.00     0.072 H 
BRANCH  47  49
ATOM     49  C21 non d ame     -12.145  14.419  67.803  0.00  0.00    -0.038 C 
ATOM     50  H31 non d ame     -13.225  14.560  67.848  0.00  0.00     0.036 H 
ATOM     51  H32 non d ame     -11.482  15.284  67.763  0.00  0.00     0.036 H 
BRANCH  49  52
ATOM     52  C22 non d ame     -11.864  13.594  66.529  0.00  0.00     0.018 C 
ATOM     53  H33 non d ame     -11.485  12.632  66.876  0.00  0.00     0.048 H 
ATOM     54  H34 non d ame     -12.780  13.639  65.940  0.00  0.00     0.048 H 
BRANCH  52  55
ATOM     55  C23 non d ame     -10.746  14.193  65.630  0.00  0.00     0.259 C 
ATOM     56  O7  non d ame     -10.494  13.705  64.577  0.00  0.00    -0.265 OA
BRANCH  55  57
ATOM     57  O8  non d ame     -10.016  15.325  66.086  0.00  0.00    -0.317 OA
BRANCH  57  58
ATOM     58  C29 non d ame     -10.404  16.557  65.470  0.00  0.00     0.052 C 
ATOM     59  H47 non d ame      -9.688  16.722  64.665  0.00  0.00     0.082 H 
ATOM     60  H48 non d ame     -11.465  16.451  65.242  0.00  0.00     0.082 H 
BRANCH  58  61
ATOM     61  C35 non d ame     -10.236  17.690  66.516  0.00  0.00    -0.034 A 
ATOM     62  C30 non d ame      -9.850  17.385  67.817  0.00  0.00    -0.075 A 
ATOM     63  C31 non d ame      -9.699  18.403  68.758  0.00  0.00    -0.082 A 
ATOM     64  H49 non d ame      -9.664  16.349  68.100  0.00  0.00     0.084 H 
ATOM     65  C32 non d ame      -9.940  19.730  68.393  0.00  0.00    -0.083 A 
ATOM     66  H50 non d ame      -9.395  18.161  69.776  0.00  0.00     0.083 H 
ATOM     67  C33 non d ame     -10.329  20.030  67.095  0.00  0.00    -0.082 A 
ATOM     68  H51 non d ame      -9.825  20.533  69.123  0.00  0.00     0.083 H 
ATOM     69  C34 non d ame     -10.478  19.016  66.151  0.00  0.00    -0.075 A 
ATOM     70  H52 non d ame     -10.518  21.067  66.815  0.00  0.00     0.083 H 
ATOM     71  H53 non d ame     -10.783  19.259  65.132  0.00  0.00     0.084 H 
ENDBRANCH  58  61
ENDBRANCH  57  58
ENDBRANCH  55  57
ENDBRANCH  52  55
ENDBRANCH  49  52
ENDBRANCH  47  49
BRANCH  47  72
ATOM     72  C24 non d ame     -11.270  14.679  70.111  0.00  0.00    -0.039 C 
ATOM     73  H35 non d ame     -10.224  14.421  70.276  0.00  0.00     0.036 H 
ATOM     74  H36 non d ame     -11.532  15.664  69.722  0.00  0.00     0.036 H 
BRANCH  72  75
ATOM     75  C25 non d ame     -12.025  14.509  71.514  0.00  0.00    -0.001 C 
ATOM     76  C26 non d ame     -13.499  13.819  71.277  0.00  0.00    -0.035 C 
ATOM     77  C27 non d ame     -14.439  14.575  71.892  0.00  0.00     0.085 C 
ATOM     78  H38 non d ame     -13.774  13.878  70.224  0.00  0.00     0.036 H 
ATOM     79  H39 non d ame     -13.554  12.865  71.802  0.00  0.00     0.036 H 
ATOM     80  N5  non d ame     -13.785  15.888  72.250  0.00  0.00    -0.049 N 
ATOM     81  H40 non d ame     -15.208  14.754  71.141  0.00  0.00     0.075 H 
ATOM     82  H41 non d ame     -14.686  14.042  72.810  0.00  0.00     0.075 H 
ATOM     83  C28 non d ame     -12.196  15.650  72.094  0.00  0.00     0.193 C 
ATOM     84  H42 non d ame     -14.080  16.554  71.550  0.00  0.00     0.280 HD
ATOM     85  H43 non d ame     -13.991  16.055  73.224  0.00  0.00     0.280 HD
ATOM     86  H44 non d ame     -11.566  15.521  72.975  0.00  0.00     0.129 H 
ATOM     87  H37 non d ame     -11.385  14.063  72.275  0.00  0.00     0.046 H 
BRANCH  83  88
ATOM     88  O6  non d ame     -11.607  16.723  71.358  0.00  0.00    -0.369 OA
ATOM     89  H45 non d ame     -10.918  16.379  70.786  0.00  0.00     0.212 HD
ENDBRANCH  83  88
ENDBRANCH  72  75
ENDBRANCH  47  72
ENDBRANCH  45  47
ENDBRANCH   1  43
BRANCH   1  90
ATOM     90  C16 non d ame      -9.311  10.438  67.289  0.00  0.00    -0.035 C 
ATOM     91  H21 non d ame      -9.730   9.660  66.651  0.00  0.00     0.037 H 
ATOM     92  H22 non d ame      -9.520  11.486  67.077  0.00  0.00     0.037 H 
BRANCH  90  93
ATOM     93  C17 non d ame      -7.759  10.274  67.221  0.00  0.00    -0.059 C 
ATOM     94  H23 non d ame      -7.394  10.913  66.417  0.00  0.00     0.038 H 
BRANCH  93  95
ATOM     95  C18 non d ame      -7.060  10.725  68.543  0.00  0.00    -0.073 C 
ATOM     96  H24 non d ame      -6.362  11.534  68.327  0.00  0.00     0.028 H 
ATOM     97  H25 non d ame      -7.812  11.073  69.251  0.00  0.00     0.028 H 
ATOM     98  H26 non d ame      -6.519   9.882  68.974  0.00  0.00     0.028 H 
ENDBRANCH  93  95
BRANCH  93  99
ATOM     99  C19 non d ame      -7.377   8.835  66.866  0.00  0.00    -0.073 C 
ATOM    100  H27 non d ame      -7.879   8.147  67.547  0.00  0.00     0.028 H 
ATOM    101  H28 non d ame      -7.683   8.620  65.842  0.00  0.00     0.028 H 
ATOM    102  H29 non d ame      -6.299   8.712  66.957  0.00  0.00     0.028 H 
ENDBRANCH  93  99
ENDBRANCH  90  93
ENDBRANCH   1  90
TORSDOF 26
ENDMDL
MODEL 9
REMARK VINA RESULT:      -6.3      3.111      9.024
REMARK  26 active torsions:
REMARK  status: ('A' for Active; 'I' for Inactive)
REMARK    1  A    between atoms: C2_2  and  C3_3 
REMARK    2  A    between atoms: C4_6  and  C5_7 
REMARK       I    between atoms: C5_7  and  N2_9 
REMARK    3  A    between atoms: N2_9  and  C6_10 
REMARK    4  A    between atoms: C6_10  and  C7_11 
REMARK    5  A    between atoms: C6_10  and  C8_13 
REMARK       I    between atoms: C7_11  and  N3_14 
REMARK    6  A    between atoms: N3_14  and  C9_15 
REMARK    7  A    between atoms: C9_15  and  C10_16 
REMARK    8  A    between atoms: C9_15  and  C11_18 
REMARK       I    between atoms: C10_16  and  N4_21 
REMARK    9  A    between atoms: C11_18  and  C12_19 
REMARK   10  A    between atoms: C11_18  and  C13_20 
REMARK   11  A    between atoms: N4_21  and  C14_22 
REMARK   12  A    between atoms: C14_22  and  C15_23 
REMARK   13  A    between atoms: C14_22  and  C16_25 
REMARK       I    between atoms: C15_23  and  N6_40 
REMARK   14  A    between atoms: C16_25  and  C17_26 
REMARK   15  A    between atoms: C17_26  and  C18_27 
REMARK   16  A    between atoms: C17_26  and  C19_28 
REMARK   17  A    between atoms: C20_29  and  C21_30 
REMARK   18  A    between atoms: C20_29  and  C24_33 
REMARK   19  A    between atoms: C20_29  and  N6_40 
REMARK   20  A    between atoms: C21_30  and  C22_31 
REMARK   21  A    between atoms: C22_31  and  C23_32 
REMARK   22  A    between atoms: C23_32  and  O8_43 
REMARK   23  A    between atoms: C24_33  and  C25_34 
REMARK   24  A    between atoms: C28_38  and  O6_39 
REMARK   25  A    between atoms: C29_42  and  O8_43 
REMARK   26  A    between atoms: C29_42  and  C35_49 
ROOT
ATOM      1  C14 non d ame     -11.017  10.271  68.516  0.00  0.00     0.089 C 
ATOM      2  H20 non d ame     -11.876   9.607  68.412  0.00  0.00     0.087 H 
ENDROOT
BRANCH   1   3
ATOM      3  N4  non d ame      -9.974   9.782  67.627  0.00  0.00    -0.346 N 
ATOM      4  C10 non d ame      -8.532  10.149  67.870  0.00  0.00     0.241 C 
ATOM      5  O4  non d ame      -8.236  10.842  68.787  0.00  0.00    -0.271 OA
ATOM      6  H19 non d ame     -10.248   9.195  66.851  0.00  0.00     0.163 HD
BRANCH   4   7
ATOM      7  C9  non d ame      -7.465   9.630  66.943  0.00  0.00     0.092 C 
ATOM      8  H11 non d ame      -7.522   8.542  66.904  0.00  0.00     0.088 H 
BRANCH   7   9
ATOM      9  N3  non d ame      -7.712  10.126  65.586  0.00  0.00    -0.346 N 
ATOM     10  C7  non d ame      -8.009   9.199  64.522  0.00  0.00     0.240 C 
ATOM     11  O3  non d ame      -8.050   8.049  64.740  0.00  0.00    -0.271 OA
ATOM     12  H10 non d ame      -7.678  11.114  65.383  0.00  0.00     0.163 HD
BRANCH  10  13
ATOM     13  C6  non d ame      -8.267   9.732  63.079  0.00  0.00     0.086 C 
ATOM     14  H6  non d ame      -8.946   9.097  62.510  0.00  0.00     0.086 H 
BRANCH  13  15
ATOM     15  N2  non d ame      -8.897  11.039  63.167  0.00  0.00    -0.343 N 
ATOM     16  C5  non d ame     -10.115  11.201  63.964  0.00  0.00     0.273 C 
ATOM     17  O2  non d ame     -10.581  10.273  64.529  0.00  0.00    -0.266 OA
ATOM     18  H5  non d ame      -8.494  11.826  62.680  0.00  0.00     0.163 HD
BRANCH  16  19
ATOM     19  C4  non d ame     -10.791  12.577  64.067  0.00  0.00     0.154 A 
ATOM     20  C1  non d ame     -10.289  13.738  64.738  0.00  0.00    -0.017 A 
ATOM     21  C2  non d ame     -11.277  14.728  64.539  0.00  0.00     0.077 A 
ATOM     22  H1  non d ame      -9.352  13.846  65.285  0.00  0.00     0.091 H 
ATOM     23  O1  non d ame     -12.229  14.190  63.834  0.00  0.00    -0.218 OA
ATOM     24  N1  non d ame     -11.968  12.935  63.548  0.00  0.00    -0.123 NA
BRANCH  21  25
ATOM     25  C3  non d ame     -11.234  16.161  65.052  0.00  0.00    -0.029 C 
ATOM     26  H2  non d ame     -10.213  16.412  65.345  0.00  0.00     0.036 H 
ATOM     27  H3  non d ame     -11.563  16.839  64.265  0.00  0.00     0.036 H 
ATOM     28  H4  non d ame     -11.893  16.259  65.915  0.00  0.00     0.036 H 
ENDBRANCH  21  25
ENDBRANCH  16  19
ENDBRANCH  13  15
BRANCH  13  29
ATOM     29  C8  non d ame      -6.960   9.839  62.337  0.00  0.00    -0.049 C 
ATOM     30  H7  non d ame      -7.144   9.773  61.264  0.00  0.00     0.030 H 
ATOM     31  H8  non d ame      -6.489  10.795  62.566  0.00  0.00     0.030 H 
ATOM     32  H9  non d ame      -6.301   9.027  62.642  0.00  0.00     0.030 H 
ENDBRANCH  13  29
ENDBRANCH  10  13
ENDBRANCH   7   9
BRANCH   7  33
ATOM     33  C11 non d ame      -6.071  10.125  67.428  0.00  0.00    -0.033 C 
ATOM     34  H12 non d ame      -6.170  10.412  68.475  0.00  0.00     0.042 H 
BRANCH  33  35
ATOM     35  C12 non d ame      -5.005   8.988  67.352  0.00  0.00    -0.071 C 
ATOM     36  H13 non d ame      -5.507   8.020  67.342  0.00  0.00     0.028 H 
ATOM     37  H14 non d ame      -4.417   9.100  66.441  0.00  0.00     0.028 H 
ATOM     38  H15 non d ame      -4.348   9.048  68.219  0.00  0.00     0.028 H 
ENDBRANCH  33  35
BRANCH  33  39
ATOM     39  C13 non d ame      -5.614  11.384  66.623  0.00  0.00    -0.071 C 
ATOM     40  H16 non d ame      -5.211  11.072  65.659  0.00  0.00     0.028 H 
ATOM     41  H17 non d ame      -6.467  12.044  66.465  0.00  0.00     0.028 H 
ATOM     42  H18 non d ame      -4.844  11.913  67.184  0.00  0.00     0.028 H 
ENDBRANCH  33  39
ENDBRANCH   7  33
ENDBRANCH   4   7
ENDBRANCH   1   3
BRANCH   1  43
ATOM     43  C15 non d ame     -11.356  11.737  68.122  0.00  0.00     0.240 C 
ATOM     44  O5  non d ame     -12.133  11.949  67.246  0.00  0.00    -0.271 OA
ATOM     45  N6  non d ame     -10.721  12.877  68.842  0.00  0.00    -0.355 N 
ATOM     46  H46 non d ame     -10.064  12.709  69.590  0.00  0.00     0.162 HD
BRANCH  45  47
ATOM     47  C20 non d ame     -11.055  14.265  68.456  0.00  0.00     0.013 C 
ATOM     48  H30 non d ame     -11.510  14.237  67.466  0.00  0.00     0.072 H 
BRANCH  47  49
ATOM     49  C21 non d ame      -9.790  15.092  68.421  0.00  0.00    -0.038 C 
ATOM     50  H31 non d ame      -9.980  15.890  67.702  0.00  0.00     0.036 H 
ATOM     51  H32 non d ame      -9.569  15.336  69.461  0.00  0.00     0.036 H 
BRANCH  49  52
ATOM     52  C22 non d ame      -8.573  14.305  67.890  0.00  0.00     0.018 C 
ATOM     53  H33 non d ame      -8.156  13.787  68.754  0.00  0.00     0.048 H 
ATOM     54  H34 non d ame      -8.941  13.733  67.037  0.00  0.00     0.048 H 
BRANCH  52  55
ATOM     55  C23 non d ame      -7.434  15.208  67.341  0.00  0.00     0.259 C 
ATOM     56  O7  non d ame      -6.349  15.168  67.822  0.00  0.00    -0.265 OA
BRANCH  55  57
ATOM     57  O8  non d ame      -7.706  16.097  66.265  0.00  0.00    -0.317 OA
BRANCH  57  58
ATOM     58  C29 non d ame      -7.137  17.400  66.426  0.00  0.00     0.052 C 
ATOM     59  H47 non d ame      -6.336  17.285  67.156  0.00  0.00     0.082 H 
ATOM     60  H48 non d ame      -6.909  17.749  65.418  0.00  0.00     0.082 H 
BRANCH  58  61
ATOM     61  C35 non d ame      -8.225  18.326  67.032  0.00  0.00    -0.034 A 
ATOM     62  C30 non d ame      -9.079  19.036  66.195  0.00  0.00    -0.075 A 
ATOM     63  C31 non d ame     -10.057  19.868  66.739  0.00  0.00    -0.082 A 
ATOM     64  H49 non d ame      -8.984  18.941  65.114  0.00  0.00     0.084 H 
ATOM     65  C32 non d ame     -10.176  19.990  68.126  0.00  0.00    -0.083 A 
ATOM     66  H50 non d ame     -10.726  20.422  66.081  0.00  0.00     0.083 H 
ATOM     67  C33 non d ame      -9.319  19.282  68.958  0.00  0.00    -0.082 A 
ATOM     68  H51 non d ame     -10.937  20.639  68.560  0.00  0.00     0.083 H 
ATOM     69  C34 non d ame      -8.342  18.447  68.418  0.00  0.00    -0.075 A 
ATOM     70  H52 non d ame      -9.413  19.381  70.039  0.00  0.00     0.083 H 
ATOM     71  H53 non d ame      -7.673  17.893  69.077  0.00  0.00     0.084 H 
ENDBRANCH  58  61
ENDBRANCH  57  58
ENDBRANCH  55  57
ENDBRANCH  52  55
ENDBRANCH  49  52
ENDBRANCH  47  49
BRANCH  47  72
ATOM     72  C24 non d ame     -12.027  14.863  69.470  0.00  0.00    -0.039 C 
ATOM     73  H35 non d ame     -11.761  15.917  69.542  0.00  0.00     0.036 H 
ATOM     74  H36 non d ame     -13.021  14.574  69.126  0.00  0.00     0.036 H 
BRANCH  72  75
ATOM     75  C25 non d ame     -11.830  14.226  70.927  0.00  0.00    -0.001 C 
ATOM     76  C26 non d ame     -13.162  13.358  71.346  0.00  0.00    -0.035 C 
ATOM     77  C27 non d ame     -13.579  13.760  72.570  0.00  0.00     0.085 C 
ATOM     78  H38 non d ame     -13.996  13.618  70.695  0.00  0.00     0.036 H 
ATOM     79  H39 non d ame     -12.895  12.312  71.498  0.00  0.00     0.036 H 
ATOM     80  N5  non d ame     -12.851  15.045  72.884  0.00  0.00    -0.049 N 
ATOM     81  H40 non d ame     -14.643  13.972  72.461  0.00  0.00     0.075 H 
ATOM     82  H41 non d ame     -13.244  12.986  73.260  0.00  0.00     0.075 H 
ATOM     83  C28 non d ame     -11.643  15.144  71.817  0.00  0.00     0.193 C 
ATOM     84  H42 non d ame     -13.503  15.795  72.701  0.00  0.00     0.280 HD
ATOM     85  H43 non d ame     -12.457  14.933  73.806  0.00  0.00     0.280 HD
ATOM     86  H44 non d ame     -10.619  14.923  72.119  0.00  0.00     0.129 H 
ATOM     87  H37 non d ame     -10.863  13.734  71.035  0.00  0.00     0.046 H 
BRANCH  83  88
ATOM     88  O6  non d ame     -11.599  16.451  71.243  0.00  0.00    -0.369 OA
ATOM     89  H45 non d ame     -10.719  16.817  71.349  0.00  0.00     0.212 HD
ENDBRANCH  83  88
ENDBRANCH  72  75
ENDBRANCH  47  72
ENDBRANCH  45  47
ENDBRANCH   1  43
BRANCH   1  90
ATOM     90  C16 non d ame     -10.508  10.231  69.949  0.00  0.00    -0.035 C 
ATOM     91  H21 non d ame      -9.465   9.920  69.875  0.00  0.00     0.037 H 
ATOM     92  H22 non d ame     -10.757  11.204  70.370  0.00  0.00     0.037 H 
BRANCH  90  93
ATOM     93  C17 non d ame     -11.224   9.167  70.839  0.00  0.00    -0.059 C 
ATOM     94  H23 non d ame     -11.574   8.369  70.184  0.00  0.00     0.038 H 
BRANCH  93  95
ATOM     95  C18 non d ame     -10.260   8.532  71.891  0.00  0.00    -0.073 C 
ATOM     96  H24 non d ame     -10.578   7.511  72.105  0.00  0.00     0.028 H 
ATOM     97  H25 non d ame      -9.245   8.519  71.493  0.00  0.00     0.028 H 
ATOM     98  H26 non d ame     -10.283   9.121  72.807  0.00  0.00     0.028 H 
ENDBRANCH  93  95
BRANCH  93  99
ATOM     99  C19 non d ame     -12.457   9.766  71.521  0.00  0.00    -0.073 C 
ATOM    100  H27 non d ame     -12.415  10.853  71.457  0.00  0.00     0.028 H 
ATOM    101  H28 non d ame     -13.358   9.407  71.024  0.00  0.00     0.028 H 
ATOM    102  H29 non d ame     -12.474   9.465  72.568  0.00  0.00     0.028 H 
ENDBRANCH  93  99
ENDBRANCH  90  93
ENDBRANCH   1  90
TORSDOF 26
ENDMDL
MODEL 10
REMARK VINA RESULT:      -6.3      2.644      7.154
REMARK  26 active torsions:
REMARK  status: ('A' for Active; 'I' for Inactive)
REMARK    1  A    between atoms: C2_2  and  C3_3 
REMARK    2  A    between atoms: C4_6  and  C5_7 
REMARK       I    between atoms: C5_7  and  N2_9 
REMARK    3  A    between atoms: N2_9  and  C6_10 
REMARK    4  A    between atoms: C6_10  and  C7_11 
REMARK    5  A    between atoms: C6_10  and  C8_13 
REMARK       I    between atoms: C7_11  and  N3_14 
REMARK    6  A    between atoms: N3_14  and  C9_15 
REMARK    7  A    between atoms: C9_15  and  C10_16 
REMARK    8  A    between atoms: C9_15  and  C11_18 
REMARK       I    between atoms: C10_16  and  N4_21 
REMARK    9  A    between atoms: C11_18  and  C12_19 
REMARK   10  A    between atoms: C11_18  and  C13_20 
REMARK   11  A    between atoms: N4_21  and  C14_22 
REMARK   12  A    between atoms: C14_22  and  C15_23 
REMARK   13  A    between atoms: C14_22  and  C16_25 
REMARK       I    between atoms: C15_23  and  N6_40 
REMARK   14  A    between atoms: C16_25  and  C17_26 
REMARK   15  A    between atoms: C17_26  and  C18_27 
REMARK   16  A    between atoms: C17_26  and  C19_28 
REMARK   17  A    between atoms: C20_29  and  C21_30 
REMARK   18  A    between atoms: C20_29  and  C24_33 
REMARK   19  A    between atoms: C20_29  and  N6_40 
REMARK   20  A    between atoms: C21_30  and  C22_31 
REMARK   21  A    between atoms: C22_31  and  C23_32 
REMARK   22  A    between atoms: C23_32  and  O8_43 
REMARK   23  A    between atoms: C24_33  and  C25_34 
REMARK   24  A    between atoms: C28_38  and  O6_39 
REMARK   25  A    between atoms: C29_42  and  O8_43 
REMARK   26  A    between atoms: C29_42  and  C35_49 
ROOT
ATOM      1  C14 non d ame      -6.845   9.850  66.985  0.00  0.00     0.089 C 
ATOM      2  H20 non d ame      -5.830  10.087  66.664  0.00  0.00     0.087 H 
ENDROOT
BRANCH   1   3
ATOM      3  N4  non d ame      -7.332  10.976  67.768  0.00  0.00    -0.346 N 
ATOM      4  C10 non d ame      -6.655  12.320  67.671  0.00  0.00     0.241 C 
ATOM      5  O4  non d ame      -5.718  12.470  66.958  0.00  0.00    -0.271 OA
ATOM      6  H19 non d ame      -8.129  10.827  68.370  0.00  0.00     0.163 HD
BRANCH   4   7
ATOM      7  C9  non d ame      -7.175  13.477  68.483  0.00  0.00     0.092 C 
ATOM      8  H11 non d ame      -7.083  14.394  67.902  0.00  0.00     0.088 H 
BRANCH   7   9
ATOM      9  N3  non d ame      -8.602  13.280  68.755  0.00  0.00    -0.346 N 
ATOM     10  C7  non d ame      -9.580  14.143  68.141  0.00  0.00     0.240 C 
ATOM     11  O3  non d ame      -9.236  15.003  67.425  0.00  0.00    -0.271 OA
ATOM     12  H10 non d ame      -8.914  12.543  69.372  0.00  0.00     0.163 HD
BRANCH  10  13
ATOM     13  C6  non d ame     -11.097  13.931  68.438  0.00  0.00     0.086 C 
ATOM     14  H6  non d ame     -11.639  13.513  67.589  0.00  0.00     0.086 H 
BRANCH  13  15
ATOM     15  N2  non d ame     -11.234  12.979  69.528  0.00  0.00    -0.343 N 
ATOM     16  C5  non d ame     -11.796  11.653  69.261  0.00  0.00     0.273 C 
ATOM     17  O2  non d ame     -12.136  11.363  68.167  0.00  0.00    -0.266 OA
ATOM     18  H5  non d ame     -10.943  13.236  70.460  0.00  0.00     0.163 HD
BRANCH  16  19
ATOM     19  C4  non d ame     -11.945  10.636  70.403  0.00  0.00     0.154 A 
ATOM     20  C1  non d ame     -11.077   9.538  70.702  0.00  0.00    -0.017 A 
ATOM     21  C2  non d ame     -11.651   8.919  71.835  0.00  0.00     0.077 A 
ATOM     22  H1  non d ame     -10.170   9.236  70.177  0.00  0.00     0.091 H 
ATOM     23  O1  non d ame     -12.721   9.591  72.144  0.00  0.00    -0.218 OA
ATOM     24  N1  non d ame     -12.914  10.598  71.322  0.00  0.00    -0.123 NA
BRANCH  21  25
ATOM     25  C3  non d ame     -11.113   7.693  72.561  0.00  0.00    -0.029 C 
ATOM     26  H2  non d ame     -11.895   6.935  72.623  0.00  0.00     0.036 H 
ATOM     27  H3  non d ame     -10.261   7.292  72.014  0.00  0.00     0.036 H 
ATOM     28  H4  non d ame     -10.800   7.974  73.567  0.00  0.00     0.036 H 
ENDBRANCH  21  25
ENDBRANCH  16  19
ENDBRANCH  13  15
BRANCH  13  29
ATOM     29  C8  non d ame     -11.727  15.246  68.819  0.00  0.00    -0.049 C 
ATOM     30  H7  non d ame     -12.294  15.124  69.742  0.00  0.00     0.030 H 
ATOM     31  H8  non d ame     -10.946  15.993  68.969  0.00  0.00     0.030 H 
ATOM     32  H9  non d ame     -12.395  15.573  68.023  0.00  0.00     0.030 H 
ENDBRANCH  13  29
ENDBRANCH  10  13
ENDBRANCH   7   9
BRANCH   7  33
ATOM     33  C11 non d ame      -6.398  13.556  69.830  0.00  0.00    -0.033 C 
ATOM     34  H12 non d ame      -7.127  13.749  70.618  0.00  0.00     0.042 H 
BRANCH  33  35
ATOM     35  C12 non d ame      -5.695  12.203  70.161  0.00  0.00    -0.071 C 
ATOM     36  H13 non d ame      -5.749  12.019  71.234  0.00  0.00     0.028 H 
ATOM     37  H14 non d ame      -6.194  11.394  69.629  0.00  0.00     0.028 H 
ATOM     38  H15 non d ame      -4.652  12.252  69.852  0.00  0.00     0.028 H 
ENDBRANCH  33  35
BRANCH  33  39
ATOM     39  C13 non d ame      -5.376  14.738  69.816  0.00  0.00    -0.071 C 
ATOM     40  H16 non d ame      -5.861  15.633  69.428  0.00  0.00     0.028 H 
ATOM     41  H17 non d ame      -5.024  14.925  70.831  0.00  0.00     0.028 H 
ATOM     42  H18 non d ame      -4.530  14.478  69.180  0.00  0.00     0.028 H 
ENDBRANCH  33  39
ENDBRANCH   7  33
ENDBRANCH   4   7
ENDBRANCH   1   3
BRANCH   1  43
ATOM     43  C15 non d ame      -7.806   9.630  65.782  0.00  0.00     0.240 C 
ATOM     44  O5  non d ame      -8.709   8.863  65.879  0.00  0.00    -0.271 OA
ATOM     45  N6  non d ame      -7.607  10.383  64.511  0.00  0.00    -0.355 N 
ATOM     46  H46 non d ame      -6.846  11.041  64.418  0.00  0.00     0.162 HD
BRANCH  45  47
ATOM     47  C20 non d ame      -8.530  10.164  63.377  0.00  0.00     0.013 C 
ATOM     48  H30 non d ame      -9.142   9.292  63.607  0.00  0.00     0.072 H 
BRANCH  47  49
ATOM     49  C21 non d ame      -7.728   9.914  62.120  0.00  0.00    -0.038 C 
ATOM     50  H31 non d ame      -8.155   9.017  61.670  0.00  0.00     0.036 H 
ATOM     51  H32 non d ame      -7.738  10.857  61.572  0.00  0.00     0.036 H 
BRANCH  49  52
ATOM     52  C22 non d ame      -6.245   9.595  62.408  0.00  0.00     0.018 C 
ATOM     53  H33 non d ame      -5.706   9.842  61.493  0.00  0.00     0.048 H 
ATOM     54  H34 non d ame      -6.007  10.113  63.338  0.00  0.00     0.048 H 
BRANCH  52  55
ATOM     55  C23 non d ame      -5.970   8.088  62.673  0.00  0.00     0.259 C 
ATOM     56  O7  non d ame      -4.855   7.682  62.736  0.00  0.00    -0.265 OA
BRANCH  55  57
ATOM     57  O8  non d ame      -7.066   7.195  62.826  0.00  0.00    -0.317 OA
BRANCH  57  58
ATOM     58  C29 non d ame      -6.959   6.329  63.960  0.00  0.00     0.052 C 
ATOM     59  H47 non d ame      -6.087   5.704  63.773  0.00  0.00     0.082 H 
ATOM     60  H48 non d ame      -6.985   6.982  64.832  0.00  0.00     0.082 H 
BRANCH  58  61
ATOM     61  C35 non d ame      -8.217   5.422  63.989  0.00  0.00    -0.034 A 
ATOM     62  C30 non d ame      -8.761   4.947  62.801  0.00  0.00    -0.075 A 
ATOM     63  C31 non d ame      -9.892   4.131  62.826  0.00  0.00    -0.082 A 
ATOM     64  H49 non d ame      -8.303   5.213  61.849  0.00  0.00     0.084 H 
ATOM     65  C32 non d ame     -10.480   3.793  64.048  0.00  0.00    -0.083 A 
ATOM     66  H50 non d ame     -10.314   3.760  61.893  0.00  0.00     0.083 H 
ATOM     67  C33 non d ame      -9.936   4.272  65.232  0.00  0.00    -0.082 A 
ATOM     68  H51 non d ame     -11.364   3.156  64.078  0.00  0.00     0.083 H 
ATOM     69  C34 non d ame      -8.804   5.085  65.210  0.00  0.00    -0.075 A 
ATOM     70  H52 non d ame     -10.398   4.008  66.184  0.00  0.00     0.083 H 
ATOM     71  H53 non d ame      -8.382   5.457  66.145  0.00  0.00     0.084 H 
ENDBRANCH  58  61
ENDBRANCH  57  58
ENDBRANCH  55  57
ENDBRANCH  52  55
ENDBRANCH  49  52
ENDBRANCH  47  49
BRANCH  47  72
ATOM     72  C24 non d ame      -9.411  11.395  63.183  0.00  0.00    -0.039 C 
ATOM     73  H35 non d ame      -8.817  12.237  63.540  0.00  0.00     0.036 H 
ATOM     74  H36 non d ame      -9.736  11.360  62.143  0.00  0.00     0.036 H 
BRANCH  72  75
ATOM     75  C25 non d ame     -10.729  11.329  64.092  0.00  0.00    -0.001 C 
ATOM     76  C26 non d ame     -12.042  11.780  63.210  0.00  0.00    -0.035 C 
ATOM     77  C27 non d ame     -12.717  12.737  63.889  0.00  0.00     0.085 C 
ATOM     78  H38 non d ame     -11.723  12.290  62.301  0.00  0.00     0.036 H 
ATOM     79  H39 non d ame     -12.754  10.957  63.152  0.00  0.00     0.036 H 
ATOM     80  N5  non d ame     -11.812  13.213  64.999  0.00  0.00    -0.049 N 
ATOM     81  H40 non d ame     -12.865  13.551  63.178  0.00  0.00     0.075 H 
ATOM     82  H41 non d ame     -13.578  12.231  64.326  0.00  0.00     0.075 H 
ATOM     83  C28 non d ame     -10.633  12.115  65.113  0.00  0.00     0.193 C 
ATOM     84  H42 non d ame     -11.409  14.085  64.687  0.00  0.00     0.280 HD
ATOM     85  H43 non d ame     -12.359  13.185  65.847  0.00  0.00     0.280 HD
ATOM     86  H44 non d ame     -10.631  11.387  65.924  0.00  0.00     0.129 H 
ATOM     87  H37 non d ame     -10.802  10.394  64.646  0.00  0.00     0.046 H 
BRANCH  83  88
ATOM     88  O6  non d ame      -9.362  12.762  65.177  0.00  0.00    -0.369 OA
ATOM     89  H45 non d ame      -8.698  12.206  64.764  0.00  0.00     0.212 HD
ENDBRANCH  83  88
ENDBRANCH  72  75
ENDBRANCH  47  72
ENDBRANCH  45  47
ENDBRANCH   1  43
BRANCH   1  90
ATOM     90  C16 non d ame      -6.830   8.606  67.861  0.00  0.00    -0.035 C 
ATOM     91  H21 non d ame      -7.118   7.787  67.202  0.00  0.00     0.037 H 
ATOM     92  H22 non d ame      -5.851   8.602  68.339  0.00  0.00     0.037 H 
BRANCH  90  93
ATOM     93  C17 non d ame      -7.884   8.638  69.012  0.00  0.00    -0.059 C 
ATOM     94  H23 non d ame      -8.510   9.518  68.862  0.00  0.00     0.038 H 
BRANCH  93  95
ATOM     95  C18 non d ame      -8.813   7.383  68.997  0.00  0.00    -0.073 C 
ATOM     96  H24 non d ame      -9.840   7.689  69.200  0.00  0.00     0.028 H 
ATOM     97  H25 non d ame      -8.765   6.907  68.018  0.00  0.00     0.028 H 
ATOM     98  H26 non d ame      -8.485   6.678  69.760  0.00  0.00     0.028 H 
ENDBRANCH  93  95
BRANCH  93  99
ATOM     99  C19 non d ame      -7.202   8.795  70.374  0.00  0.00    -0.073 C 
ATOM    100  H27 non d ame      -6.685   9.754  70.413  0.00  0.00     0.028 H 
ATOM    101  H28 non d ame      -7.952   8.753  71.163  0.00  0.00     0.028 H 
ATOM    102  H29 non d ame      -6.482   7.989  70.514  0.00  0.00     0.028 H 
ENDBRANCH  93  99
ENDBRANCH  90  93
ENDBRANCH   1  90
TORSDOF 26
ENDMDL
MODEL 11
REMARK VINA RESULT:      -6.3      3.579      6.611
REMARK  26 active torsions:
REMARK  status: ('A' for Active; 'I' for Inactive)
REMARK    1  A    between atoms: C2_2  and  C3_3 
REMARK    2  A    between atoms: C4_6  and  C5_7 
REMARK       I    between atoms: C5_7  and  N2_9 
REMARK    3  A    between atoms: N2_9  and  C6_10 
REMARK    4  A    between atoms: C6_10  and  C7_11 
REMARK    5  A    between atoms: C6_10  and  C8_13 
REMARK       I    between atoms: C7_11  and  N3_14 
REMARK    6  A    between atoms: N3_14  and  C9_15 
REMARK    7  A    between atoms: C9_15  and  C10_16 
REMARK    8  A    between atoms: C9_15  and  C11_18 
REMARK       I    between atoms: C10_16  and  N4_21 
REMARK    9  A    between atoms: C11_18  and  C12_19 
REMARK   10  A    between atoms: C11_18  and  C13_20 
REMARK   11  A    between atoms: N4_21  and  C14_22 
REMARK   12  A    between atoms: C14_22  and  C15_23 
REMARK   13  A    between atoms: C14_22  and  C16_25 
REMARK       I    between atoms: C15_23  and  N6_40 
REMARK   14  A    between atoms: C16_25  and  C17_26 
REMARK   15  A    between atoms: C17_26  and  C18_27 
REMARK   16  A    between atoms: C17_26  and  C19_28 
REMARK   17  A    between atoms: C20_29  and  C21_30 
REMARK   18  A    between atoms: C20_29  and  C24_33 
REMARK   19  A    between atoms: C20_29  and  N6_40 
REMARK   20  A    between atoms: C21_30  and  C22_31 
REMARK   21  A    between atoms: C22_31  and  C23_32 
REMARK   22  A    between atoms: C23_32  and  O8_43 
REMARK   23  A    between atoms: C24_33  and  C25_34 
REMARK   24  A    between atoms: C28_38  and  O6_39 
REMARK   25  A    between atoms: C29_42  and  O8_43 
REMARK   26  A    between atoms: C29_42  and  C35_49 
ROOT
ATOM      1  C14 non d ame      -8.134   9.689  69.486  0.00  0.00     0.089 C 
ATOM      2  H20 non d ame      -7.571   9.217  68.681  0.00  0.00     0.087 H 
ENDROOT
BRANCH   1   3
ATOM      3  N4  non d ame      -7.409  10.885  69.886  0.00  0.00    -0.346 N 
ATOM      4  C10 non d ame      -6.710  11.734  68.854  0.00  0.00     0.241 C 
ATOM      5  O4  non d ame      -6.743  11.431  67.706  0.00  0.00    -0.271 OA
ATOM      6  H19 non d ame      -7.391  11.124  70.868  0.00  0.00     0.163 HD
BRANCH   4   7
ATOM      7  C9  non d ame      -5.968  12.971  69.285  0.00  0.00     0.092 C 
ATOM      8  H11 non d ame      -5.231  13.231  68.525  0.00  0.00     0.088 H 
BRANCH   7   9
ATOM      9  N3  non d ame      -6.905  14.095  69.379  0.00  0.00    -0.346 N 
ATOM     10  C7  non d ame      -7.147  14.931  68.230  0.00  0.00     0.240 C 
ATOM     11  O3  non d ame      -6.594  14.716  67.220  0.00  0.00    -0.271 OA
ATOM     12  H10 non d ame      -7.388  14.294  70.243  0.00  0.00     0.163 HD
BRANCH  10  13
ATOM     13  C6  non d ame      -8.142  16.128  68.338  0.00  0.00     0.086 C 
ATOM     14  H6  non d ame      -8.709  16.289  67.421  0.00  0.00     0.086 H 
BRANCH  13  15
ATOM     15  N2  non d ame      -9.112  15.840  69.381  0.00  0.00    -0.343 N 
ATOM     16  C5  non d ame     -10.520  16.184  69.171  0.00  0.00     0.273 C 
ATOM     17  O2  non d ame     -10.862  16.693  68.161  0.00  0.00    -0.266 OA
ATOM     18  H5  non d ame      -8.812  15.407  70.243  0.00  0.00     0.163 HD
BRANCH  16  19
ATOM     19  C4  non d ame     -11.557  15.884  70.265  0.00  0.00     0.154 A 
ATOM     20  C1  non d ame     -12.685  15.007  70.171  0.00  0.00    -0.017 A 
ATOM     21  C2  non d ame     -13.312  15.084  71.434  0.00  0.00     0.077 A 
ATOM     22  H1  non d ame     -13.000  14.408  69.316  0.00  0.00     0.091 H 
ATOM     23  O1  non d ame     -12.617  15.909  72.162  0.00  0.00    -0.218 OA
ATOM     24  N1  non d ame     -11.589  16.390  71.501  0.00  0.00    -0.123 NA
BRANCH  21  25
ATOM     25  C3  non d ame     -14.567  14.337  71.864  0.00  0.00    -0.029 C 
ATOM     26  H2  non d ame     -15.093  13.971  70.982  0.00  0.00     0.036 H 
ATOM     27  H3  non d ame     -14.289  13.494  72.497  0.00  0.00     0.036 H 
ATOM     28  H4  non d ame     -15.218  15.010  72.423  0.00  0.00     0.036 H 
ENDBRANCH  21  25
ENDBRANCH  16  19
ENDBRANCH  13  15
BRANCH  13  29
ATOM     29  C8  non d ame      -7.385  17.388  68.670  0.00  0.00    -0.049 C 
ATOM     30  H7  non d ame      -6.903  17.771  67.771  0.00  0.00     0.030 H 
ATOM     31  H8  non d ame      -8.078  18.136  69.058  0.00  0.00     0.030 H 
ATOM     32  H9  non d ame      -6.628  17.169  69.422  0.00  0.00     0.030 H 
ENDBRANCH  13  29
ENDBRANCH  10  13
ENDBRANCH   7   9
BRANCH   7  33
ATOM     33  C11 non d ame      -5.314  12.726  70.676  0.00  0.00    -0.033 C 
ATOM     34  H12 non d ame      -5.778  11.838  71.105  0.00  0.00     0.042 H 
BRANCH  33  35
ATOM     35  C12 non d ame      -3.786  12.439  70.543  0.00  0.00    -0.071 C 
ATOM     36  H13 non d ame      -3.270  12.796  71.434  0.00  0.00     0.028 H 
ATOM     37  H14 non d ame      -3.626  11.366  70.436  0.00  0.00     0.028 H 
ATOM     38  H15 non d ame      -3.395  12.953  69.665  0.00  0.00     0.028 H 
ENDBRANCH  33  35
BRANCH  33  39
ATOM     39  C13 non d ame      -5.583  13.926  71.639  0.00  0.00    -0.071 C 
ATOM     40  H16 non d ame      -4.764  14.641  71.566  0.00  0.00     0.028 H 
ATOM     41  H17 non d ame      -6.518  14.414  71.361  0.00  0.00     0.028 H 
ATOM     42  H18 non d ame      -5.655  13.560  72.663  0.00  0.00     0.028 H 
ENDBRANCH  33  39
ENDBRANCH   7  33
ENDBRANCH   4   7
ENDBRANCH   1   3
BRANCH   1  43
ATOM     43  C15 non d ame      -9.565  10.105  69.037  0.00  0.00     0.240 C 
ATOM     44  O5  non d ame     -10.204   9.374  68.350  0.00  0.00    -0.271 OA
ATOM     45  N6  non d ame     -10.142  11.409  69.470  0.00  0.00    -0.355 N 
ATOM     46  H46 non d ame      -9.610  12.035  70.057  0.00  0.00     0.162 HD
BRANCH  45  47
ATOM     47  C20 non d ame     -11.503  11.788  69.036  0.00  0.00     0.013 C 
ATOM     48  H30 non d ame     -11.726  12.771  69.451  0.00  0.00     0.072 H 
BRANCH  47  49
ATOM     49  C21 non d ame     -12.496  10.773  69.555  0.00  0.00    -0.038 C 
ATOM     50  H31 non d ame     -13.435  10.992  69.047  0.00  0.00     0.036 H 
ATOM     51  H32 non d ame     -12.018   9.801  69.424  0.00  0.00     0.036 H 
BRANCH  49  52
ATOM     52  C22 non d ame     -12.771  10.922  71.067  0.00  0.00     0.018 C 
ATOM     53  H33 non d ame     -11.955  11.532  71.457  0.00  0.00     0.048 H 
ATOM     54  H34 non d ame     -13.800  11.273  71.147  0.00  0.00     0.048 H 
BRANCH  52  55
ATOM     55  C23 non d ame     -12.713   9.581  71.849  0.00  0.00     0.259 C 
ATOM     56  O7  non d ame     -13.692   9.134  72.352  0.00  0.00    -0.265 OA
BRANCH  55  57
ATOM     57  O8  non d ame     -11.472   8.897  71.970  0.00  0.00    -0.317 OA
BRANCH  57  58
ATOM     58  C29 non d ame     -11.573   7.606  72.578  0.00  0.00     0.052 C 
ATOM     59  H47 non d ame     -10.906   7.632  73.439  0.00  0.00     0.082 H 
ATOM     60  H48 non d ame     -12.640   7.431  72.722  0.00  0.00     0.082 H 
BRANCH  58  61
ATOM     61  C35 non d ame     -11.035   6.558  71.569  0.00  0.00    -0.034 A 
ATOM     62  C30 non d ame     -11.314   6.689  70.213  0.00  0.00    -0.075 A 
ATOM     63  C31 non d ame     -10.831   5.747  69.306  0.00  0.00    -0.082 A 
ATOM     64  H49 non d ame     -11.912   7.529  69.861  0.00  0.00     0.084 H 
ATOM     65  C32 non d ame     -10.067   4.669  69.761  0.00  0.00    -0.083 A 
ATOM     66  H50 non d ame     -11.051   5.854  68.244  0.00  0.00     0.083 H 
ATOM     67  C33 non d ame      -9.792   4.540  71.116  0.00  0.00    -0.082 A 
ATOM     68  H51 non d ame      -9.685   3.928  69.059  0.00  0.00     0.083 H 
ATOM     69  C34 non d ame     -10.272   5.481  72.025  0.00  0.00    -0.075 A 
ATOM     70  H52 non d ame      -9.198   3.697  71.468  0.00  0.00     0.083 H 
ATOM     71  H53 non d ame     -10.051   5.374  73.088  0.00  0.00     0.084 H 
ENDBRANCH  58  61
ENDBRANCH  57  58
ENDBRANCH  55  57
ENDBRANCH  52  55
ENDBRANCH  49  52
ENDBRANCH  47  49
BRANCH  47  72
ATOM     72  C24 non d ame     -11.566  11.829  67.511  0.00  0.00    -0.039 C 
ATOM     73  H35 non d ame     -10.837  11.094  67.170  0.00  0.00     0.036 H 
ATOM     74  H36 non d ame     -12.620  11.707  67.260  0.00  0.00     0.036 H 
BRANCH  72  75
ATOM     75  C25 non d ame     -11.106  13.252  66.936  0.00  0.00    -0.001 C 
ATOM     76  C26 non d ame     -12.226  13.817  65.874  0.00  0.00    -0.035 C 
ATOM     77  C27 non d ame     -11.601  14.166  64.724  0.00  0.00     0.085 C 
ATOM     78  H38 non d ame     -12.890  13.009  65.567  0.00  0.00     0.036 H 
ATOM     79  H39 non d ame     -12.642  14.758  66.234  0.00  0.00     0.036 H 
ATOM     80  N5  non d ame     -10.208  13.588  64.786  0.00  0.00    -0.049 N 
ATOM     81  H40 non d ame     -12.156  13.670  63.928  0.00  0.00     0.075 H 
ATOM     82  H41 non d ame     -11.535  15.254  64.748  0.00  0.00     0.075 H 
ATOM     83  C28 non d ame      -9.971  13.165  66.326  0.00  0.00     0.193 C 
ATOM     84  H42 non d ame     -10.220  12.751  64.221  0.00  0.00     0.280 HD
ATOM     85  H43 non d ame      -9.575  14.341  64.559  0.00  0.00     0.280 HD
ATOM     86  H44 non d ame      -9.347  13.776  66.979  0.00  0.00     0.129 H 
ATOM     87  H37 non d ame     -10.784  13.931  67.726  0.00  0.00     0.046 H 
BRANCH  83  88
ATOM     88  O6  non d ame      -9.421  11.848  66.396  0.00  0.00    -0.369 OA
ATOM     89  H45 non d ame      -9.990  11.238  65.922  0.00  0.00     0.212 HD
ENDBRANCH  83  88
ENDBRANCH  72  75
ENDBRANCH  47  72
ENDBRANCH  45  47
ENDBRANCH   1  43
BRANCH   1  90
ATOM     90  C16 non d ame      -8.226   8.743  70.673  0.00  0.00    -0.035 C 
ATOM     91  H21 non d ame      -7.683   9.238  71.479  0.00  0.00     0.037 H 
ATOM     92  H22 non d ame      -9.287   8.524  70.786  0.00  0.00     0.037 H 
BRANCH  90  93
ATOM     93  C17 non d ame      -7.514   7.373  70.439  0.00  0.00    -0.059 C 
ATOM     94  H23 non d ame      -8.152   6.594  70.855  0.00  0.00     0.038 H 
BRANCH  93  95
ATOM     95  C18 non d ame      -7.313   7.064  68.921  0.00  0.00    -0.073 C 
ATOM     96  H24 non d ame      -8.138   7.492  68.351  0.00  0.00     0.028 H 
ATOM     97  H25 non d ame      -6.374   7.502  68.583  0.00  0.00     0.028 H 
ATOM     98  H26 non d ame      -7.287   5.986  68.770  0.00  0.00     0.028 H 
ENDBRANCH  93  95
BRANCH  93  99
ATOM     99  C19 non d ame      -6.180   7.316  71.188  0.00  0.00    -0.073 C 
ATOM    100  H27 non d ame      -5.402   6.955  70.516  0.00  0.00     0.028 H 
ATOM    101  H28 non d ame      -5.921   8.312  71.545  0.00  0.00     0.028 H 
ATOM    102  H29 non d ame      -6.270   6.638  72.037  0.00  0.00     0.028 H 
ENDBRANCH  93  99
ENDBRANCH  90  93
ENDBRANCH   1  90
TORSDOF 26
ENDMDL
MODEL 12
REMARK VINA RESULT:      -6.2      3.000      8.230
REMARK  26 active torsions:
REMARK  status: ('A' for Active; 'I' for Inactive)
REMARK    1  A    between atoms: C2_2  and  C3_3 
REMARK    2  A    between atoms: C4_6  and  C5_7 
REMARK       I    between atoms: C5_7  and  N2_9 
REMARK    3  A    between atoms: N2_9  and  C6_10 
REMARK    4  A    between atoms: C6_10  and  C7_11 
REMARK    5  A    between atoms: C6_10  and  C8_13 
REMARK       I    between atoms: C7_11  and  N3_14 
REMARK    6  A    between atoms: N3_14  and  C9_15 
REMARK    7  A    between atoms: C9_15  and  C10_16 
REMARK    8  A    between atoms: C9_15  and  C11_18 
REMARK       I    between atoms: C10_16  and  N4_21 
REMARK    9  A    between atoms: C11_18  and  C12_19 
REMARK   10  A    between atoms: C11_18  and  C13_20 
REMARK   11  A    between atoms: N4_21  and  C14_22 
REMARK   12  A    between atoms: C14_22  and  C15_23 
REMARK   13  A    between atoms: C14_22  and  C16_25 
REMARK       I    between atoms: C15_23  and  N6_40 
REMARK   14  A    between atoms: C16_25  and  C17_26 
REMARK   15  A    between atoms: C17_26  and  C18_27 
REMARK   16  A    between atoms: C17_26  and  C19_28 
REMARK   17  A    between atoms: C20_29  and  C21_30 
REMARK   18  A    between atoms: C20_29  and  C24_33 
REMARK   19  A    between atoms: C20_29  and  N6_40 
REMARK   20  A    between atoms: C21_30  and  C22_31 
REMARK   21  A    between atoms: C22_31  and  C23_32 
REMARK   22  A    between atoms: C23_32  and  O8_43 
REMARK   23  A    between atoms: C24_33  and  C25_34 
REMARK   24  A    between atoms: C28_38  and  O6_39 
REMARK   25  A    between atoms: C29_42  and  O8_43 
REMARK   26  A    between atoms: C29_42  and  C35_49 
ROOT
ATOM      1  C14 non d ame      -8.667   9.452  64.339  0.00  0.00     0.089 C 
ATOM      2  H20 non d ame      -7.678   9.622  64.763  0.00  0.00     0.087 H 
ENDROOT
BRANCH   1   3
ATOM      3  N4  non d ame      -8.992   8.047  64.530  0.00  0.00    -0.346 N 
ATOM      4  C10 non d ame      -7.905   7.050  64.845  0.00  0.00     0.241 C 
ATOM      5  O4  non d ame      -6.775   7.403  64.937  0.00  0.00    -0.271 OA
ATOM      6  H19 non d ame      -9.960   7.767  64.445  0.00  0.00     0.163 HD
BRANCH   4   7
ATOM      7  C9  non d ame      -8.259   5.600  65.046  0.00  0.00     0.092 C 
ATOM      8  H11 non d ame      -7.352   4.999  64.997  0.00  0.00     0.088 H 
BRANCH   7   9
ATOM      9  N3  non d ame      -8.828   5.416  66.384  0.00  0.00    -0.346 N 
ATOM     10  C7  non d ame      -7.966   5.114  67.500  0.00  0.00     0.240 C 
ATOM     11  O3  non d ame      -6.811   5.014  67.338  0.00  0.00    -0.271 OA
ATOM     12  H10 non d ame      -9.823   5.498  66.539  0.00  0.00     0.163 HD
BRANCH  10  13
ATOM     13  C6  non d ame      -8.578   4.917  68.921  0.00  0.00     0.086 C 
ATOM     14  H6  non d ame      -7.822   4.887  69.706  0.00  0.00     0.086 H 
BRANCH  13  15
ATOM     15  N2  non d ame      -9.445   6.044  69.221  0.00  0.00    -0.343 N 
ATOM     16  C5  non d ame      -9.503   6.564  70.589  0.00  0.00     0.273 C 
ATOM     17  O2  non d ame      -8.851   6.067  71.440  0.00  0.00    -0.266 OA
ATOM     18  H5  non d ame     -10.000   6.461  68.489  0.00  0.00     0.163 HD
BRANCH  16  19
ATOM     19  C4  non d ame     -10.413   7.757  70.921  0.00  0.00     0.154 A 
ATOM     20  C1  non d ame     -11.745   7.709  71.442  0.00  0.00    -0.017 A 
ATOM     21  C2  non d ame     -12.136   9.061  71.568  0.00  0.00     0.077 A 
ATOM     22  H1  non d ame     -12.339   6.828  71.691  0.00  0.00     0.091 H 
ATOM     23  O1  non d ame     -11.137   9.792  71.165  0.00  0.00    -0.218 OA
ATOM     24  N1  non d ame     -10.120   9.053  70.782  0.00  0.00    -0.123 NA
BRANCH  21  25
ATOM     25  C3  non d ame     -13.476   9.568  72.082  0.00  0.00    -0.029 C 
ATOM     26  H2  non d ame     -13.480  10.659  72.075  0.00  0.00     0.036 H 
ATOM     27  H3  non d ame     -14.275   9.199  71.439  0.00  0.00     0.036 H 
ATOM     28  H4  non d ame     -13.635   9.211  73.100  0.00  0.00     0.036 H 
ENDBRANCH  21  25
ENDBRANCH  16  19
ENDBRANCH  13  15
BRANCH  13  29
ATOM     29  C8  non d ame      -9.369   3.634  68.957  0.00  0.00    -0.049 C 
ATOM     30  H7  non d ame      -9.616   3.330  67.939  0.00  0.00     0.030 H 
ATOM     31  H8  non d ame      -8.775   2.854  69.435  0.00  0.00     0.030 H 
ATOM     32  H9  non d ame     -10.287   3.789  69.521  0.00  0.00     0.030 H 
ENDBRANCH  13  29
ENDBRANCH  10  13
ENDBRANCH   7   9
BRANCH   7  33
ATOM     33  C11 non d ame      -9.305   5.169  63.976  0.00  0.00    -0.033 C 
ATOM     34  H12 non d ame     -10.022   5.983  63.870  0.00  0.00     0.042 H 
BRANCH  33  35
ATOM     35  C12 non d ame      -8.636   4.948  62.584  0.00  0.00    -0.071 C 
ATOM     36  H13 non d ame      -9.408   4.772  61.834  0.00  0.00     0.028 H 
ATOM     37  H14 non d ame      -8.061   5.833  62.312  0.00  0.00     0.028 H 
ATOM     38  H15 non d ame      -7.973   4.085  62.633  0.00  0.00     0.028 H 
ENDBRANCH  33  35
BRANCH  33  39
ATOM     39  C13 non d ame     -10.085   3.896  64.439  0.00  0.00    -0.071 C 
ATOM     40  H16 non d ame     -10.051   3.143  63.652  0.00  0.00     0.028 H 
ATOM     41  H17 non d ame      -9.627   3.498  65.344  0.00  0.00     0.028 H 
ATOM     42  H18 non d ame     -11.122   4.161  64.643  0.00  0.00     0.028 H 
ENDBRANCH  33  39
ENDBRANCH   7  33
ENDBRANCH   4   7
ENDBRANCH   1   3
BRANCH   1  43
ATOM     43  C15 non d ame      -9.761  10.312  65.035  0.00  0.00     0.240 C 
ATOM     44  O5  non d ame     -10.491   9.811  65.829  0.00  0.00    -0.271 OA
ATOM     45  N6  non d ame      -9.893  11.763  64.720  0.00  0.00    -0.355 N 
ATOM     46  H46 non d ame      -9.276  12.201  64.051  0.00  0.00     0.162 HD
BRANCH  45  47
ATOM     47  C20 non d ame     -10.936  12.567  65.392  0.00  0.00     0.013 C 
ATOM     48  H30 non d ame     -11.863  11.994  65.375  0.00  0.00     0.072 H 
BRANCH  47  49
ATOM     49  C21 non d ame     -11.122  13.870  64.646  0.00  0.00    -0.038 C 
ATOM     50  H31 non d ame     -10.700  13.704  63.654  0.00  0.00     0.036 H 
ATOM     51  H32 non d ame     -12.177  14.123  64.755  0.00  0.00     0.036 H 
BRANCH  49  52
ATOM     52  C22 non d ame     -10.327  15.036  65.270  0.00  0.00     0.018 C 
ATOM     53  H33 non d ame     -10.480  14.956  66.347  0.00  0.00     0.048 H 
ATOM     54  H34 non d ame      -9.321  14.963  64.856  0.00  0.00     0.048 H 
BRANCH  52  55
ATOM     55  C23 non d ame     -10.856  16.441  64.867  0.00  0.00     0.259 C 
ATOM     56  O7  non d ame     -11.606  16.562  63.954  0.00  0.00    -0.265 OA
BRANCH  55  57
ATOM     57  O8  non d ame     -10.422  17.584  65.592  0.00  0.00    -0.317 OA
BRANCH  57  58
ATOM     58  C29 non d ame     -10.099  17.320  66.960  0.00  0.00     0.052 C 
ATOM     59  H47 non d ame     -10.873  17.813  67.547  0.00  0.00     0.082 H 
ATOM     60  H48 non d ame      -9.970  16.239  67.029  0.00  0.00     0.082 H 
BRANCH  58  61
ATOM     61  C35 non d ame      -8.739  17.997  67.272  0.00  0.00    -0.034 A 
ATOM     62  C30 non d ame      -7.681  17.878  66.377  0.00  0.00    -0.075 A 
ATOM     63  C31 non d ame      -6.458  18.487  66.656  0.00  0.00    -0.082 A 
ATOM     64  H49 non d ame      -7.809  17.308  65.457  0.00  0.00     0.084 H 
ATOM     65  C32 non d ame      -6.295  19.216  67.837  0.00  0.00    -0.083 A 
ATOM     66  H50 non d ame      -5.631  18.393  65.952  0.00  0.00     0.083 H 
ATOM     67  C33 non d ame      -7.353  19.330  68.729  0.00  0.00    -0.082 A 
ATOM     68  H51 non d ame      -5.343  19.695  68.064  0.00  0.00     0.083 H 
ATOM     69  C34 non d ame      -8.578  18.725  68.452  0.00  0.00    -0.075 A 
ATOM     70  H52 non d ame      -7.222  19.897  69.651  0.00  0.00     0.083 H 
ATOM     71  H53 non d ame      -9.405  18.820  69.158  0.00  0.00     0.084 H 
ENDBRANCH  58  61
ENDBRANCH  57  58
ENDBRANCH  55  57
ENDBRANCH  52  55
ENDBRANCH  49  52
ENDBRANCH  47  49
BRANCH  47  72
ATOM     72  C24 non d ame     -10.518  12.858  66.831  0.00  0.00    -0.039 C 
ATOM     73  H35 non d ame      -9.865  12.033  67.116  0.00  0.00     0.036 H 
ATOM     74  H36 non d ame     -10.133  13.879  66.821  0.00  0.00     0.036 H 
BRANCH  72  75
ATOM     75  C25 non d ame     -11.771  12.836  67.829  0.00  0.00    -0.001 C 
ATOM     76  C26 non d ame     -11.886  14.275  68.616  0.00  0.00    -0.035 C 
ATOM     77  C27 non d ame     -11.975  14.039  69.947  0.00  0.00     0.085 C 
ATOM     78  H38 non d ame     -10.953  14.830  68.518  0.00  0.00     0.036 H 
ATOM     79  H39 non d ame     -12.835  14.757  68.378  0.00  0.00     0.036 H 
ATOM     80  N5  non d ame     -11.604  12.592  70.164  0.00  0.00    -0.049 N 
ATOM     81  H40 non d ame     -11.217  14.674  70.407  0.00  0.00     0.075 H 
ATOM     82  H41 non d ame     -13.027  14.176  70.197  0.00  0.00     0.075 H 
ATOM     83  C28 non d ame     -11.652  11.897  68.707  0.00  0.00     0.193 C 
ATOM     84  H42 non d ame     -10.648  12.588  70.490  0.00  0.00     0.280 HD
ATOM     85  H43 non d ame     -12.333  12.192  70.735  0.00  0.00     0.280 HD
ATOM     86  H44 non d ame     -12.488  11.256  68.428  0.00  0.00     0.129 H 
ATOM     87  H37 non d ame     -12.674  12.460  67.349  0.00  0.00     0.046 H 
BRANCH  83  88
ATOM     88  O6  non d ame     -10.479  11.109  68.499  0.00  0.00    -0.369 OA
ATOM     89  H45 non d ame     -10.290  11.059  67.560  0.00  0.00     0.212 HD
ENDBRANCH  83  88
ENDBRANCH  72  75
ENDBRANCH  47  72
ENDBRANCH  45  47
ENDBRANCH   1  43
BRANCH   1  90
ATOM     90  C16 non d ame      -8.648   9.759  62.849  0.00  0.00    -0.035 C 
ATOM     91  H21 non d ame      -8.969   8.839  62.361  0.00  0.00     0.037 H 
ATOM     92  H22 non d ame      -9.235  10.669  62.734  0.00  0.00     0.037 H 
BRANCH  90  93
ATOM     93  C17 non d ame      -7.224  10.079  62.294  0.00  0.00    -0.059 C 
ATOM     94  H23 non d ame      -6.888   9.211  61.726  0.00  0.00     0.038 H 
BRANCH  93  95
ATOM     95  C18 non d ame      -7.228  11.307  61.330  0.00  0.00    -0.073 C 
ATOM     96  H24 non d ame      -6.588  12.091  61.737  0.00  0.00     0.028 H 
ATOM     97  H25 non d ame      -6.851  11.004  60.353  0.00  0.00     0.028 H 
ATOM     98  H26 non d ame      -8.244  11.685  61.226  0.00  0.00     0.028 H 
ENDBRANCH  93  95
BRANCH  93  99
ATOM     99  C19 non d ame      -6.226  10.286  63.437  0.00  0.00    -0.073 C 
ATOM    100  H27 non d ame      -5.266   9.849  63.164  0.00  0.00     0.028 H 
ATOM    101  H28 non d ame      -6.101  11.353  63.621  0.00  0.00     0.028 H 
ATOM    102  H29 non d ame      -6.602   9.803  64.339  0.00  0.00     0.028 H 
ENDBRANCH  93  99
ENDBRANCH  90  93
ENDBRANCH   1  90
TORSDOF 26
ENDMDL
MODEL 13
REMARK VINA RESULT:      -6.2      2.359      9.550
REMARK  26 active torsions:
REMARK  status: ('A' for Active; 'I' for Inactive)
REMARK    1  A    between atoms: C2_2  and  C3_3 
REMARK    2  A    between atoms: C4_6  and  C5_7 
REMARK       I    between atoms: C5_7  and  N2_9 
REMARK    3  A    between atoms: N2_9  and  C6_10 
REMARK    4  A    between atoms: C6_10  and  C7_11 
REMARK    5  A    between atoms: C6_10  and  C8_13 
REMARK       I    between atoms: C7_11  and  N3_14 
REMARK    6  A    between atoms: N3_14  and  C9_15 
REMARK    7  A    between atoms: C9_15  and  C10_16 
REMARK    8  A    between atoms: C9_15  and  C11_18 
REMARK       I    between atoms: C10_16  and  N4_21 
REMARK    9  A    between atoms: C11_18  and  C12_19 
REMARK   10  A    between atoms: C11_18  and  C13_20 
REMARK   11  A    between atoms: N4_21  and  C14_22 
REMARK   12  A    between atoms: C14_22  and  C15_23 
REMARK   13  A    between atoms: C14_22  and  C16_25 
REMARK       I    between atoms: C15_23  and  N6_40 
REMARK   14  A    between atoms: C16_25  and  C17_26 
REMARK   15  A    between atoms: C17_26  and  C18_27 
REMARK   16  A    between atoms: C17_26  and  C19_28 
REMARK   17  A    between atoms: C20_29  and  C21_30 
REMARK   18  A    between atoms: C20_29  and  C24_33 
REMARK   19  A    between atoms: C20_29  and  N6_40 
REMARK   20  A    between atoms: C21_30  and  C22_31 
REMARK   21  A    between atoms: C22_31  and  C23_32 
REMARK   22  A    between atoms: C23_32  and  O8_43 
REMARK   23  A    between atoms: C24_33  and  C25_34 
REMARK   24  A    between atoms: C28_38  and  O6_39 
REMARK   25  A    between atoms: C29_42  and  O8_43 
REMARK   26  A    between atoms: C29_42  and  C35_49 
ROOT
ATOM      1  C14 non d ame     -10.139  10.297  68.699  0.00  0.00     0.089 C 
ATOM      2  H20 non d ame      -9.322  10.327  69.421  0.00  0.00     0.087 H 
ENDROOT
BRANCH   1   3
ATOM      3  N4  non d ame     -10.771   8.991  68.807  0.00  0.00    -0.346 N 
ATOM      4  C10 non d ame     -10.044   7.844  69.464  0.00  0.00     0.241 C 
ATOM      5  O4  non d ame      -8.949   7.997  69.897  0.00  0.00    -0.271 OA
ATOM      6  H19 non d ame     -11.702   8.881  68.430  0.00  0.00     0.163 HD
BRANCH   4   7
ATOM      7  C9  non d ame     -10.715   6.501  69.572  0.00  0.00     0.092 C 
ATOM      8  H11 non d ame     -11.772   6.606  69.325  0.00  0.00     0.088 H 
BRANCH   7   9
ATOM      9  N3  non d ame     -10.132   5.582  68.590  0.00  0.00    -0.346 N 
ATOM     10  C7  non d ame     -10.481   5.699  67.196  0.00  0.00     0.240 C 
ATOM     11  O3  non d ame     -11.233   6.526  66.847  0.00  0.00    -0.271 OA
ATOM     12  H10 non d ame      -9.484   4.863  68.876  0.00  0.00     0.163 HD
BRANCH  10  13
ATOM     13  C6  non d ame      -9.859   4.716  66.156  0.00  0.00     0.086 C 
ATOM     14  H6  non d ame     -10.598   4.052  65.709  0.00  0.00     0.086 H 
BRANCH  13  15
ATOM     15  N2  non d ame      -9.280   5.487  65.068  0.00  0.00    -0.343 N 
ATOM     16  C5  non d ame      -8.255   6.491  65.362  0.00  0.00     0.273 C 
ATOM     17  O2  non d ame      -7.906   6.673  66.476  0.00  0.00    -0.266 OA
ATOM     18  H5  non d ame      -9.585   5.327  64.119  0.00  0.00     0.163 HD
BRANCH  16  19
ATOM     19  C4  non d ame      -7.632   7.311  64.222  0.00  0.00     0.154 A 
ATOM     20  C1  non d ame      -8.311   8.188  63.316  0.00  0.00    -0.017 A 
ATOM     21  C2  non d ame      -7.298   8.691  62.469  0.00  0.00     0.077 A 
ATOM     22  H1  non d ame      -9.375   8.422  63.279  0.00  0.00     0.091 H 
ATOM     23  O1  non d ame      -6.173   8.161  62.853  0.00  0.00    -0.218 OA
ATOM     24  N1  non d ame      -6.343   7.352  63.874  0.00  0.00    -0.123 NA
BRANCH  21  25
ATOM     25  C3  non d ame      -7.488   9.674  61.322  0.00  0.00    -0.029 C 
ATOM     26  H2  non d ame      -8.251   9.294  60.640  0.00  0.00     0.036 H 
ATOM     27  H3  non d ame      -7.804  10.638  61.719  0.00  0.00     0.036 H 
ATOM     28  H4  non d ame      -6.547   9.793  60.784  0.00  0.00     0.036 H 
ENDBRANCH  21  25
ENDBRANCH  16  19
ENDBRANCH  13  15
BRANCH  13  29
ATOM     29  C8  non d ame      -8.794   3.883  66.822  0.00  0.00    -0.049 C 
ATOM     30  H7  non d ame      -9.249   3.260  67.592  0.00  0.00     0.030 H 
ATOM     31  H8  non d ame      -8.313   3.247  66.078  0.00  0.00     0.030 H 
ATOM     32  H9  non d ame      -8.052   4.537  67.277  0.00  0.00     0.030 H 
ENDBRANCH  13  29
ENDBRANCH  10  13
ENDBRANCH   7   9
BRANCH   7  33
ATOM     33  C11 non d ame     -10.504   5.928  71.004  0.00  0.00    -0.033 C 
ATOM     34  H12 non d ame      -9.679   6.477  71.459  0.00  0.00     0.042 H 
BRANCH  33  35
ATOM     35  C12 non d ame     -11.764   6.150  71.897  0.00  0.00    -0.071 C 
ATOM     36  H13 non d ame     -12.663   6.015  71.296  0.00  0.00     0.028 H 
ATOM     37  H14 non d ame     -11.762   5.430  72.715  0.00  0.00     0.028 H 
ATOM     38  H15 non d ame     -11.746   7.161  72.304  0.00  0.00     0.028 H 
ENDBRANCH  33  35
BRANCH  33  39
ATOM     39  C13 non d ame     -10.108   4.418  70.949  0.00  0.00    -0.071 C 
ATOM     40  H16 non d ame      -9.318   4.223  71.674  0.00  0.00     0.028 H 
ATOM     41  H17 non d ame     -10.978   3.804  71.184  0.00  0.00     0.028 H 
ATOM     42  H18 non d ame      -9.750   4.173  69.949  0.00  0.00     0.028 H 
ENDBRANCH  33  39
ENDBRANCH   7  33
ENDBRANCH   4   7
ENDBRANCH   1   3
BRANCH   1  43
ATOM     43  C15 non d ame     -11.210  11.390  68.978  0.00  0.00     0.240 C 
ATOM     44  O5  non d ame     -12.361  11.093  69.017  0.00  0.00    -0.271 OA
ATOM     45  N6  non d ame     -10.802  12.805  69.205  0.00  0.00    -0.355 N 
ATOM     46  H46 non d ame      -9.827  13.069  69.179  0.00  0.00     0.162 HD
BRANCH  45  47
ATOM     47  C20 non d ame     -11.832  13.832  69.470  0.00  0.00     0.013 C 
ATOM     48  H30 non d ame     -12.777  13.320  69.654  0.00  0.00     0.072 H 
BRANCH  47  49
ATOM     49  C21 non d ame     -11.961  14.735  68.264  0.00  0.00    -0.038 C 
ATOM     50  H31 non d ame     -11.468  14.208  67.447  0.00  0.00     0.036 H 
ATOM     51  H32 non d ame     -13.021  14.982  68.194  0.00  0.00     0.036 H 
BRANCH  49  52
ATOM     52  C22 non d ame     -11.212  16.074  68.435  0.00  0.00     0.018 C 
ATOM     53  H33 non d ame     -11.986  16.841  68.492  0.00  0.00     0.048 H 
ATOM     54  H34 non d ame     -10.529  15.926  69.273  0.00  0.00     0.048 H 
BRANCH  52  55
ATOM     55  C23 non d ame     -10.323  16.454  67.219  0.00  0.00     0.259 C 
ATOM     56  O7  non d ame      -9.432  17.229  67.343  0.00  0.00    -0.265 OA
BRANCH  55  57
ATOM     57  O8  non d ame     -10.595  15.875  65.948  0.00  0.00    -0.317 OA
BRANCH  57  58
ATOM     58  C29 non d ame      -9.731  14.788  65.606  0.00  0.00     0.052 C 
ATOM     59  H47 non d ame      -9.011  15.195  64.897  0.00  0.00     0.082 H 
ATOM     60  H48 non d ame      -9.388  14.374  66.554  0.00  0.00     0.082 H 
BRANCH  58  61
ATOM     61  C35 non d ame     -10.581  13.711  64.880  0.00  0.00    -0.034 A 
ATOM     62  C30 non d ame     -11.968  13.809  64.870  0.00  0.00    -0.075 A 
ATOM     63  C31 non d ame     -12.732  12.842  64.218  0.00  0.00    -0.082 A 
ATOM     64  H49 non d ame     -12.457  14.642  65.374  0.00  0.00     0.084 H 
ATOM     65  C32 non d ame     -12.103  11.773  63.575  0.00  0.00    -0.083 A 
ATOM     66  H50 non d ame     -13.819  12.922  64.212  0.00  0.00     0.083 H 
ATOM     67  C33 non d ame     -10.718  11.677  63.589  0.00  0.00    -0.082 A 
ATOM     68  H51 non d ame     -12.692  11.012  63.063  0.00  0.00     0.083 H 
ATOM     69  C34 non d ame      -9.951  12.643  64.238  0.00  0.00    -0.075 A 
ATOM     70  H52 non d ame     -10.230  10.841  63.089  0.00  0.00     0.083 H 
ATOM     71  H53 non d ame      -8.863  12.562  64.244  0.00  0.00     0.084 H 
ENDBRANCH  58  61
ENDBRANCH  57  58
ENDBRANCH  55  57
ENDBRANCH  52  55
ENDBRANCH  49  52
ENDBRANCH  47  49
BRANCH  47  72
ATOM     72  C24 non d ame     -11.433  14.662  70.688  0.00  0.00    -0.039 C 
ATOM     73  H35 non d ame     -10.469  14.266  71.006  0.00  0.00     0.036 H 
ATOM     74  H36 non d ame     -11.517  15.702  70.372  0.00  0.00     0.036 H 
BRANCH  72  75
ATOM     75  C25 non d ame     -12.453  14.455  71.906  0.00  0.00    -0.001 C 
ATOM     76  C26 non d ame     -13.893  13.894  71.343  0.00  0.00    -0.035 C 
ATOM     77  C27 non d ame     -14.886  14.675  71.829  0.00  0.00     0.085 C 
ATOM     78  H38 non d ame     -13.956  14.044  70.265  0.00  0.00     0.036 H 
ATOM     79  H39 non d ame     -14.106  12.914  71.771  0.00  0.00     0.036 H 
ATOM     80  N5  non d ame     -14.236  15.909  72.406  0.00  0.00    -0.049 N 
ATOM     81  H40 non d ame     -15.484  14.961  70.963  0.00  0.00     0.075 H 
ATOM     82  H41 non d ame     -15.338  14.102  72.639  0.00  0.00     0.075 H 
ATOM     83  C28 non d ame     -12.663  15.564  72.533  0.00  0.00     0.193 C 
ATOM     84  H42 non d ame     -14.350  16.641  71.719  0.00  0.00     0.280 HD
ATOM     85  H43 non d ame     -14.615  16.026  73.335  0.00  0.00     0.280 HD
ATOM     86  H44 non d ame     -12.225  15.330  73.504  0.00  0.00     0.129 H 
ATOM     87  H37 non d ame     -12.001  13.913  72.737  0.00  0.00     0.046 H 
BRANCH  83  88
ATOM     88  O6  non d ame     -11.880  16.637  72.009  0.00  0.00    -0.369 OA
ATOM     89  H45 non d ame     -12.200  16.869  71.134  0.00  0.00     0.212 HD
ENDBRANCH  83  88
ENDBRANCH  72  75
ENDBRANCH  47  72
ENDBRANCH  45  47
ENDBRANCH   1  43
BRANCH   1  90
ATOM     90  C16 non d ame      -9.589  10.468  67.292  0.00  0.00    -0.035 C 
ATOM     91  H21 non d ame     -10.102   9.719  66.689  0.00  0.00     0.037 H 
ATOM     92  H22 non d ame      -9.708  11.526  67.062  0.00  0.00     0.037 H 
BRANCH  90  93
ATOM     93  C17 non d ame      -8.063  10.159  67.174  0.00  0.00    -0.059 C 
ATOM     94  H23 non d ame      -7.942   9.076  67.205  0.00  0.00     0.038 H 
BRANCH  93  95
ATOM     95  C18 non d ame      -7.459  10.668  65.827  0.00  0.00    -0.073 C 
ATOM     96  H24 non d ame      -7.473  11.758  65.811  0.00  0.00     0.028 H 
ATOM     97  H25 non d ame      -6.431  10.317  65.733  0.00  0.00     0.028 H 
ATOM     98  H26 non d ame      -8.050  10.285  64.995  0.00  0.00     0.028 H 
ENDBRANCH  93  95
BRANCH  93  99
ATOM     99  C19 non d ame      -7.295  10.734  68.367  0.00  0.00    -0.073 C 
ATOM    100  H27 non d ame      -6.509  11.398  68.007  0.00  0.00     0.028 H 
ATOM    101  H28 non d ame      -7.980  11.294  69.004  0.00  0.00     0.028 H 
ATOM    102  H29 non d ame      -6.850   9.921  68.939  0.00  0.00     0.028 H 
ENDBRANCH  93  99
ENDBRANCH  90  93
ENDBRANCH   1  90
TORSDOF 26
ENDMDL
MODEL 14
REMARK VINA RESULT:      -6.2      2.826      6.802
REMARK  26 active torsions:
REMARK  status: ('A' for Active; 'I' for Inactive)
REMARK    1  A    between atoms: C2_2  and  C3_3 
REMARK    2  A    between atoms: C4_6  and  C5_7 
REMARK       I    between atoms: C5_7  and  N2_9 
REMARK    3  A    between atoms: N2_9  and  C6_10 
REMARK    4  A    between atoms: C6_10  and  C7_11 
REMARK    5  A    between atoms: C6_10  and  C8_13 
REMARK       I    between atoms: C7_11  and  N3_14 
REMARK    6  A    between atoms: N3_14  and  C9_15 
REMARK    7  A    between atoms: C9_15  and  C10_16 
REMARK    8  A    between atoms: C9_15  and  C11_18 
REMARK       I    between atoms: C10_16  and  N4_21 
REMARK    9  A    between atoms: C11_18  and  C12_19 
REMARK   10  A    between atoms: C11_18  and  C13_20 
REMARK   11  A    between atoms: N4_21  and  C14_22 
REMARK   12  A    between atoms: C14_22  and  C15_23 
REMARK   13  A    between atoms: C14_22  and  C16_25 
REMARK       I    between atoms: C15_23  and  N6_40 
REMARK   14  A    between atoms: C16_25  and  C17_26 
REMARK   15  A    between atoms: C17_26  and  C18_27 
REMARK   16  A    between atoms: C17_26  and  C19_28 
REMARK   17  A    between atoms: C20_29  and  C21_30 
REMARK   18  A    between atoms: C20_29  and  C24_33 
REMARK   19  A    between atoms: C20_29  and  N6_40 
REMARK   20  A    between atoms: C21_30  and  C22_31 
REMARK   21  A    between atoms: C22_31  and  C23_32 
REMARK   22  A    between atoms: C23_32  and  O8_43 
REMARK   23  A    between atoms: C24_33  and  C25_34 
REMARK   24  A    between atoms: C28_38  and  O6_39 
REMARK   25  A    between atoms: C29_42  and  O8_43 
REMARK   26  A    between atoms: C29_42  and  C35_49 
ROOT
ATOM      1  C14 non d ame      -6.247  11.417  69.435  0.00  0.00     0.089 C 
ATOM      2  H20 non d ame      -5.479  11.327  68.667  0.00  0.00     0.087 H 
ENDROOT
BRANCH   1   3
ATOM      3  N4  non d ame      -7.169  12.461  69.015  0.00  0.00    -0.346 N 
ATOM      4  C10 non d ame      -6.979  13.158  67.691  0.00  0.00     0.241 C 
ATOM      5  O4  non d ame      -6.074  12.861  66.982  0.00  0.00    -0.271 OA
ATOM      6  H19 non d ame      -7.931  12.700  69.635  0.00  0.00     0.163 HD
BRANCH   4   7
ATOM      7  C9  non d ame      -7.946  14.232  67.269  0.00  0.00     0.092 C 
ATOM      8  H11 non d ame      -7.849  14.401  66.197  0.00  0.00     0.088 H 
BRANCH   7   9
ATOM      9  N3  non d ame      -9.319  13.778  67.513  0.00  0.00    -0.346 N 
ATOM     10  C7  non d ame     -10.357  14.074  66.557  0.00  0.00     0.240 C 
ATOM     11  O3  non d ame     -10.106  14.678  65.586  0.00  0.00    -0.271 OA
ATOM     12  H10 non d ame      -9.550  13.258  68.347  0.00  0.00     0.163 HD
BRANCH  10  13
ATOM     13  C6  non d ame     -11.816  13.591  66.825  0.00  0.00     0.086 C 
ATOM     14  H6  non d ame     -11.904  12.504  66.845  0.00  0.00     0.086 H 
BRANCH  13  15
ATOM     15  N2  non d ame     -12.238  14.067  68.131  0.00  0.00    -0.343 N 
ATOM     16  C5  non d ame     -11.982  13.244  69.316  0.00  0.00     0.273 C 
ATOM     17  O2  non d ame     -11.438  12.200  69.206  0.00  0.00    -0.266 OA
ATOM     18  H5  non d ame     -12.703  14.959  68.216  0.00  0.00     0.163 HD
BRANCH  16  19
ATOM     19  C4  non d ame     -12.420  13.736  70.704  0.00  0.00     0.154 A 
ATOM     20  C1  non d ame     -12.079  14.977  71.329  0.00  0.00    -0.017 A 
ATOM     21  C2  non d ame     -12.727  14.943  72.584  0.00  0.00     0.077 A 
ATOM     22  H1  non d ame     -11.457  15.780  70.932  0.00  0.00     0.091 H 
ATOM     23  O1  non d ame     -13.364  13.811  72.660  0.00  0.00    -0.218 OA
ATOM     24  N1  non d ame     -13.199  13.089  71.575  0.00  0.00    -0.123 NA
BRANCH  21  25
ATOM     25  C3  non d ame     -12.689  16.032  73.648  0.00  0.00    -0.029 C 
ATOM     26  H2  non d ame     -12.569  15.575  74.631  0.00  0.00     0.036 H 
ATOM     27  H3  non d ame     -11.851  16.700  73.453  0.00  0.00     0.036 H 
ATOM     28  H4  non d ame     -13.619  16.599  73.622  0.00  0.00     0.036 H 
ENDBRANCH  21  25
ENDBRANCH  16  19
ENDBRANCH  13  15
BRANCH  13  29
ATOM     29  C8  non d ame     -12.732  14.134  65.758  0.00  0.00    -0.049 C 
ATOM     30  H7  non d ame     -12.558  15.203  65.638  0.00  0.00     0.030 H 
ATOM     31  H8  non d ame     -12.531  13.625  64.814  0.00  0.00     0.030 H 
ATOM     32  H9  non d ame     -13.768  13.965  66.048  0.00  0.00     0.030 H 
ENDBRANCH  13  29
ENDBRANCH  10  13
ENDBRANCH   7   9
BRANCH   7  33
ATOM     33  C11 non d ame      -7.676  15.526  68.092  0.00  0.00    -0.033 C 
ATOM     34  H12 non d ame      -6.707  15.410  68.577  0.00  0.00     0.042 H 
BRANCH  33  35
ATOM     35  C12 non d ame      -7.590  16.780  67.167  0.00  0.00    -0.071 C 
ATOM     36  H13 non d ame      -8.364  17.493  67.451  0.00  0.00     0.028 H 
ATOM     37  H14 non d ame      -6.611  17.245  67.276  0.00  0.00     0.028 H 
ATOM     38  H15 non d ame      -7.736  16.477  66.131  0.00  0.00     0.028 H 
ENDBRANCH  33  35
BRANCH  33  39
ATOM     39  C13 non d ame      -8.755  15.715  69.206  0.00  0.00    -0.071 C 
ATOM     40  H16 non d ame      -9.629  16.211  68.784  0.00  0.00     0.028 H 
ATOM     41  H17 non d ame      -9.044  14.742  69.602  0.00  0.00     0.028 H 
ATOM     42  H18 non d ame      -8.343  16.327  70.008  0.00  0.00     0.028 H 
ENDBRANCH  33  39
ENDBRANCH   7  33
ENDBRANCH   4   7
ENDBRANCH   1   3
BRANCH   1  43
ATOM     43  C15 non d ame      -7.047  10.096  69.624  0.00  0.00     0.240 C 
ATOM     44  O5  non d ame      -6.548   9.179  70.193  0.00  0.00    -0.271 OA
ATOM     45  N6  non d ame      -8.438   9.977  69.104  0.00  0.00    -0.355 N 
ATOM     46  H46 non d ame      -8.874  10.751  68.623  0.00  0.00     0.162 HD
BRANCH  45  47
ATOM     47  C20 non d ame      -9.186   8.715  69.293  0.00  0.00     0.013 C 
ATOM     48  H30 non d ame      -8.673   8.133  70.058  0.00  0.00     0.072 H 
BRANCH  47  49
ATOM     49  C21 non d ame      -9.209   7.948  67.990  0.00  0.00    -0.038 C 
ATOM     50  H31 non d ame      -8.244   8.136  67.520  0.00  0.00     0.036 H 
ATOM     51  H32 non d ame      -9.499   6.930  68.254  0.00  0.00     0.036 H 
BRANCH  49  52
ATOM     52  C22 non d ame     -10.282   8.466  67.008  0.00  0.00     0.018 C 
ATOM     53  H33 non d ame     -10.546   7.613  66.381  0.00  0.00     0.048 H 
ATOM     54  H34 non d ame     -11.042   8.944  67.626  0.00  0.00     0.048 H 
BRANCH  52  55
ATOM     55  C23 non d ame      -9.764   9.565  66.038  0.00  0.00     0.259 C 
ATOM     56  O7  non d ame      -9.719  10.700  66.384  0.00  0.00    -0.265 OA
BRANCH  55  57
ATOM     57  O8  non d ame      -9.358   9.201  64.725  0.00  0.00    -0.317 OA
BRANCH  57  58
ATOM     58  C29 non d ame      -8.040   9.638  64.380  0.00  0.00     0.052 C 
ATOM     59  H47 non d ame      -8.161  10.280  63.509  0.00  0.00     0.082 H 
ATOM     60  H48 non d ame      -7.613  10.040  65.299  0.00  0.00     0.082 H 
BRANCH  58  61
ATOM     61  C35 non d ame      -7.217   8.391  63.961  0.00  0.00    -0.034 A 
ATOM     62  C30 non d ame      -7.697   7.115  64.235  0.00  0.00    -0.075 A 
ATOM     63  C31 non d ame      -6.957   5.995  63.859  0.00  0.00    -0.082 A 
ATOM     64  H49 non d ame      -8.652   6.992  64.745  0.00  0.00     0.084 H 
ATOM     65  C32 non d ame      -5.731   6.154  63.208  0.00  0.00    -0.083 A 
ATOM     66  H50 non d ame      -7.337   4.996  64.074  0.00  0.00     0.083 H 
ATOM     67  C33 non d ame      -5.254   7.430  62.939  0.00  0.00    -0.082 A 
ATOM     68  H51 non d ame      -5.147   5.284  62.910  0.00  0.00     0.083 H 
ATOM     69  C34 non d ame      -5.992   8.552  63.311  0.00  0.00    -0.075 A 
ATOM     70  H52 non d ame      -4.296   7.552  62.432  0.00  0.00     0.083 H 
ATOM     71  H53 non d ame      -5.611   9.552  63.095  0.00  0.00     0.084 H 
ENDBRANCH  58  61
ENDBRANCH  57  58
ENDBRANCH  55  57
ENDBRANCH  52  55
ENDBRANCH  49  52
ENDBRANCH  47  49
BRANCH  47  72
ATOM     72  C24 non d ame     -10.616   9.023  69.729  0.00  0.00    -0.039 C 
ATOM     73  H35 non d ame     -10.627  10.088  69.961  0.00  0.00     0.036 H 
ATOM     74  H36 non d ame     -11.253   8.633  68.934  0.00  0.00     0.036 H 
BRANCH  72  75
ATOM     75  C25 non d ame     -11.007   8.243  71.073  0.00  0.00    -0.001 C 
ATOM     76  C26 non d ame     -11.886   6.902  70.708  0.00  0.00    -0.035 C 
ATOM     77  C27 non d ame     -13.015   6.903  71.455  0.00  0.00     0.085 C 
ATOM     78  H38 non d ame     -12.257   6.966  69.685  0.00  0.00     0.036 H 
ATOM     79  H39 non d ame     -11.359   6.007  71.041  0.00  0.00     0.036 H 
ATOM     80  N5  non d ame     -13.145   8.281  72.056  0.00  0.00    -0.049 N 
ATOM     81  H40 non d ame     -13.832   6.744  70.750  0.00  0.00     0.075 H 
ATOM     82  H41 non d ame     -12.836   6.183  72.254  0.00  0.00     0.075 H 
ATOM     83  C28 non d ame     -11.708   8.990  71.860  0.00  0.00     0.193 C 
ATOM     84  H42 non d ame     -13.826   8.775  71.496  0.00  0.00     0.280 HD
ATOM     85  H43 non d ame     -13.306   8.149  73.044  0.00  0.00     0.280 HD
ATOM     86  H44 non d ame     -11.021   9.091  72.701  0.00  0.00     0.129 H 
ATOM     87  H37 non d ame     -10.152   8.110  71.736  0.00  0.00     0.046 H 
BRANCH  83  88
ATOM     88  O6  non d ame     -11.876  10.310  71.342  0.00  0.00    -0.369 OA
ATOM     89  H45 non d ame     -11.155  10.867  71.645  0.00  0.00     0.212 HD
ENDBRANCH  83  88
ENDBRANCH  72  75
ENDBRANCH  47  72
ENDBRANCH  45  47
ENDBRANCH   1  43
BRANCH   1  90
ATOM     90  C16 non d ame      -5.608  11.821  70.756  0.00  0.00    -0.035 C 
ATOM     91  H21 non d ame      -6.369  11.635  71.513  0.00  0.00     0.037 H 
ATOM     92  H22 non d ame      -4.660  11.284  70.793  0.00  0.00     0.037 H 
BRANCH  90  93
ATOM     93  C17 non d ame      -5.259  13.340  70.844  0.00  0.00    -0.059 C 
ATOM     94  H23 non d ame      -6.038  13.889  70.315  0.00  0.00     0.038 H 
BRANCH  93  95
ATOM     95  C18 non d ame      -5.230  13.854  72.318  0.00  0.00    -0.073 C 
ATOM     96  H24 non d ame      -4.544  14.699  72.395  0.00  0.00     0.028 H 
ATOM     97  H25 non d ame      -6.230  14.172  72.612  0.00  0.00     0.028 H 
ATOM     98  H26 non d ame      -4.895  13.053  72.976  0.00  0.00     0.028 H 
ENDBRANCH  93  95
BRANCH  93  99
ATOM     99  C19 non d ame      -3.934  13.638  70.136  0.00  0.00    -0.073 C 
ATOM    100  H27 non d ame      -3.763  12.894  69.358  0.00  0.00     0.028 H 
ATOM    101  H28 non d ame      -3.978  14.631  69.687  0.00  0.00     0.028 H 
ATOM    102  H29 non d ame      -3.120  13.602  70.859  0.00  0.00     0.028 H 
ENDBRANCH  93  99
ENDBRANCH  90  93
ENDBRANCH   1  90
TORSDOF 26
ENDMDL
MODEL 15
REMARK VINA RESULT:      -6.2      2.798      5.042
REMARK  26 active torsions:
REMARK  status: ('A' for Active; 'I' for Inactive)
REMARK    1  A    between atoms: C2_2  and  C3_3 
REMARK    2  A    between atoms: C4_6  and  C5_7 
REMARK       I    between atoms: C5_7  and  N2_9 
REMARK    3  A    between atoms: N2_9  and  C6_10 
REMARK    4  A    between atoms: C6_10  and  C7_11 
REMARK    5  A    between atoms: C6_10  and  C8_13 
REMARK       I    between atoms: C7_11  and  N3_14 
REMARK    6  A    between atoms: N3_14  and  C9_15 
REMARK    7  A    between atoms: C9_15  and  C10_16 
REMARK    8  A    between atoms: C9_15  and  C11_18 
REMARK       I    between atoms: C10_16  and  N4_21 
REMARK    9  A    between atoms: C11_18  and  C12_19 
REMARK   10  A    between atoms: C11_18  and  C13_20 
REMARK   11  A    between atoms: N4_21  and  C14_22 
REMARK   12  A    between atoms: C14_22  and  C15_23 
REMARK   13  A    between atoms: C14_22  and  C16_25 
REMARK       I    between atoms: C15_23  and  N6_40 
REMARK   14  A    between atoms: C16_25  and  C17_26 
REMARK   15  A    between atoms: C17_26  and  C18_27 
REMARK   16  A    between atoms: C17_26  and  C19_28 
REMARK   17  A    between atoms: C20_29  and  C21_30 
REMARK   18  A    between atoms: C20_29  and  C24_33 
REMARK   19  A    between atoms: C20_29  and  N6_40 
REMARK   20  A    between atoms: C21_30  and  C22_31 
REMARK   21  A    between atoms: C22_31  and  C23_32 
REMARK   22  A    between atoms: C23_32  and  O8_43 
REMARK   23  A    between atoms: C24_33  and  C25_34 
REMARK   24  A    between atoms: C28_38  and  O6_39 
REMARK   25  A    between atoms: C29_42  and  O8_43 
REMARK   26  A    between atoms: C29_42  and  C35_49 
ROOT
ATOM      1  C14 non d ame      -8.902   6.823  66.123  0.00  0.00     0.089 C 
ATOM      2  H20 non d ame      -9.582   6.733  65.276  0.00  0.00     0.087 H 
ENDROOT
BRANCH   1   3
ATOM      3  N4  non d ame      -8.428   8.198  66.161  0.00  0.00    -0.346 N 
ATOM      4  C10 non d ame      -8.731   9.140  65.023  0.00  0.00     0.241 C 
ATOM      5  O4  non d ame      -9.357   8.767  64.086  0.00  0.00    -0.271 OA
ATOM      6  H19 non d ame      -7.894   8.495  66.966  0.00  0.00     0.163 HD
BRANCH   4   7
ATOM      7  C9  non d ame      -8.237  10.561  65.080  0.00  0.00     0.092 C 
ATOM      8  H11 non d ame      -7.856  10.849  64.101  0.00  0.00     0.088 H 
BRANCH   7   9
ATOM      9  N3  non d ame      -9.357  11.456  65.387  0.00  0.00    -0.346 N 
ATOM     10  C7  non d ame     -10.090  12.088  64.318  0.00  0.00     0.240 C 
ATOM     11  O3  non d ame      -9.792  11.888  63.204  0.00  0.00    -0.271 OA
ATOM     12  H10 non d ame      -9.625  11.640  66.344  0.00  0.00     0.163 HD
BRANCH  10  13
ATOM     13  C6  non d ame     -11.279  13.041  64.652  0.00  0.00     0.086 C 
ATOM     14  H6  non d ame     -11.749  12.811  65.608  0.00  0.00     0.086 H 
BRANCH  13  15
ATOM     15  N2  non d ame     -10.777  14.402  64.752  0.00  0.00    -0.343 N 
ATOM     16  C5  non d ame     -10.317  14.907  66.048  0.00  0.00     0.273 C 
ATOM     17  O2  non d ame     -10.358  14.212  67.003  0.00  0.00    -0.266 OA
ATOM     18  H5  non d ame     -10.748  14.990  63.932  0.00  0.00     0.163 HD
BRANCH  16  19
ATOM     19  C4  non d ame      -9.782  16.342  66.169  0.00  0.00     0.154 A 
ATOM     20  C1  non d ame     -10.482  17.487  66.667  0.00  0.00    -0.017 A 
ATOM     21  C2  non d ame      -9.557  18.551  66.568  0.00  0.00     0.077 A 
ATOM     22  H1  non d ame     -11.505  17.539  67.042  0.00  0.00     0.091 H 
ATOM     23  O1  non d ame      -8.457  18.063  66.073  0.00  0.00    -0.218 OA
ATOM     24  N1  non d ame      -8.564  16.776  65.831  0.00  0.00    -0.123 NA
BRANCH  21  25
ATOM     25  C3  non d ame      -9.802  19.998  66.970  0.00  0.00    -0.029 C 
ATOM     26  H2  non d ame     -10.418  20.028  67.870  0.00  0.00     0.036 H 
ATOM     27  H3  non d ame      -8.848  20.487  67.167  0.00  0.00     0.036 H 
ATOM     28  H4  non d ame     -10.316  20.519  66.161  0.00  0.00     0.036 H 
ENDBRANCH  21  25
ENDBRANCH  16  19
ENDBRANCH  13  15
BRANCH  13  29
ATOM     29  C8  non d ame     -12.318  12.954  63.564  0.00  0.00    -0.049 C 
ATOM     30  H7  non d ame     -11.870  13.232  62.610  0.00  0.00     0.030 H 
ATOM     31  H8  non d ame     -12.697  11.933  63.504  0.00  0.00     0.030 H 
ATOM     32  H9  non d ame     -13.139  13.634  63.790  0.00  0.00     0.030 H 
ENDBRANCH  13  29
ENDBRANCH  10  13
ENDBRANCH   7   9
BRANCH   7  33
ATOM     33  C11 non d ame      -7.154  10.690  66.191  0.00  0.00    -0.033 C 
ATOM     34  H12 non d ame      -7.234   9.811  66.831  0.00  0.00     0.042 H 
BRANCH  33  35
ATOM     35  C12 non d ame      -5.716  10.700  65.584  0.00  0.00    -0.071 C 
ATOM     36  H13 non d ame      -5.645   9.940  64.806  0.00  0.00     0.028 H 
ATOM     37  H14 non d ame      -5.510  11.680  65.155  0.00  0.00     0.028 H 
ATOM     38  H15 non d ame      -4.990  10.487  66.369  0.00  0.00     0.028 H 
ENDBRANCH  33  35
BRANCH  33  39
ATOM     39  C13 non d ame      -7.405  11.954  67.073  0.00  0.00    -0.071 C 
ATOM     40  H16 non d ame      -8.324  11.822  67.644  0.00  0.00     0.028 H 
ATOM     41  H17 non d ame      -6.568  12.093  67.758  0.00  0.00     0.028 H 
ATOM     42  H18 non d ame      -7.499  12.831  66.432  0.00  0.00     0.028 H 
ENDBRANCH  33  39
ENDBRANCH   7  33
ENDBRANCH   4   7
ENDBRANCH   1   3
BRANCH   1  43
ATOM     43  C15 non d ame      -9.602   6.504  67.475  0.00  0.00     0.240 C 
ATOM     44  O5  non d ame     -10.447   5.667  67.521  0.00  0.00    -0.271 OA
ATOM     45  N6  non d ame      -9.214   7.233  68.716  0.00  0.00    -0.355 N 
ATOM     46  H46 non d ame      -8.495   7.942  68.690  0.00  0.00     0.162 HD
BRANCH  45  47
ATOM     47  C20 non d ame      -9.888   6.917  69.993  0.00  0.00     0.013 C 
ATOM     48  H30 non d ame     -10.243   5.888  69.939  0.00  0.00     0.072 H 
BRANCH  47  49
ATOM     49  C21 non d ame     -11.056   7.856  70.189  0.00  0.00    -0.038 C 
ATOM     50  H31 non d ame     -11.578   7.881  69.232  0.00  0.00     0.036 H 
ATOM     51  H32 non d ame     -11.572   7.502  71.082  0.00  0.00     0.036 H 
BRANCH  49  52
ATOM     52  C22 non d ame     -10.617   9.306  70.485  0.00  0.00     0.018 C 
ATOM     53  H33 non d ame     -11.267   9.654  71.289  0.00  0.00     0.048 H 
ATOM     54  H34 non d ame      -9.538   9.262  70.638  0.00  0.00     0.048 H 
BRANCH  52  55
ATOM     55  C23 non d ame     -10.843  10.284  69.299  0.00  0.00     0.259 C 
ATOM     56  O7  non d ame     -10.358  10.064  68.236  0.00  0.00    -0.265 OA
BRANCH  55  57
ATOM     57  O8  non d ame     -11.627  11.454  69.499  0.00  0.00    -0.317 OA
BRANCH  57  58
ATOM     58  C29 non d ame     -12.387  11.446  70.710  0.00  0.00     0.052 C 
ATOM     59  H47 non d ame     -13.314  10.925  70.474  0.00  0.00     0.082 H 
ATOM     60  H48 non d ame     -11.719  11.050  71.475  0.00  0.00     0.082 H 
BRANCH  58  61
ATOM     61  C35 non d ame     -12.729  12.917  71.070  0.00  0.00    -0.034 A 
ATOM     62  C30 non d ame     -13.482  13.199  72.205  0.00  0.00    -0.075 A 
ATOM     63  C31 non d ame     -13.789  14.520  72.528  0.00  0.00    -0.082 A 
ATOM     64  H49 non d ame     -13.832  12.386  72.840  0.00  0.00     0.084 H 
ATOM     65  C32 non d ame     -13.341  15.560  71.711  0.00  0.00    -0.083 A 
ATOM     66  H50 non d ame     -14.378  14.738  73.419  0.00  0.00     0.083 H 
ATOM     67  C33 non d ame     -12.591  15.274  70.577  0.00  0.00    -0.082 A 
ATOM     68  H51 non d ame     -13.576  16.596  71.956  0.00  0.00     0.083 H 
ATOM     69  C34 non d ame     -12.280  13.955  70.252  0.00  0.00    -0.075 A 
ATOM     70  H52 non d ame     -12.245  16.088  69.940  0.00  0.00     0.083 H 
ATOM     71  H53 non d ame     -11.690  13.738  69.360  0.00  0.00     0.084 H 
ENDBRANCH  58  61
ENDBRANCH  57  58
ENDBRANCH  55  57
ENDBRANCH  52  55
ENDBRANCH  49  52
ENDBRANCH  47  49
BRANCH  47  72
ATOM     72  C24 non d ame      -8.904   7.078  71.150  0.00  0.00    -0.039 C 
ATOM     73  H35 non d ame      -7.919   6.892  70.722  0.00  0.00     0.036 H 
ATOM     74  H36 non d ame      -9.131   8.049  71.591  0.00  0.00     0.036 H 
BRANCH  72  75
ATOM     75  C25 non d ame      -9.141   5.976  72.288  0.00  0.00    -0.001 C 
ATOM     76  C26 non d ame     -10.430   5.032  71.895  0.00  0.00    -0.035 C 
ATOM     77  C27 non d ame     -11.279   4.993  72.949  0.00  0.00     0.085 C 
ATOM     78  H38 non d ame     -11.018   5.510  71.112  0.00  0.00     0.036 H 
ATOM     79  H39 non d ame     -10.113   3.995  71.783  0.00  0.00     0.036 H 
ATOM     80  N5  non d ame     -10.851   6.081  73.903  0.00  0.00    -0.049 N 
ATOM     81  H40 non d ame     -12.260   5.241  72.543  0.00  0.00     0.075 H 
ATOM     82  H41 non d ame     -11.114   4.024  73.420  0.00  0.00     0.075 H 
ATOM     83  C28 non d ame      -9.372   6.528  73.432  0.00  0.00     0.193 C 
ATOM     84  H42 non d ame     -11.483   6.856  73.755  0.00  0.00     0.280 HD
ATOM     85  H43 non d ame     -10.783   5.654  74.815  0.00  0.00     0.280 HD
ATOM     86  H44 non d ame      -8.493   6.205  73.990  0.00  0.00     0.129 H 
ATOM     87  H37 non d ame      -8.220   5.466  72.567  0.00  0.00     0.046 H 
BRANCH  83  88
ATOM     88  O6  non d ame      -9.284   7.952  73.372  0.00  0.00    -0.369 OA
ATOM     89  H45 non d ame      -8.656   8.205  72.692  0.00  0.00     0.212 HD
ENDBRANCH  83  88
ENDBRANCH  72  75
ENDBRANCH  47  72
ENDBRANCH  45  47
ENDBRANCH   1  43
BRANCH   1  90
ATOM     90  C16 non d ame      -7.714   5.893  65.930  0.00  0.00    -0.035 C 
ATOM     91  H21 non d ame      -7.051   6.094  66.772  0.00  0.00     0.037 H 
ATOM     92  H22 non d ame      -8.144   4.900  65.801  0.00  0.00     0.037 H 
BRANCH  90  93
ATOM     93  C17 non d ame      -6.889   6.190  64.638  0.00  0.00    -0.059 C 
ATOM     94  H23 non d ame      -6.739   7.268  64.583  0.00  0.00     0.038 H 
BRANCH  93  95
ATOM     95  C18 non d ame      -5.483   5.513  64.667  0.00  0.00    -0.073 C 
ATOM     96  H24 non d ame      -5.599   4.431  64.589  0.00  0.00     0.028 H 
ATOM     97  H25 non d ame      -4.888   5.875  63.828  0.00  0.00     0.028 H 
ATOM     98  H26 non d ame      -4.979   5.758  65.602  0.00  0.00     0.028 H 
ENDBRANCH  93  95
BRANCH  93  99
ATOM     99  C19 non d ame      -7.668   5.777  63.386  0.00  0.00    -0.073 C 
ATOM    100  H27 non d ame      -8.523   6.441  63.255  0.00  0.00     0.028 H 
ATOM    101  H28 non d ame      -7.017   5.845  62.514  0.00  0.00     0.028 H 
ATOM    102  H29 non d ame      -8.019   4.752  63.499  0.00  0.00     0.028 H 
ENDBRANCH  93  99
ENDBRANCH  90  93
ENDBRANCH   1  90
TORSDOF 26
ENDMDL
MODEL 16
REMARK VINA RESULT:      -6.2      3.063      7.444
REMARK  26 active torsions:
REMARK  status: ('A' for Active; 'I' for Inactive)
REMARK    1  A    between atoms: C2_2  and  C3_3 
REMARK    2  A    between atoms: C4_6  and  C5_7 
REMARK       I    between atoms: C5_7  and  N2_9 
REMARK    3  A    between atoms: N2_9  and  C6_10 
REMARK    4  A    between atoms: C6_10  and  C7_11 
REMARK    5  A    between atoms: C6_10  and  C8_13 
REMARK       I    between atoms: C7_11  and  N3_14 
REMARK    6  A    between atoms: N3_14  and  C9_15 
REMARK    7  A    between atoms: C9_15  and  C10_16 
REMARK    8  A    between atoms: C9_15  and  C11_18 
REMARK       I    between atoms: C10_16  and  N4_21 
REMARK    9  A    between atoms: C11_18  and  C12_19 
REMARK   10  A    between atoms: C11_18  and  C13_20 
REMARK   11  A    between atoms: N4_21  and  C14_22 
REMARK   12  A    between atoms: C14_22  and  C15_23 
REMARK   13  A    between atoms: C14_22  and  C16_25 
REMARK       I    between atoms: C15_23  and  N6_40 
REMARK   14  A    between atoms: C16_25  and  C17_26 
REMARK   15  A    between atoms: C17_26  and  C18_27 
REMARK   16  A    between atoms: C17_26  and  C19_28 
REMARK   17  A    between atoms: C20_29  and  C21_30 
REMARK   18  A    between atoms: C20_29  and  C24_33 
REMARK   19  A    between atoms: C20_29  and  N6_40 
REMARK   20  A    between atoms: C21_30  and  C22_31 
REMARK   21  A    between atoms: C22_31  and  C23_32 
REMARK   22  A    between atoms: C23_32  and  O8_43 
REMARK   23  A    between atoms: C24_33  and  C25_34 
REMARK   24  A    between atoms: C28_38  and  O6_39 
REMARK   25  A    between atoms: C29_42  and  O8_43 
REMARK   26  A    between atoms: C29_42  and  C35_49 
ROOT
ATOM      1  C14 non d ame      -7.187  12.635  68.228  0.00  0.00     0.089 C 
ATOM      2  H20 non d ame      -6.454  12.473  67.438  0.00  0.00     0.087 H 
ENDROOT
BRANCH   1   3
ATOM      3  N4  non d ame      -7.366  14.072  68.372  0.00  0.00    -0.346 N 
ATOM      4  C10 non d ame      -6.317  15.026  67.856  0.00  0.00     0.241 C 
ATOM      5  O4  non d ame      -5.336  14.612  67.331  0.00  0.00    -0.271 OA
ATOM      6  H19 non d ame      -8.207  14.404  68.824  0.00  0.00     0.163 HD
BRANCH   4   7
ATOM      7  C9  non d ame      -6.521  16.510  68.008  0.00  0.00     0.092 C 
ATOM      8  H11 non d ame      -6.201  17.012  67.095  0.00  0.00     0.088 H 
BRANCH   7   9
ATOM      9  N3  non d ame      -7.949  16.793  68.179  0.00  0.00    -0.346 N 
ATOM     10  C7  non d ame      -8.737  17.232  67.054  0.00  0.00     0.240 C 
ATOM     11  O3  non d ame      -8.238  17.365  66.004  0.00  0.00    -0.271 OA
ATOM     12  H10 non d ame      -8.393  16.684  69.079  0.00  0.00     0.163 HD
BRANCH  10  13
ATOM     13  C6  non d ame     -10.256  17.534  67.244  0.00  0.00     0.086 C 
ATOM     14  H6  non d ame     -10.884  17.007  66.526  0.00  0.00     0.086 H 
BRANCH  13  15
ATOM     15  N2  non d ame     -10.665  17.084  68.564  0.00  0.00    -0.343 N 
ATOM     16  C5  non d ame     -11.381  15.814  68.702  0.00  0.00     0.273 C 
ATOM     17  O2  non d ame     -11.625  15.164  67.746  0.00  0.00    -0.266 OA
ATOM     18  H5  non d ame     -10.454  17.647  69.375  0.00  0.00     0.163 HD
BRANCH  16  19
ATOM     19  C4  non d ame     -11.818  15.324  70.092  0.00  0.00     0.154 A 
ATOM     20  C1  non d ame     -11.712  16.033  71.331  0.00  0.00    -0.017 A 
ATOM     21  C2  non d ame     -12.248  15.155  72.299  0.00  0.00     0.077 A 
ATOM     22  H1  non d ame     -11.308  17.031  71.502  0.00  0.00     0.091 H 
ATOM     23  O1  non d ame     -12.617  14.072  71.678  0.00  0.00    -0.218 OA
ATOM     24  N1  non d ame     -12.375  14.147  70.390  0.00  0.00    -0.123 NA
BRANCH  21  25
ATOM     25  C3  non d ame     -12.372  15.426  73.792  0.00  0.00    -0.029 C 
ATOM     26  H2  non d ame     -13.305  15.956  73.989  0.00  0.00     0.036 H 
ATOM     27  H3  non d ame     -12.370  14.481  74.335  0.00  0.00     0.036 H 
ATOM     28  H4  non d ame     -11.532  16.037  74.123  0.00  0.00     0.036 H 
ENDBRANCH  21  25
ENDBRANCH  16  19
ENDBRANCH  13  15
BRANCH  13  29
ATOM     29  C8  non d ame     -10.498  19.016  67.106  0.00  0.00    -0.049 C 
ATOM     30  H7  non d ame     -10.707  19.256  66.064  0.00  0.00     0.030 H 
ATOM     31  H8  non d ame     -11.351  19.303  67.723  0.00  0.00     0.030 H 
ATOM     32  H9  non d ame      -9.613  19.560  67.433  0.00  0.00     0.030 H 
ENDBRANCH  13  29
ENDBRANCH  10  13
ENDBRANCH   7   9
BRANCH   7  33
ATOM     33  C11 non d ame      -5.741  17.016  69.257  0.00  0.00    -0.033 C 
ATOM     34  H12 non d ame      -6.012  16.374  70.096  0.00  0.00     0.042 H 
BRANCH  33  35
ATOM     35  C12 non d ame      -4.199  16.894  69.053  0.00  0.00    -0.071 C 
ATOM     36  H13 non d ame      -3.733  16.573  69.984  0.00  0.00     0.028 H 
ATOM     37  H14 non d ame      -3.993  16.162  68.272  0.00  0.00     0.028 H 
ATOM     38  H15 non d ame      -3.795  17.862  68.758  0.00  0.00     0.028 H 
ENDBRANCH  33  35
BRANCH  33  39
ATOM     39  C13 non d ame      -6.151  18.480  69.617  0.00  0.00    -0.071 C 
ATOM     40  H16 non d ame      -5.469  18.874  70.369  0.00  0.00     0.028 H 
ATOM     41  H17 non d ame      -6.105  19.101  68.722  0.00  0.00     0.028 H 
ATOM     42  H18 non d ame      -7.168  18.485  70.010  0.00  0.00     0.028 H 
ENDBRANCH  33  39
ENDBRANCH   7  33
ENDBRANCH   4   7
ENDBRANCH   1   3
BRANCH   1  43
ATOM     43  C15 non d ame      -8.565  11.996  67.893  0.00  0.00     0.240 C 
ATOM     44  O5  non d ame      -9.561  12.474  68.332  0.00  0.00    -0.271 OA
ATOM     45  N6  non d ame      -8.644  10.793  67.017  0.00  0.00    -0.355 N 
ATOM     46  H46 non d ame      -7.806  10.380  66.635  0.00  0.00     0.162 HD
BRANCH  45  47
ATOM     47  C20 non d ame      -9.962  10.198  66.707  0.00  0.00     0.013 C 
ATOM     48  H30 non d ame     -10.717  10.737  67.279  0.00  0.00     0.072 H 
BRANCH  47  49
ATOM     49  C21 non d ame      -9.959   8.739  67.105  0.00  0.00    -0.038 C 
ATOM     50  H31 non d ame     -10.580   8.676  67.999  0.00  0.00     0.036 H 
ATOM     51  H32 non d ame     -10.237   8.188  66.206  0.00  0.00     0.036 H 
BRANCH  49  52
ATOM     52  C22 non d ame      -8.558   8.231  67.510  0.00  0.00     0.018 C 
ATOM     53  H33 non d ame      -7.852   8.956  67.104  0.00  0.00     0.048 H 
ATOM     54  H34 non d ame      -8.605   8.060  68.586  0.00  0.00     0.048 H 
BRANCH  52  55
ATOM     55  C23 non d ame      -8.180   6.865  66.874  0.00  0.00     0.259 C 
ATOM     56  O7  non d ame      -7.345   6.180  67.370  0.00  0.00    -0.265 OA
BRANCH  55  57
ATOM     57  O8  non d ame      -8.832   6.446  65.682  0.00  0.00    -0.317 OA
BRANCH  57  58
ATOM     58  C29 non d ame      -7.976   5.777  64.752  0.00  0.00     0.052 C 
ATOM     59  H47 non d ame      -7.248   5.237  65.356  0.00  0.00     0.082 H 
ATOM     60  H48 non d ame      -8.639   5.230  64.081  0.00  0.00     0.082 H 
BRANCH  58  61
ATOM     61  C35 non d ame      -7.226   6.857  63.928  0.00  0.00    -0.034 A 
ATOM     62  C30 non d ame      -7.897   7.999  63.503  0.00  0.00    -0.075 A 
ATOM     63  C31 non d ame      -7.224   8.969  62.763  0.00  0.00    -0.082 A 
ATOM     64  H49 non d ame      -8.950   8.133  63.749  0.00  0.00     0.084 H 
ATOM     65  C32 non d ame      -5.874   8.794  62.446  0.00  0.00    -0.083 A 
ATOM     66  H50 non d ame      -7.752   9.863  62.433  0.00  0.00     0.083 H 
ATOM     67  C33 non d ame      -5.209   7.651  62.870  0.00  0.00    -0.082 A 
ATOM     68  H51 non d ame      -5.340   9.548  61.868  0.00  0.00     0.083 H 
ATOM     69  C34 non d ame      -5.878   6.680  63.612  0.00  0.00    -0.075 A 
ATOM     70  H52 non d ame      -4.156   7.516  62.619  0.00  0.00     0.083 H 
ATOM     71  H53 non d ame      -5.348   5.785  63.942  0.00  0.00     0.084 H 
ENDBRANCH  58  61
ENDBRANCH  57  58
ENDBRANCH  55  57
ENDBRANCH  52  55
ENDBRANCH  49  52
ENDBRANCH  47  49
BRANCH  47  72
ATOM     72  C24 non d ame     -10.243  10.317  65.211  0.00  0.00    -0.039 C 
ATOM     73  H35 non d ame      -9.375   9.882  64.716  0.00  0.00     0.036 H 
ATOM     74  H36 non d ame     -11.231   9.879  65.065  0.00  0.00     0.036 H 
BRANCH  72  75
ATOM     75  C25 non d ame     -10.333  11.848  64.746  0.00  0.00    -0.001 C 
ATOM     76  C26 non d ame     -11.600  12.587  65.488  0.00  0.00    -0.035 C 
ATOM     77  C27 non d ame     -12.359  13.200  64.549  0.00  0.00     0.085 C 
ATOM     78  H38 non d ame     -12.273  11.840  65.910  0.00  0.00     0.036 H 
ATOM     79  H39 non d ame     -11.244  13.410  66.107  0.00  0.00     0.036 H 
ATOM     80  N5  non d ame     -11.909  12.677  63.207  0.00  0.00    -0.049 N 
ATOM     81  H40 non d ame     -13.381  12.868  64.736  0.00  0.00     0.075 H 
ATOM     82  H41 non d ame     -12.108  14.259  64.619  0.00  0.00     0.075 H 
ATOM     83  C28 non d ame     -10.497  11.939  63.468  0.00  0.00     0.193 C 
ATOM     84  H42 non d ame     -12.588  11.983  62.928  0.00  0.00     0.280 HD
ATOM     85  H43 non d ame     -11.746  13.486  62.624  0.00  0.00     0.280 HD
ATOM     86  H44 non d ame      -9.561  12.418  63.181  0.00  0.00     0.129 H 
ATOM     87  H37 non d ame      -9.367  12.351  64.795  0.00  0.00     0.046 H 
BRANCH  83  88
ATOM     88  O6  non d ame     -10.484  10.661  62.830  0.00  0.00    -0.369 OA
ATOM     89  H45 non d ame     -10.877  10.735  61.957  0.00  0.00     0.212 HD
ENDBRANCH  83  88
ENDBRANCH  72  75
ENDBRANCH  47  72
ENDBRANCH  45  47
ENDBRANCH   1  43
BRANCH   1  90
ATOM     90  C16 non d ame      -6.665  12.066  69.539  0.00  0.00    -0.035 C 
ATOM     91  H21 non d ame      -6.952  12.790  70.302  0.00  0.00     0.037 H 
ATOM     92  H22 non d ame      -7.047  11.047  69.583  0.00  0.00     0.037 H 
BRANCH  90  93
ATOM     93  C17 non d ame      -5.108  11.958  69.599  0.00  0.00    -0.059 C 
ATOM     94  H23 non d ame      -4.720  12.237  68.619  0.00  0.00     0.038 H 
BRANCH  93  95
ATOM     95  C18 non d ame      -4.489  12.930  70.652  0.00  0.00    -0.073 C 
ATOM     96  H24 non d ame      -4.988  12.793  71.611  0.00  0.00     0.028 H 
ATOM     97  H25 non d ame      -3.426  12.716  70.763  0.00  0.00     0.028 H 
ATOM     98  H26 non d ame      -4.618  13.959  70.318  0.00  0.00     0.028 H 
ENDBRANCH  93  95
BRANCH  93  99
ATOM     99  C19 non d ame      -4.671  10.515  69.865  0.00  0.00    -0.073 C 
ATOM    100  H27 non d ame      -4.210  10.104  68.968  0.00  0.00     0.028 H 
ATOM    101  H28 non d ame      -3.952  10.498  70.685  0.00  0.00     0.028 H 
ATOM    102  H29 non d ame      -5.541   9.916  70.133  0.00  0.00     0.028 H 
ENDBRANCH  93  99
ENDBRANCH  90  93
ENDBRANCH   1  90
TORSDOF 26
ENDMDL
MODEL 17
REMARK VINA RESULT:      -6.2      1.796      2.164
REMARK  26 active torsions:
REMARK  status: ('A' for Active; 'I' for Inactive)
REMARK    1  A    between atoms: C2_2  and  C3_3 
REMARK    2  A    between atoms: C4_6  and  C5_7 
REMARK       I    between atoms: C5_7  and  N2_9 
REMARK    3  A    between atoms: N2_9  and  C6_10 
REMARK    4  A    between atoms: C6_10  and  C7_11 
REMARK    5  A    between atoms: C6_10  and  C8_13 
REMARK       I    between atoms: C7_11  and  N3_14 
REMARK    6  A    between atoms: N3_14  and  C9_15 
REMARK    7  A    between atoms: C9_15  and  C10_16 
REMARK    8  A    between atoms: C9_15  and  C11_18 
REMARK       I    between atoms: C10_16  and  N4_21 
REMARK    9  A    between atoms: C11_18  and  C12_19 
REMARK   10  A    between atoms: C11_18  and  C13_20 
REMARK   11  A    between atoms: N4_21  and  C14_22 
REMARK   12  A    between atoms: C14_22  and  C15_23 
REMARK   13  A    between atoms: C14_22  and  C16_25 
REMARK       I    between atoms: C15_23  and  N6_40 
REMARK   14  A    between atoms: C16_25  and  C17_26 
REMARK   15  A    between atoms: C17_26  and  C18_27 
REMARK   16  A    between atoms: C17_26  and  C19_28 
REMARK   17  A    between atoms: C20_29  and  C21_30 
REMARK   18  A    between atoms: C20_29  and  C24_33 
REMARK   19  A    between atoms: C20_29  and  N6_40 
REMARK   20  A    between atoms: C21_30  and  C22_31 
REMARK   21  A    between atoms: C22_31  and  C23_32 
REMARK   22  A    between atoms: C23_32  and  O8_43 
REMARK   23  A    between atoms: C24_33  and  C25_34 
REMARK   24  A    between atoms: C28_38  and  O6_39 
REMARK   25  A    between atoms: C29_42  and  O8_43 
REMARK   26  A    between atoms: C29_42  and  C35_49 
ROOT
ATOM      1  C14 non d ame      -8.037   8.662  63.905  0.00  0.00     0.089 C 
ATOM      2  H20 non d ame      -8.014   8.986  62.864  0.00  0.00     0.087 H 
ENDROOT
BRANCH   1   3
ATOM      3  N4  non d ame      -9.153   9.337  64.550  0.00  0.00    -0.346 N 
ATOM      4  C10 non d ame      -9.683  10.635  63.993  0.00  0.00     0.241 C 
ATOM      5  O4  non d ame      -9.193  11.117  63.025  0.00  0.00    -0.271 OA
ATOM      6  H19 non d ame      -9.554   8.911  65.373  0.00  0.00     0.163 HD
BRANCH   4   7
ATOM      7  C9  non d ame     -10.842  11.317  64.669  0.00  0.00     0.092 C 
ATOM      8  H11 non d ame     -11.572  10.567  64.974  0.00  0.00     0.088 H 
BRANCH   7   9
ATOM      9  N3  non d ame     -10.374  11.984  65.888  0.00  0.00    -0.346 N 
ATOM     10  C7  non d ame     -11.054  11.761  67.139  0.00  0.00     0.240 C 
ATOM     11  O3  non d ame     -11.982  11.048  67.184  0.00  0.00    -0.271 OA
ATOM     12  H10 non d ame      -9.576  12.603  65.864  0.00  0.00     0.163 HD
BRANCH  10  13
ATOM     13  C6  non d ame     -10.552  12.477  68.432  0.00  0.00     0.086 C 
ATOM     14  H6  non d ame      -9.472  12.405  68.562  0.00  0.00     0.086 H 
BRANCH  13  15
ATOM     15  N2  non d ame     -10.867  13.893  68.338  0.00  0.00    -0.343 N 
ATOM     16  C5  non d ame      -9.910  14.804  67.705  0.00  0.00     0.273 C 
ATOM     17  O2  non d ame      -8.890  14.388  67.277  0.00  0.00    -0.266 OA
ATOM     18  H5  non d ame     -11.739  14.240  68.708  0.00  0.00     0.163 HD
BRANCH  16  19
ATOM     19  C4  non d ame     -10.230  16.303  67.597  0.00  0.00     0.154 A 
ATOM     20  C1  non d ame      -9.926  17.175  66.504  0.00  0.00    -0.017 A 
ATOM     21  C2  non d ame     -10.425  18.437  66.896  0.00  0.00     0.077 A 
ATOM     22  H1  non d ame      -9.420  16.930  65.569  0.00  0.00     0.091 H 
ATOM     23  O1  non d ame     -10.954  18.295  68.076  0.00  0.00    -0.218 OA
ATOM     24  N1  non d ame     -10.851  17.058  68.507  0.00  0.00    -0.123 NA
BRANCH  21  25
ATOM     25  C3  non d ame     -10.359  19.724  66.085  0.00  0.00    -0.029 C 
ATOM     26  H2  non d ame     -11.370  20.089  65.897  0.00  0.00     0.036 H 
ATOM     27  H3  non d ame      -9.800  20.476  66.642  0.00  0.00     0.036 H 
ATOM     28  H4  non d ame      -9.860  19.531  65.135  0.00  0.00     0.036 H 
ENDBRANCH  21  25
ENDBRANCH  16  19
ENDBRANCH  13  15
BRANCH  13  29
ATOM     29  C8  non d ame     -11.229  11.877  69.637  0.00  0.00    -0.049 C 
ATOM     30  H7  non d ame     -11.427  12.659  70.371  0.00  0.00     0.030 H 
ATOM     31  H8  non d ame     -12.171  11.417  69.334  0.00  0.00     0.030 H 
ATOM     32  H9  non d ame     -10.581  11.121  70.079  0.00  0.00     0.030 H 
ENDBRANCH  13  29
ENDBRANCH  10  13
ENDBRANCH   7   9
BRANCH   7  33
ATOM     33  C11 non d ame     -11.457  12.374  63.705  0.00  0.00    -0.033 C 
ATOM     34  H12 non d ame     -10.806  12.441  62.833  0.00  0.00     0.042 H 
BRANCH  33  35
ATOM     35  C12 non d ame     -12.868  11.934  63.205  0.00  0.00    -0.071 C 
ATOM     36  H13 non d ame     -13.159  12.549  62.353  0.00  0.00     0.028 H 
ATOM     37  H14 non d ame     -12.837  10.887  62.903  0.00  0.00     0.028 H 
ATOM     38  H15 non d ame     -13.593  12.059  64.009  0.00  0.00     0.028 H 
ENDBRANCH  33  35
BRANCH  33  39
ATOM     39  C13 non d ame     -11.508  13.782  64.380  0.00  0.00    -0.071 C 
ATOM     40  H16 non d ame     -10.521  14.039  64.761  0.00  0.00     0.028 H 
ATOM     41  H17 non d ame     -11.820  14.526  63.646  0.00  0.00     0.028 H 
ATOM     42  H18 non d ame     -12.222  13.764  65.203  0.00  0.00     0.028 H 
ENDBRANCH  33  39
ENDBRANCH   7  33
ENDBRANCH   4   7
ENDBRANCH   1   3
BRANCH   1  43
ATOM     43  C15 non d ame      -8.243   7.126  64.039  0.00  0.00     0.240 C 
ATOM     44  O5  non d ame      -8.221   6.440  63.068  0.00  0.00    -0.271 OA
ATOM     45  N6  non d ame      -8.458   6.509  65.378  0.00  0.00    -0.355 N 
ATOM     46  H46 non d ame      -8.474   7.080  66.210  0.00  0.00     0.162 HD
BRANCH  45  47
ATOM     47  C20 non d ame      -8.651   5.047  65.488  0.00  0.00     0.013 C 
ATOM     48  H30 non d ame      -8.684   4.636  64.479  0.00  0.00     0.072 H 
BRANCH  47  49
ATOM     49  C21 non d ame      -9.954   4.766  66.203  0.00  0.00    -0.038 C 
ATOM     50  H31 non d ame     -10.632   5.566  65.903  0.00  0.00     0.036 H 
ATOM     51  H32 non d ame     -10.198   3.729  65.973  0.00  0.00     0.036 H 
BRANCH  49  52
ATOM     52  C22 non d ame      -9.827   4.854  67.739  0.00  0.00     0.018 C 
ATOM     53  H33 non d ame     -10.432   4.037  68.133  0.00  0.00     0.048 H 
ATOM     54  H34 non d ame      -8.756   4.888  67.945  0.00  0.00     0.048 H 
BRANCH  52  55
ATOM     55  C23 non d ame     -10.422   6.156  68.343  0.00  0.00     0.259 C 
ATOM     56  O7  non d ame     -10.047   7.220  67.968  0.00  0.00    -0.265 OA
BRANCH  55  57
ATOM     57  O8  non d ame     -11.411   6.065  69.360  0.00  0.00    -0.317 OA
BRANCH  57  58
ATOM     58  C29 non d ame     -10.996   6.587  70.626  0.00  0.00     0.052 C 
ATOM     59  H47 non d ame     -10.862   5.721  71.273  0.00  0.00     0.082 H 
ATOM     60  H48 non d ame     -10.151   7.242  70.412  0.00  0.00     0.082 H 
BRANCH  58  61
ATOM     61  C35 non d ame     -12.155   7.450  71.191  0.00  0.00    -0.034 A 
ATOM     62  C30 non d ame     -13.428   6.905  71.323  0.00  0.00    -0.075 A 
ATOM     63  C31 non d ame     -14.470   7.680  71.830  0.00  0.00    -0.082 A 
ATOM     64  H49 non d ame     -13.610   5.872  71.028  0.00  0.00     0.084 H 
ATOM     65  C32 non d ame     -14.235   9.005  72.206  0.00  0.00    -0.083 A 
ATOM     66  H50 non d ame     -15.466   7.250  71.934  0.00  0.00     0.083 H 
ATOM     67  C33 non d ame     -12.963   9.546  72.070  0.00  0.00    -0.082 A 
ATOM     68  H51 non d ame     -15.043   9.618  72.604  0.00  0.00     0.083 H 
ATOM     69  C34 non d ame     -11.919   8.774  71.565  0.00  0.00    -0.075 A 
ATOM     70  H52 non d ame     -12.783  10.581  72.362  0.00  0.00     0.083 H 
ATOM     71  H53 non d ame     -10.922   9.205  71.463  0.00  0.00     0.084 H 
ENDBRANCH  58  61
ENDBRANCH  57  58
ENDBRANCH  55  57
ENDBRANCH  52  55
ENDBRANCH  49  52
ENDBRANCH  47  49
BRANCH  47  72
ATOM     72  C24 non d ame      -7.496   4.431  66.274  0.00  0.00    -0.039 C 
ATOM     73  H35 non d ame      -7.849   4.360  67.303  0.00  0.00     0.036 H 
ATOM     74  H36 non d ame      -7.222   3.528  65.729  0.00  0.00     0.036 H 
BRANCH  72  75
ATOM     75  C25 non d ame      -6.209   5.386  66.282  0.00  0.00    -0.001 C 
ATOM     76  C26 non d ame      -5.236   5.027  65.007  0.00  0.00    -0.035 C 
ATOM     77  C27 non d ame      -3.974   4.836  65.460  0.00  0.00     0.085 C 
ATOM     78  H38 non d ame      -5.507   4.056  64.592  0.00  0.00     0.036 H 
ATOM     79  H39 non d ame      -5.144   5.893  64.351  0.00  0.00     0.036 H 
ATOM     80  N5  non d ame      -4.059   4.711  66.962  0.00  0.00    -0.049 N 
ATOM     81  H40 non d ame      -3.655   3.881  65.041  0.00  0.00     0.075 H 
ATOM     82  H41 non d ame      -3.434   5.749  65.210  0.00  0.00     0.075 H 
ATOM     83  C28 non d ame      -5.528   5.243  67.370  0.00  0.00     0.193 C 
ATOM     84  H42 non d ame      -4.006   3.724  67.170  0.00  0.00     0.280 HD
ATOM     85  H43 non d ame      -3.371   5.345  67.342  0.00  0.00     0.280 HD
ATOM     86  H44 non d ame      -5.655   6.230  67.816  0.00  0.00     0.129 H 
ATOM     87  H37 non d ame      -6.474   6.434  66.424  0.00  0.00     0.046 H 
BRANCH  83  88
ATOM     88  O6  non d ame      -6.147   4.332  68.279  0.00  0.00    -0.369 OA
ATOM     89  H45 non d ame      -5.942   3.431  68.018  0.00  0.00     0.212 HD
ENDBRANCH  83  88
ENDBRANCH  72  75
ENDBRANCH  47  72
ENDBRANCH  45  47
ENDBRANCH   1  43
BRANCH   1  90
ATOM     90  C16 non d ame      -6.744   9.067  64.597  0.00  0.00    -0.035 C 
ATOM     91  H21 non d ame      -6.657  10.142  64.440  0.00  0.00     0.037 H 
ATOM     92  H22 non d ame      -6.823   8.670  65.609  0.00  0.00     0.037 H 
BRANCH  90  93
ATOM     93  C17 non d ame      -5.468   8.424  63.967  0.00  0.00    -0.059 C 
ATOM     94  H23 non d ame      -5.578   7.342  64.030  0.00  0.00     0.038 H 
BRANCH  93  95
ATOM     95  C18 non d ame      -5.300   8.800  62.461  0.00  0.00    -0.073 C 
ATOM     96  H24 non d ame      -5.031   9.854  62.377  0.00  0.00     0.028 H 
ATOM     97  H25 non d ame      -4.513   8.189  62.019  0.00  0.00     0.028 H 
ATOM     98  H26 non d ame      -6.237   8.621  61.934  0.00  0.00     0.028 H 
ENDBRANCH  93  95
BRANCH  93  99
ATOM     99  C19 non d ame      -4.217   8.800  64.766  0.00  0.00    -0.073 C 
ATOM    100  H27 non d ame      -4.511   9.298  65.689  0.00  0.00     0.028 H 
ATOM    101  H28 non d ame      -3.653   7.897  65.003  0.00  0.00     0.028 H 
ATOM    102  H29 non d ame      -3.596   9.471  64.173  0.00  0.00     0.028 H 
ENDBRANCH  93  99
ENDBRANCH  90  93
ENDBRANCH   1  90
TORSDOF 26
ENDMDL
MODEL 18
REMARK VINA RESULT:      -6.2      3.049      9.704
REMARK  26 active torsions:
REMARK  status: ('A' for Active; 'I' for Inactive)
REMARK    1  A    between atoms: C2_2  and  C3_3 
REMARK    2  A    between atoms: C4_6  and  C5_7 
REMARK       I    between atoms: C5_7  and  N2_9 
REMARK    3  A    between atoms: N2_9  and  C6_10 
REMARK    4  A    between atoms: C6_10  and  C7_11 
REMARK    5  A    between atoms: C6_10  and  C8_13 
REMARK       I    between atoms: C7_11  and  N3_14 
REMARK    6  A    between atoms: N3_14  and  C9_15 
REMARK    7  A    between atoms: C9_15  and  C10_16 
REMARK    8  A    between atoms: C9_15  and  C11_18 
REMARK       I    between atoms: C10_16  and  N4_21 
REMARK    9  A    between atoms: C11_18  and  C12_19 
REMARK   10  A    between atoms: C11_18  and  C13_20 
REMARK   11  A    between atoms: N4_21  and  C14_22 
REMARK   12  A    between atoms: C14_22  and  C15_23 
REMARK   13  A    between atoms: C14_22  and  C16_25 
REMARK       I    between atoms: C15_23  and  N6_40 
REMARK   14  A    between atoms: C16_25  and  C17_26 
REMARK   15  A    between atoms: C17_26  and  C18_27 
REMARK   16  A    between atoms: C17_26  and  C19_28 
REMARK   17  A    between atoms: C20_29  and  C21_30 
REMARK   18  A    between atoms: C20_29  and  C24_33 
REMARK   19  A    between atoms: C20_29  and  N6_40 
REMARK   20  A    between atoms: C21_30  and  C22_31 
REMARK   21  A    between atoms: C22_31  and  C23_32 
REMARK   22  A    between atoms: C23_32  and  O8_43 
REMARK   23  A    between atoms: C24_33  and  C25_34 
REMARK   24  A    between atoms: C28_38  and  O6_39 
REMARK   25  A    between atoms: C29_42  and  O8_43 
REMARK   26  A    between atoms: C29_42  and  C35_49 
ROOT
ATOM      1  C14 non d ame     -11.015   9.022  69.629  0.00  0.00     0.089 C 
ATOM      2  H20 non d ame     -11.930   8.431  69.641  0.00  0.00     0.087 H 
ENDROOT
BRANCH   1   3
ATOM      3  N4  non d ame      -9.972   8.205  69.027  0.00  0.00    -0.346 N 
ATOM      4  C10 non d ame     -10.189   6.728  68.815  0.00  0.00     0.241 C 
ATOM      5  O4  non d ame     -11.211   6.219  69.140  0.00  0.00    -0.271 OA
ATOM      6  H19 non d ame      -9.109   8.658  68.759  0.00  0.00     0.163 HD
BRANCH   4   7
ATOM      7  C9  non d ame      -9.101   5.898  68.185  0.00  0.00     0.092 C 
ATOM      8  H11 non d ame      -9.550   5.044  67.679  0.00  0.00     0.088 H 
BRANCH   7   9
ATOM      9  N3  non d ame      -8.410   6.692  67.164  0.00  0.00    -0.346 N 
ATOM     10  C7  non d ame      -8.087   6.103  65.889  0.00  0.00     0.240 C 
ATOM     11  O3  non d ame      -8.375   4.989  65.667  0.00  0.00    -0.271 OA
ATOM     12  H10 non d ame      -8.154   7.652  67.342  0.00  0.00     0.163 HD
BRANCH  10  13
ATOM     13  C6  non d ame      -7.349   6.951  64.808  0.00  0.00     0.086 C 
ATOM     14  H6  non d ame      -7.439   6.531  63.806  0.00  0.00     0.086 H 
BRANCH  13  15
ATOM     15  N2  non d ame      -7.947   8.275  64.759  0.00  0.00    -0.343 N 
ATOM     16  C5  non d ame      -8.589   8.731  63.523  0.00  0.00     0.273 C 
ATOM     17  O2  non d ame      -8.616   8.026  62.575  0.00  0.00    -0.266 OA
ATOM     18  H5  non d ame      -7.918   8.871  65.573  0.00  0.00     0.163 HD
BRANCH  16  19
ATOM     19  C4  non d ame      -9.227  10.127  63.457  0.00  0.00     0.154 A 
ATOM     20  C1  non d ame     -10.172  10.689  64.374  0.00  0.00    -0.017 A 
ATOM     21  C2  non d ame     -10.442  11.982  63.871  0.00  0.00     0.077 A 
ATOM     22  H1  non d ame     -10.597  10.230  65.267  0.00  0.00     0.091 H 
ATOM     23  O1  non d ame      -9.729  12.135  62.793  0.00  0.00    -0.218 OA
ATOM     24  N1  non d ame      -9.013  11.065  62.531  0.00  0.00    -0.123 NA
BRANCH  21  25
ATOM     25  C3  non d ame     -11.388  13.007  64.480  0.00  0.00    -0.029 C 
ATOM     26  H2  non d ame     -11.503  12.809  65.546  0.00  0.00     0.036 H 
ATOM     27  H3  non d ame     -10.980  14.007  64.338  0.00  0.00     0.036 H 
ATOM     28  H4  non d ame     -12.361  12.939  63.991  0.00  0.00     0.036 H 
ENDBRANCH  21  25
ENDBRANCH  16  19
ENDBRANCH  13  15
BRANCH  13  29
ATOM     29  C8  non d ame      -5.887   7.059  65.161  0.00  0.00    -0.049 C 
ATOM     30  H7  non d ame      -5.578   8.103  65.115  0.00  0.00     0.030 H 
ATOM     31  H8  non d ame      -5.728   6.677  66.170  0.00  0.00     0.030 H 
ATOM     32  H9  non d ame      -5.299   6.475  64.454  0.00  0.00     0.030 H 
ENDBRANCH  13  29
ENDBRANCH  10  13
ENDBRANCH   7   9
BRANCH   7  33
ATOM     33  C11 non d ame      -8.082   5.462  69.278  0.00  0.00    -0.033 C 
ATOM     34  H12 non d ame      -8.587   5.526  70.242  0.00  0.00     0.042 H 
BRANCH  33  35
ATOM     35  C12 non d ame      -7.635   3.980  69.080  0.00  0.00    -0.071 C 
ATOM     36  H13 non d ame      -7.770   3.433  70.013  0.00  0.00     0.028 H 
ATOM     37  H14 non d ame      -8.239   3.520  68.298  0.00  0.00     0.028 H 
ATOM     38  H15 non d ame      -6.585   3.954  68.790  0.00  0.00     0.028 H 
ENDBRANCH  33  35
BRANCH  33  39
ATOM     39  C13 non d ame      -6.852   6.425  69.311  0.00  0.00    -0.071 C 
ATOM     40  H16 non d ame      -6.932   7.088  70.172  0.00  0.00     0.028 H 
ATOM     41  H17 non d ame      -5.934   5.841  69.385  0.00  0.00     0.028 H 
ATOM     42  H18 non d ame      -6.832   7.019  68.397  0.00  0.00     0.028 H 
ENDBRANCH  33  39
ENDBRANCH   7  33
ENDBRANCH   4   7
ENDBRANCH   1   3
BRANCH   1  43
ATOM     43  C15 non d ame     -11.168  10.325  68.793  0.00  0.00     0.240 C 
ATOM     44  O5  non d ame     -11.611  10.273  67.691  0.00  0.00    -0.271 OA
ATOM     45  N6  non d ame     -10.770  11.641  69.370  0.00  0.00    -0.355 N 
ATOM     46  H46 non d ame     -10.397  11.700  70.306  0.00  0.00     0.162 HD
BRANCH  45  47
ATOM     47  C20 non d ame     -10.923  12.871  68.563  0.00  0.00     0.013 C 
ATOM     48  H30 non d ame     -10.987  12.579  67.515  0.00  0.00     0.072 H 
BRANCH  47  49
ATOM     49  C21 non d ame      -9.721  13.763  68.777  0.00  0.00    -0.038 C 
ATOM     50  H31 non d ame      -9.980  14.411  69.615  0.00  0.00     0.036 H 
ATOM     51  H32 non d ame      -8.866  13.090  68.852  0.00  0.00     0.036 H 
BRANCH  49  52
ATOM     52  C22 non d ame      -9.441  14.691  67.576  0.00  0.00     0.018 C 
ATOM     53  H33 non d ame      -8.374  14.594  67.369  0.00  0.00     0.048 H 
ATOM     54  H34 non d ame     -10.171  14.416  66.814  0.00  0.00     0.048 H 
BRANCH  52  55
ATOM     55  C23 non d ame      -9.683  16.196  67.878  0.00  0.00     0.259 C 
ATOM     56  O7  non d ame     -10.537  16.795  67.310  0.00  0.00    -0.265 OA
BRANCH  55  57
ATOM     57  O8  non d ame      -8.861  16.856  68.833  0.00  0.00    -0.317 OA
BRANCH  57  58
ATOM     58  C29 non d ame      -7.471  16.871  68.495  0.00  0.00     0.052 C 
ATOM     59  H47 non d ame      -6.936  16.826  69.443  0.00  0.00     0.082 H 
ATOM     60  H48 non d ame      -7.339  16.080  67.757  0.00  0.00     0.082 H 
BRANCH  58  61
ATOM     61  C35 non d ame      -7.157  18.232  67.819  0.00  0.00    -0.034 A 
ATOM     62  C30 non d ame      -7.033  18.310  66.436  0.00  0.00    -0.075 A 
ATOM     63  C31 non d ame      -6.751  19.532  65.828  0.00  0.00    -0.082 A 
ATOM     64  H49 non d ame      -7.156  17.414  65.828  0.00  0.00     0.084 H 
ATOM     65  C32 non d ame      -6.591  20.680  66.609  0.00  0.00    -0.083 A 
ATOM     66  H50 non d ame      -6.655  19.590  64.744  0.00  0.00     0.083 H 
ATOM     67  C33 non d ame      -6.713  20.597  67.990  0.00  0.00    -0.082 A 
ATOM     68  H51 non d ame      -6.370  21.640  66.142  0.00  0.00     0.083 H 
ATOM     69  C34 non d ame      -6.997  19.377  68.601  0.00  0.00    -0.075 A 
ATOM     70  H52 non d ame      -6.585  21.494  68.597  0.00  0.00     0.083 H 
ATOM     71  H53 non d ame      -7.092  19.321  69.686  0.00  0.00     0.084 H 
ENDBRANCH  58  61
ENDBRANCH  57  58
ENDBRANCH  55  57
ENDBRANCH  52  55
ENDBRANCH  49  52
ENDBRANCH  47  49
BRANCH  47  72
ATOM     72  C24 non d ame     -12.189  13.612  68.986  0.00  0.00    -0.039 C 
ATOM     73  H35 non d ame     -12.252  14.480  68.329  0.00  0.00     0.036 H 
ATOM     74  H36 non d ame     -12.982  12.863  68.975  0.00  0.00     0.036 H 
BRANCH  72  75
ATOM     75  C25 non d ame     -12.081  14.162  70.487  0.00  0.00    -0.001 C 
ATOM     76  C26 non d ame     -13.075  13.301  71.473  0.00  0.00    -0.035 C 
ATOM     77  C27 non d ame     -13.848  14.163  72.175  0.00  0.00     0.085 C 
ATOM     78  H38 non d ame     -13.796  12.739  70.879  0.00  0.00     0.036 H 
ATOM     79  H39 non d ame     -12.492  12.795  72.243  0.00  0.00     0.036 H 
ATOM     80  N5  non d ame     -13.703  15.517  71.525  0.00  0.00    -0.049 N 
ATOM     81  H40 non d ame     -14.872  13.812  72.042  0.00  0.00     0.075 H 
ATOM     82  H41 non d ame     -13.410  14.200  73.173  0.00  0.00     0.075 H 
ATOM     83  C28 non d ame     -12.417  15.407  70.553  0.00  0.00     0.193 C 
ATOM     84  H42 non d ame     -14.525  15.650  70.954  0.00  0.00     0.280 HD
ATOM     85  H43 non d ame     -13.491  16.170  72.265  0.00  0.00     0.280 HD
ATOM     86  H44 non d ame     -11.466  15.855  70.842  0.00  0.00     0.129 H 
ATOM     87  H37 non d ame     -11.046  14.283  70.808  0.00  0.00     0.046 H 
BRANCH  83  88
ATOM     88  O6  non d ame     -12.722  15.953  69.269  0.00  0.00    -0.369 OA
ATOM     89  H45 non d ame     -12.477  15.324  68.588  0.00  0.00     0.212 HD
ENDBRANCH  83  88
ENDBRANCH  72  75
ENDBRANCH  47  72
ENDBRANCH  45  47
ENDBRANCH   1  43
BRANCH   1  90
ATOM     90  C16 non d ame     -10.611   9.373  71.053  0.00  0.00    -0.035 C 
ATOM     91  H21 non d ame      -9.631   8.917  71.195  0.00  0.00     0.037 H 
ATOM     92  H22 non d ame     -10.725  10.454  71.127  0.00  0.00     0.037 H 
BRANCH  90  93
ATOM     93  C17 non d ame     -11.546   8.754  72.139  0.00  0.00    -0.059 C 
ATOM     94  H23 non d ame     -11.764   9.532  72.870  0.00  0.00     0.038 H 
BRANCH  93  95
ATOM     95  C18 non d ame     -12.904   8.266  71.542  0.00  0.00    -0.073 C 
ATOM     96  H24 non d ame     -13.004   8.634  70.520  0.00  0.00     0.028 H 
ATOM     97  H25 non d ame     -12.929   7.176  71.539  0.00  0.00     0.028 H 
ATOM     98  H26 non d ame     -13.726   8.647  72.148  0.00  0.00     0.028 H 
ENDBRANCH  93  95
BRANCH  93  99
ATOM     99  C19 non d ame     -10.839   7.618  72.885  0.00  0.00    -0.073 C 
ATOM    100  H27 non d ame     -11.330   7.453  73.844  0.00  0.00     0.028 H 
ATOM    101  H28 non d ame     -10.889   6.706  72.290  0.00  0.00     0.028 H 
ATOM    102  H29 non d ame      -9.797   7.887  73.052  0.00  0.00     0.028 H 
ENDBRANCH  93  99
ENDBRANCH  90  93
ENDBRANCH   1  90
TORSDOF 26
ENDMDL
MODEL 19
REMARK VINA RESULT:      -6.1      2.304      5.219
REMARK  26 active torsions:
REMARK  status: ('A' for Active; 'I' for Inactive)
REMARK    1  A    between atoms: C2_2  and  C3_3 
REMARK    2  A    between atoms: C4_6  and  C5_7 
REMARK       I    between atoms: C5_7  and  N2_9 
REMARK    3  A    between atoms: N2_9  and  C6_10 
REMARK    4  A    between atoms: C6_10  and  C7_11 
REMARK    5  A    between atoms: C6_10  and  C8_13 
REMARK       I    between atoms: C7_11  and  N3_14 
REMARK    6  A    between atoms: N3_14  and  C9_15 
REMARK    7  A    between atoms: C9_15  and  C10_16 
REMARK    8  A    between atoms: C9_15  and  C11_18 
REMARK       I    between atoms: C10_16  and  N4_21 
REMARK    9  A    between atoms: C11_18  and  C12_19 
REMARK   10  A    between atoms: C11_18  and  C13_20 
REMARK   11  A    between atoms: N4_21  and  C14_22 
REMARK   12  A    between atoms: C14_22  and  C15_23 
REMARK   13  A    between atoms: C14_22  and  C16_25 
REMARK       I    between atoms: C15_23  and  N6_40 
REMARK   14  A    between atoms: C16_25  and  C17_26 
REMARK   15  A    between atoms: C17_26  and  C18_27 
REMARK   16  A    between atoms: C17_26  and  C19_28 
REMARK   17  A    between atoms: C20_29  and  C21_30 
REMARK   18  A    between atoms: C20_29  and  C24_33 
REMARK   19  A    between atoms: C20_29  and  N6_40 
REMARK   20  A    between atoms: C21_30  and  C22_31 
REMARK   21  A    between atoms: C22_31  and  C23_32 
REMARK   22  A    between atoms: C23_32  and  O8_43 
REMARK   23  A    between atoms: C24_33  and  C25_34 
REMARK   24  A    between atoms: C28_38  and  O6_39 
REMARK   25  A    between atoms: C29_42  and  O8_43 
REMARK   26  A    between atoms: C29_42  and  C35_49 
ROOT
ATOM      1  C14 non d ame      -8.568   8.168  65.063  0.00  0.00     0.089 C 
ATOM      2  H20 non d ame      -8.823   7.335  64.408  0.00  0.00     0.087 H 
ENDROOT
BRANCH   1   3
ATOM      3  N4  non d ame      -9.715   9.063  65.101  0.00  0.00    -0.346 N 
ATOM      4  C10 non d ame      -9.561  10.479  65.597  0.00  0.00     0.241 C 
ATOM      5  O4  non d ame      -8.503  10.874  65.962  0.00  0.00    -0.271 OA
ATOM      6  H19 non d ame     -10.607   8.705  64.788  0.00  0.00     0.163 HD
BRANCH   4   7
ATOM      7  C9  non d ame     -10.757  11.393  65.624  0.00  0.00     0.092 C 
ATOM      8  H11 non d ame     -11.523  10.962  66.268  0.00  0.00     0.088 H 
BRANCH   7   9
ATOM      9  N3  non d ame     -10.375  12.681  66.210  0.00  0.00    -0.346 N 
ATOM     10  C7  non d ame     -10.631  12.945  67.604  0.00  0.00     0.240 C 
ATOM     11  O3  non d ame     -11.147  12.131  68.270  0.00  0.00    -0.271 OA
ATOM     12  H10 non d ame      -9.932  13.393  65.647  0.00  0.00     0.163 HD
BRANCH  10  13
ATOM     13  C6  non d ame     -10.225  14.319  68.220  0.00  0.00     0.086 C 
ATOM     14  H6  non d ame     -10.620  15.166  67.660  0.00  0.00     0.086 H 
BRANCH  13  15
ATOM     15  N2  non d ame     -10.777  14.415  69.562  0.00  0.00    -0.343 N 
ATOM     16  C5  non d ame     -11.739  15.474  69.871  0.00  0.00     0.273 C 
ATOM     17  O2  non d ame     -12.062  16.245  69.035  0.00  0.00    -0.266 OA
ATOM     18  H5  non d ame     -10.494  13.754  70.271  0.00  0.00     0.163 HD
BRANCH  16  19
ATOM     19  C4  non d ame     -12.332  15.586  71.285  0.00  0.00     0.154 A 
ATOM     20  C1  non d ame     -11.617  15.777  72.509  0.00  0.00    -0.017 A 
ATOM     21  C2  non d ame     -12.613  15.813  73.511  0.00  0.00     0.077 A 
ATOM     22  H1  non d ame     -10.540  15.875  72.651  0.00  0.00     0.091 H 
ATOM     23  O1  non d ame     -13.763  15.661  72.919  0.00  0.00    -0.218 OA
ATOM     24  N1  non d ame     -13.624  15.526  71.620  0.00  0.00    -0.123 NA
BRANCH  21  25
ATOM     25  C3  non d ame     -12.384  15.997  75.004  0.00  0.00    -0.029 C 
ATOM     26  H2  non d ame     -13.006  16.814  75.371  0.00  0.00     0.036 H 
ATOM     27  H3  non d ame     -12.646  15.078  75.528  0.00  0.00     0.036 H 
ATOM     28  H4  non d ame     -11.334  16.231  75.186  0.00  0.00     0.036 H 
ENDBRANCH  21  25
ENDBRANCH  16  19
ENDBRANCH  13  15
BRANCH  13  29
ATOM     29  C8  non d ame      -8.723  14.426  68.271  0.00  0.00    -0.049 C 
ATOM     30  H7  non d ame      -8.324  14.441  67.257  0.00  0.00     0.030 H 
ATOM     31  H8  non d ame      -8.442  15.347  68.785  0.00  0.00     0.030 H 
ATOM     32  H9  non d ame      -8.315  13.571  68.809  0.00  0.00     0.030 H 
ENDBRANCH  13  29
ENDBRANCH  10  13
ENDBRANCH   7   9
BRANCH   7  33
ATOM     33  C11 non d ame     -11.272  11.618  64.172  0.00  0.00    -0.033 C 
ATOM     34  H12 non d ame     -11.744  10.692  63.844  0.00  0.00     0.042 H 
BRANCH  33  35
ATOM     35  C12 non d ame     -12.354  12.741  64.120  0.00  0.00    -0.071 C 
ATOM     36  H13 non d ame     -12.088  13.466  63.351  0.00  0.00     0.028 H 
ATOM     37  H14 non d ame     -13.323  12.301  63.885  0.00  0.00     0.028 H 
ATOM     38  H15 non d ame     -12.407  13.239  65.088  0.00  0.00     0.028 H 
ENDBRANCH  33  35
BRANCH  33  39
ATOM     39  C13 non d ame     -10.087  11.927  63.201  0.00  0.00    -0.071 C 
ATOM     40  H16 non d ame      -9.147  11.647  63.674  0.00  0.00     0.028 H 
ATOM     41  H17 non d ame     -10.215  11.359  62.279  0.00  0.00     0.028 H 
ATOM     42  H18 non d ame     -10.075  12.993  62.972  0.00  0.00     0.028 H 
ENDBRANCH  33  39
ENDBRANCH   7  33
ENDBRANCH   4   7
ENDBRANCH   1   3
BRANCH   1  43
ATOM     43  C15 non d ame      -8.257   7.701  66.514  0.00  0.00     0.240 C 
ATOM     44  O5  non d ame      -7.252   8.052  67.046  0.00  0.00    -0.271 OA
ATOM     45  N6  non d ame      -9.214   6.823  67.245  0.00  0.00    -0.355 N 
ATOM     46  H46 non d ame     -10.072   6.521  66.806  0.00  0.00     0.162 HD
BRANCH  45  47
ATOM     47  C20 non d ame      -8.904   6.389  68.625  0.00  0.00     0.013 C 
ATOM     48  H30 non d ame      -8.413   7.218  69.135  0.00  0.00     0.072 H 
BRANCH  47  49
ATOM     49  C21 non d ame      -7.979   5.193  68.577  0.00  0.00    -0.038 C 
ATOM     50  H31 non d ame      -6.971   5.596  68.680  0.00  0.00     0.036 H 
ATOM     51  H32 non d ame      -8.366   4.493  69.318  0.00  0.00     0.036 H 
BRANCH  49  52
ATOM     52  C22 non d ame      -8.019   4.458  67.220  0.00  0.00     0.018 C 
ATOM     53  H33 non d ame      -8.304   5.211  66.484  0.00  0.00     0.048 H 
ATOM     54  H34 non d ame      -7.061   3.946  67.133  0.00  0.00     0.048 H 
BRANCH  52  55
ATOM     55  C23 non d ame      -9.107   3.351  67.140  0.00  0.00     0.259 C 
ATOM     56  O7  non d ame      -9.384   2.709  68.101  0.00  0.00    -0.265 OA
BRANCH  55  57
ATOM     57  O8  non d ame      -9.760   3.103  65.902  0.00  0.00    -0.317 OA
BRANCH  57  58
ATOM     58  C29 non d ame     -10.271   4.278  65.266  0.00  0.00     0.052 C 
ATOM     59  H47 non d ame     -11.355   4.168  65.267  0.00  0.00     0.082 H 
ATOM     60  H48 non d ame      -9.808   5.118  65.784  0.00  0.00     0.082 H 
BRANCH  58  61
ATOM     61  C35 non d ame      -9.779   4.278  63.794  0.00  0.00    -0.034 A 
ATOM     62  C30 non d ame     -10.450   3.528  62.835  0.00  0.00    -0.075 A 
ATOM     63  C31 non d ame     -10.008   3.527  61.513  0.00  0.00    -0.082 A 
ATOM     64  H49 non d ame     -11.322   2.940  63.119  0.00  0.00     0.084 H 
ATOM     65  C32 non d ame      -8.888   4.280  61.152  0.00  0.00    -0.083 A 
ATOM     66  H50 non d ame     -10.538   2.939  60.764  0.00  0.00     0.083 H 
ATOM     67  C33 non d ame      -8.218   5.026  62.113  0.00  0.00    -0.082 A 
ATOM     68  H51 non d ame      -8.535   4.286  60.120  0.00  0.00     0.083 H 
ATOM     69  C34 non d ame      -8.659   5.030  63.435  0.00  0.00    -0.075 A 
ATOM     70  H52 non d ame      -7.343   5.610  61.828  0.00  0.00     0.083 H 
ATOM     71  H53 non d ame      -8.128   5.620  64.184  0.00  0.00     0.084 H 
ENDBRANCH  58  61
ENDBRANCH  57  58
ENDBRANCH  55  57
ENDBRANCH  52  55
ENDBRANCH  49  52
ENDBRANCH  47  49
BRANCH  47  72
ATOM     72  C24 non d ame     -10.193   6.008  69.348  0.00  0.00    -0.039 C 
ATOM     73  H35 non d ame     -10.983   6.571  68.851  0.00  0.00     0.036 H 
ATOM     74  H36 non d ame     -10.217   4.918  69.345  0.00  0.00     0.036 H 
BRANCH  72  75
ATOM     75  C25 non d ame     -10.173   6.476  70.881  0.00  0.00    -0.001 C 
ATOM     76  C26 non d ame     -10.240   5.163  71.869  0.00  0.00    -0.035 C 
ATOM     77  C27 non d ame     -11.235   5.344  72.769  0.00  0.00     0.085 C 
ATOM     78  H38 non d ame     -10.563   4.288  71.305  0.00  0.00     0.036 H 
ATOM     79  H39 non d ame      -9.343   5.113  72.486  0.00  0.00     0.036 H 
ATOM     80  N5  non d ame     -12.063   6.509  72.283  0.00  0.00    -0.049 N 
ATOM     81  H40 non d ame     -11.838   4.437  72.725  0.00  0.00     0.075 H 
ATOM     82  H41 non d ame     -10.739   5.626  73.698  0.00  0.00     0.075 H 
ATOM     83  C28 non d ame     -11.178   7.242  71.149  0.00  0.00     0.193 C 
ATOM     84  H42 non d ame     -12.883   6.114  71.845  0.00  0.00     0.280 HD
ATOM     85  H43 non d ame     -12.163   7.137  73.068  0.00  0.00     0.280 HD
ATOM     86  H44 non d ame     -10.662   8.177  71.367  0.00  0.00     0.129 H 
ATOM     87  H37 non d ame      -9.388   7.206  71.079  0.00  0.00     0.046 H 
BRANCH  83  88
ATOM     88  O6  non d ame     -11.977   7.506  69.995  0.00  0.00    -0.369 OA
ATOM     89  H45 non d ame     -12.543   8.262  70.165  0.00  0.00     0.212 HD
ENDBRANCH  83  88
ENDBRANCH  72  75
ENDBRANCH  47  72
ENDBRANCH  45  47
ENDBRANCH   1  43
BRANCH   1  90
ATOM     90  C16 non d ame      -7.371   8.918  64.500  0.00  0.00    -0.035 C 
ATOM     91  H21 non d ame      -7.722   9.937  64.333  0.00  0.00     0.037 H 
ATOM     92  H22 non d ame      -6.558   8.730  65.200  0.00  0.00     0.037 H 
BRANCH  90  93
ATOM     93  C17 non d ame      -6.894   8.384  63.113  0.00  0.00    -0.059 C 
ATOM     94  H23 non d ame      -6.897   7.295  63.159  0.00  0.00     0.038 H 
BRANCH  93  95
ATOM     95  C18 non d ame      -7.847   8.816  61.954  0.00  0.00    -0.073 C 
ATOM     96  H24 non d ame      -7.717   9.880  61.753  0.00  0.00     0.028 H 
ATOM     97  H25 non d ame      -7.609   8.246  61.056  0.00  0.00     0.028 H 
ATOM     98  H26 non d ame      -8.880   8.623  62.242  0.00  0.00     0.028 H 
ENDBRANCH  93  95
BRANCH  93  99
ATOM     99  C19 non d ame      -5.454   8.821  62.825  0.00  0.00    -0.073 C 
ATOM    100  H27 non d ame      -5.426   9.387  61.894  0.00  0.00     0.028 H 
ATOM    101  H28 non d ame      -5.094   9.446  63.643  0.00  0.00     0.028 H 
ATOM    102  H29 non d ame      -4.819   7.940  62.734  0.00  0.00     0.028 H 
ENDBRANCH  93  99
ENDBRANCH  90  93
ENDBRANCH   1  90
TORSDOF 26
ENDMDL
MODEL 20
REMARK VINA RESULT:      -6.0      3.921      8.816
REMARK  26 active torsions:
REMARK  status: ('A' for Active; 'I' for Inactive)
REMARK    1  A    between atoms: C2_2  and  C3_3 
REMARK    2  A    between atoms: C4_6  and  C5_7 
REMARK       I    between atoms: C5_7  and  N2_9 
REMARK    3  A    between atoms: N2_9  and  C6_10 
REMARK    4  A    between atoms: C6_10  and  C7_11 
REMARK    5  A    between atoms: C6_10  and  C8_13 
REMARK       I    between atoms: C7_11  and  N3_14 
REMARK    6  A    between atoms: N3_14  and  C9_15 
REMARK    7  A    between atoms: C9_15  and  C10_16 
REMARK    8  A    between atoms: C9_15  and  C11_18 
REMARK       I    between atoms: C10_16  and  N4_21 
REMARK    9  A    between atoms: C11_18  and  C12_19 
REMARK   10  A    between atoms: C11_18  and  C13_20 
REMARK   11  A    between atoms: N4_21  and  C14_22 
REMARK   12  A    between atoms: C14_22  and  C15_23 
REMARK   13  A    between atoms: C14_22  and  C16_25 
REMARK       I    between atoms: C15_23  and  N6_40 
REMARK   14  A    between atoms: C16_25  and  C17_26 
REMARK   15  A    between atoms: C17_26  and  C18_27 
REMARK   16  A    between atoms: C17_26  and  C19_28 
REMARK   17  A    between atoms: C20_29  and  C21_30 
REMARK   18  A    between atoms: C20_29  and  C24_33 
REMARK   19  A    between atoms: C20_29  and  N6_40 
REMARK   20  A    between atoms: C21_30  and  C22_31 
REMARK   21  A    between atoms: C22_31  and  C23_32 
REMARK   22  A    between atoms: C23_32  and  O8_43 
REMARK   23  A    between atoms: C24_33  and  C25_34 
REMARK   24  A    between atoms: C28_38  and  O6_39 
REMARK   25  A    between atoms: C29_42  and  O8_43 
REMARK   26  A    between atoms: C29_42  and  C35_49 
ROOT
ATOM      1  C14 non d ame      -6.784  10.202  66.767  0.00  0.00     0.089 C 
ATOM      2  H20 non d ame      -5.933   9.631  67.139  0.00  0.00     0.087 H 
ENDROOT
BRANCH   1   3
ATOM      3  N4  non d ame      -7.963   9.758  67.495  0.00  0.00    -0.346 N 
ATOM      4  C10 non d ame      -7.912   8.507  68.337  0.00  0.00     0.241 C 
ATOM      5  O4  non d ame      -6.910   7.874  68.410  0.00  0.00    -0.271 OA
ATOM      6  H19 non d ame      -8.806  10.310  67.417  0.00  0.00     0.163 HD
BRANCH   4   7
ATOM      7  C9  non d ame      -9.140   8.065  69.088  0.00  0.00     0.092 C 
ATOM      8  H11 non d ame      -8.883   7.912  70.136  0.00  0.00     0.088 H 
BRANCH   7   9
ATOM      9  N3  non d ame     -10.151   9.125  69.041  0.00  0.00    -0.346 N 
ATOM     10  C7  non d ame     -10.699   9.655  70.264  0.00  0.00     0.240 C 
ATOM     11  O3  non d ame     -10.338   9.238  71.298  0.00  0.00    -0.271 OA
ATOM     12  H10 non d ame     -10.473   9.493  68.157  0.00  0.00     0.163 HD
BRANCH  10  13
ATOM     13  C6  non d ame     -11.777  10.781  70.207  0.00  0.00     0.086 C 
ATOM     14  H6  non d ame     -11.491  11.668  70.772  0.00  0.00     0.086 H 
BRANCH  13  15
ATOM     15  N2  non d ame     -11.944  11.203  68.826  0.00  0.00    -0.343 N 
ATOM     16  C5  non d ame     -11.723  12.607  68.470  0.00  0.00     0.273 C 
ATOM     17  O2  non d ame     -11.414  13.388  69.301  0.00  0.00    -0.266 OA
ATOM     18  H5  non d ame     -12.210  10.530  68.122  0.00  0.00     0.163 HD
BRANCH  16  19
ATOM     19  C4  non d ame     -11.893  13.067  67.013  0.00  0.00     0.154 A 
ATOM     20  C1  non d ame     -11.748  12.271  65.833  0.00  0.00    -0.017 A 
ATOM     21  C2  non d ame     -12.006  13.157  64.763  0.00  0.00     0.077 A 
ATOM     22  H1  non d ame     -11.495  11.213  65.762  0.00  0.00     0.091 H 
ATOM     23  O1  non d ame     -12.270  14.322  65.280  0.00  0.00    -0.218 OA
ATOM     24  N1  non d ame     -12.209  14.294  66.592  0.00  0.00    -0.123 NA
BRANCH  21  25
ATOM     25  C3  non d ame     -11.983  12.811  63.281  0.00  0.00    -0.029 C 
ATOM     26  H2  non d ame     -13.000  12.831  62.886  0.00  0.00     0.036 H 
ATOM     27  H3  non d ame     -11.373  13.540  62.747  0.00  0.00     0.036 H 
ATOM     28  H4  non d ame     -11.560  11.815  63.145  0.00  0.00     0.036 H 
ENDBRANCH  21  25
ENDBRANCH  16  19
ENDBRANCH  13  15
BRANCH  13  29
ATOM     29  C8  non d ame     -13.083  10.258  70.748  0.00  0.00    -0.049 C 
ATOM     30  H7  non d ame     -13.888  10.945  70.482  0.00  0.00     0.030 H 
ATOM     31  H8  non d ame     -13.287   9.276  70.318  0.00  0.00     0.030 H 
ATOM     32  H9  non d ame     -13.021  10.175  71.832  0.00  0.00     0.030 H 
ENDBRANCH  13  29
ENDBRANCH  10  13
ENDBRANCH   7   9
BRANCH   7  33
ATOM     33  C11 non d ame      -9.713   6.775  68.431  0.00  0.00    -0.033 C 
ATOM     34  H12 non d ame      -8.867   6.155  68.133  0.00  0.00     0.042 H 
BRANCH  33  35
ATOM     35  C12 non d ame     -10.564   5.950  69.447  0.00  0.00    -0.071 C 
ATOM     36  H13 non d ame     -11.142   6.630  70.073  0.00  0.00     0.028 H 
ATOM     37  H14 non d ame     -11.241   5.292  68.903  0.00  0.00     0.028 H 
ATOM     38  H15 non d ame      -9.902   5.352  70.073  0.00  0.00     0.028 H 
ENDBRANCH  33  35
BRANCH  33  39
ATOM     39  C13 non d ame     -10.537   7.119  67.150  0.00  0.00    -0.071 C 
ATOM     40  H16 non d ame      -9.872   7.522  66.387  0.00  0.00     0.028 H 
ATOM     41  H17 non d ame     -11.017   6.215  66.772  0.00  0.00     0.028 H 
ATOM     42  H18 non d ame     -11.298   7.859  67.396  0.00  0.00     0.028 H 
ENDBRANCH  33  39
ENDBRANCH   7  33
ENDBRANCH   4   7
ENDBRANCH   1   3
BRANCH   1  43
ATOM     43  C15 non d ame      -6.610  11.731  66.993  0.00  0.00     0.240 C 
ATOM     44  O5  non d ame      -5.604  12.268  66.655  0.00  0.00    -0.271 OA
ATOM     45  N6  non d ame      -7.700  12.529  67.623  0.00  0.00    -0.355 N 
ATOM     46  H46 non d ame      -8.560  12.085  67.911  0.00  0.00     0.162 HD
BRANCH  45  47
ATOM     47  C20 non d ame      -7.519  13.982  67.830  0.00  0.00     0.013 C 
ATOM     48  H30 non d ame      -6.711  14.316  67.179  0.00  0.00     0.072 H 
BRANCH  47  49
ATOM     49  C21 non d ame      -7.156  14.240  69.276  0.00  0.00    -0.038 C 
ATOM     50  H31 non d ame      -7.713  15.132  69.564  0.00  0.00     0.036 H 
ATOM     51  H32 non d ame      -7.329  13.297  69.795  0.00  0.00     0.036 H 
BRANCH  49  52
ATOM     52  C22 non d ame      -5.662  14.577  69.468  0.00  0.00     0.018 C 
ATOM     53  H33 non d ame      -5.271  13.813  70.142  0.00  0.00     0.048 H 
ATOM     54  H34 non d ame      -5.251  14.679  68.463  0.00  0.00     0.048 H 
BRANCH  52  55
ATOM     55  C23 non d ame      -5.413  15.938  70.175  0.00  0.00     0.259 C 
ATOM     56  O7  non d ame      -4.830  15.982  71.209  0.00  0.00    -0.265 OA
BRANCH  55  57
ATOM     57  O8  non d ame      -5.903  17.133  69.579  0.00  0.00    -0.317 OA
BRANCH  57  58
ATOM     58  C29 non d ame      -4.969  17.774  68.705  0.00  0.00     0.052 C 
ATOM     59  H47 non d ame      -4.406  18.466  69.330  0.00  0.00     0.082 H 
ATOM     60  H48 non d ame      -4.453  16.968  68.183  0.00  0.00     0.082 H 
BRANCH  58  61
ATOM     61  C35 non d ame      -5.774  18.596  67.664  0.00  0.00    -0.034 A 
ATOM     62  C30 non d ame      -6.636  19.603  68.087  0.00  0.00    -0.075 A 
ATOM     63  C31 non d ame      -7.359  20.342  67.153  0.00  0.00    -0.082 A 
ATOM     64  H49 non d ame      -6.744  19.812  69.151  0.00  0.00     0.084 H 
ATOM     65  C32 non d ame      -7.220  20.069  65.789  0.00  0.00    -0.083 A 
ATOM     66  H50 non d ame      -8.032  21.130  67.488  0.00  0.00     0.083 H 
ATOM     67  C33 non d ame      -6.361  19.062  65.371  0.00  0.00    -0.082 A 
ATOM     68  H51 non d ame      -7.782  20.642  65.051  0.00  0.00     0.083 H 
ATOM     69  C34 non d ame      -5.635  18.322  66.302  0.00  0.00    -0.075 A 
ATOM     70  H52 non d ame      -6.257  18.850  64.306  0.00  0.00     0.083 H 
ATOM     71  H53 non d ame      -4.961  17.533  65.965  0.00  0.00     0.084 H 
ENDBRANCH  58  61
ENDBRANCH  57  58
ENDBRANCH  55  57
ENDBRANCH  52  55
ENDBRANCH  49  52
ENDBRANCH  47  49
BRANCH  47  72
ATOM     72  C24 non d ame      -8.813  14.717  67.490  0.00  0.00    -0.039 C 
ATOM     73  H35 non d ame      -9.107  14.348  66.507  0.00  0.00     0.036 H 
ATOM     74  H36 non d ame      -9.469  14.564  68.348  0.00  0.00     0.036 H 
BRANCH  72  75
ATOM     75  C25 non d ame      -8.579  16.296  67.351  0.00  0.00    -0.001 C 
ATOM     76  C26 non d ame      -9.287  17.081  68.611  0.00  0.00    -0.035 C 
ATOM     77  C27 non d ame     -10.073  18.069  68.124  0.00  0.00     0.085 C 
ATOM     78  H38 non d ame      -9.992  16.419  69.114  0.00  0.00     0.036 H 
ATOM     79  H39 non d ame      -8.533  17.616  69.190  0.00  0.00     0.036 H 
ATOM     80  N5  non d ame     -10.223  17.825  66.642  0.00  0.00    -0.049 N 
ATOM     81  H40 non d ame     -11.042  17.936  68.606  0.00  0.00     0.075 H 
ATOM     82  H41 non d ame      -9.511  18.990  68.275  0.00  0.00     0.075 H 
ATOM     83  C28 non d ame      -9.084  16.748  66.252  0.00  0.00     0.193 C 
ATOM     84  H42 non d ame     -11.128  17.395  66.513  0.00  0.00     0.280 HD
ATOM     85  H43 non d ame     -10.010  18.698  66.184  0.00  0.00     0.280 HD
ATOM     86  H44 non d ame      -8.179  17.065  65.733  0.00  0.00     0.129 H 
ATOM     87  H37 non d ame      -7.540  16.542  67.135  0.00  0.00     0.046 H 
BRANCH  83  88
ATOM     88  O6  non d ame      -9.643  15.709  65.447  0.00  0.00    -0.369 OA
ATOM     89  H45 non d ame      -9.970  15.007  66.014  0.00  0.00     0.212 HD
ENDBRANCH  83  88
ENDBRANCH  72  75
ENDBRANCH  47  72
ENDBRANCH  45  47
ENDBRANCH   1  43
BRANCH   1  90
ATOM     90  C16 non d ame      -6.981   9.924  65.285  0.00  0.00    -0.035 C 
ATOM     91  H21 non d ame      -7.002  10.905  64.808  0.00  0.00     0.037 H 
ATOM     92  H22 non d ame      -6.205   9.207  65.020  0.00  0.00     0.037 H 
BRANCH  90  93
ATOM     93  C17 non d ame      -8.346   9.243  64.951  0.00  0.00    -0.059 C 
ATOM     94  H23 non d ame      -8.912   9.165  65.880  0.00  0.00     0.038 H 
BRANCH  93  95
ATOM     95  C18 non d ame      -9.195  10.083  63.945  0.00  0.00    -0.073 C 
ATOM     96  H24 non d ame      -9.374  11.075  64.360  0.00  0.00     0.028 H 
ATOM     97  H25 non d ame      -8.654  10.176  63.003  0.00  0.00     0.028 H 
ATOM     98  H26 non d ame     -10.148   9.584  63.768  0.00  0.00     0.028 H 
ENDBRANCH  93  95
BRANCH  93  99
ATOM     99  C19 non d ame      -8.133   7.819  64.430  0.00  0.00    -0.073 C 
ATOM    100  H27 non d ame      -8.858   7.609  63.644  0.00  0.00     0.028 H 
ATOM    101  H28 non d ame      -7.123   7.727  64.029  0.00  0.00     0.028 H 
ATOM    102  H29 non d ame      -8.266   7.110  65.246  0.00  0.00     0.028 H 
ENDBRANCH  93  99
ENDBRANCH  90  93
ENDBRANCH   1  90
TORSDOF 26
ENDMDL
