MODEL 1
REMARK VINA RESULT:      -7.3      0.000      0.000
REMARK  26 active torsions:
REMARK  status: ('A' for Active; 'I' for Inactive)
REMARK    1  A    between atoms: C2_2  and  C3_3 
REMARK    2  A    between atoms: C4_6  and  C5_7 
REMARK       I    between atoms: C5_7  and  N2_9 
REMARK    3  A    between atoms: N2_9  and  C6_10 
REMARK    4  A    between atoms: C6_10  and  C7_11 
REMARK    5  A    between atoms: C6_10  and  C8_13 
REMARK       I    between atoms: C7_11  and  N3_14 
REMARK    6  A    between atoms: N3_14  and  C9_15 
REMARK    7  A    between atoms: C9_15  and  C10_16 
REMARK    8  A    between atoms: C9_15  and  C11_18 
REMARK       I    between atoms: C10_16  and  N4_21 
REMARK    9  A    between atoms: C11_18  and  C12_19 
REMARK   10  A    between atoms: C11_18  and  C13_20 
REMARK   11  A    between atoms: N4_21  and  C14_22 
REMARK   12  A    between atoms: C14_22  and  C15_23 
REMARK   13  A    between atoms: C14_22  and  C16_25 
REMARK       I    between atoms: C15_23  and  N6_40 
REMARK   14  A    between atoms: C16_25  and  C17_26 
REMARK   15  A    between atoms: C17_26  and  C18_27 
REMARK   16  A    between atoms: C17_26  and  C19_28 
REMARK   17  A    between atoms: C20_29  and  C21_30 
REMARK   18  A    between atoms: C20_29  and  C24_33 
REMARK   19  A    between atoms: C20_29  and  N6_40 
REMARK   20  A    between atoms: C21_30  and  C22_31 
REMARK   21  A    between atoms: C22_31  and  C23_32 
REMARK   22  A    between atoms: C23_32  and  O8_43 
REMARK   23  A    between atoms: C24_33  and  C25_34 
REMARK   24  A    between atoms: C28_38  and  O6_39 
REMARK   25  A    between atoms: C29_42  and  O8_43 
REMARK   26  A    between atoms: C29_42  and  C35_49 
ROOT
ATOM      1  C14 non d ame      -7.168  14.191  67.797  0.00  0.00     0.089 C 
ATOM      2  H20 non d ame      -6.721  14.585  66.885  0.00  0.00     0.087 H 
ENDROOT
BRANCH   1   3
ATOM      3  N4  non d ame      -8.256  15.083  68.172  0.00  0.00    -0.346 N 
ATOM      4  C10 non d ame      -8.946  15.923  67.128  0.00  0.00     0.241 C 
ATOM      5  O4  non d ame      -8.607  15.867  65.992  0.00  0.00    -0.271 OA
ATOM      6  H19 non d ame      -8.527  15.118  69.145  0.00  0.00     0.163 HD
BRANCH   4   7
ATOM      7  C9  non d ame     -10.073  16.836  67.533  0.00  0.00     0.092 C 
ATOM      8  H11 non d ame     -10.885  16.746  66.811  0.00  0.00     0.088 H 
BRANCH   7   9
ATOM      9  N3  non d ame     -10.603  16.413  68.833  0.00  0.00    -0.346 N 
ATOM     10  C7  non d ame     -11.636  15.410  68.900  0.00  0.00     0.240 C 
ATOM     11  O3  non d ame     -12.056  14.934  67.916  0.00  0.00    -0.271 OA
ATOM     12  H10 non d ame     -10.252  16.817  69.690  0.00  0.00     0.163 HD
BRANCH  10  13
ATOM     13  C6  non d ame     -12.197  14.967  70.286  0.00  0.00     0.086 C 
ATOM     14  H6  non d ame     -13.268  15.147  70.386  0.00  0.00     0.086 H 
BRANCH  13  15
ATOM     15  N2  non d ame     -12.001  13.535  70.438  0.00  0.00    -0.343 N 
ATOM     16  C5  non d ame     -12.926  12.765  71.272  0.00  0.00     0.273 C 
ATOM     17  O2  non d ame     -13.824  13.307  71.818  0.00  0.00    -0.266 OA
ATOM     18  H5  non d ame     -11.230  13.080  69.970  0.00  0.00     0.163 HD
BRANCH  16  19
ATOM     19  C4  non d ame     -12.732  11.250  71.440  0.00  0.00     0.154 A 
ATOM     20  C1  non d ame     -11.763  10.425  70.786  0.00  0.00    -0.017 A 
ATOM     21  C2  non d ame     -12.000   9.123  71.279  0.00  0.00     0.077 A 
ATOM     22  H1  non d ame     -11.003  10.725  70.063  0.00  0.00     0.091 H 
ATOM     23  O1  non d ame     -12.991   9.202  72.120  0.00  0.00    -0.218 OA
ATOM     24  N1  non d ame     -13.435  10.433  72.229  0.00  0.00    -0.123 NA
BRANCH  21  25
ATOM     25  C3  non d ame     -11.237   7.861  70.900  0.00  0.00    -0.029 C 
ATOM     26  H2  non d ame     -11.789   6.985  71.240  0.00  0.00     0.036 H 
ATOM     27  H3  non d ame     -11.120   7.819  69.817  0.00  0.00     0.036 H 
ATOM     28  H4  non d ame     -10.253   7.876  71.370  0.00  0.00     0.036 H 
ENDBRANCH  21  25
ENDBRANCH  16  19
ENDBRANCH  13  15
BRANCH  13  29
ATOM     29  C8  non d ame     -11.475  15.706  71.384  0.00  0.00    -0.049 C 
ATOM     30  H7  non d ame     -11.020  16.609  70.977  0.00  0.00     0.030 H 
ATOM     31  H8  non d ame     -12.185  15.979  72.166  0.00  0.00     0.030 H 
ATOM     32  H9  non d ame     -10.700  15.067  71.803  0.00  0.00     0.030 H 
ENDBRANCH  13  29
ENDBRANCH  10  13
ENDBRANCH   7   9
BRANCH   7  33
ATOM     33  C11 non d ame      -9.545  18.297  67.641  0.00  0.00    -0.033 C 
ATOM     34  H12 non d ame      -8.460  18.262  67.539  0.00  0.00     0.042 H 
BRANCH  33  35
ATOM     35  C12 non d ame     -10.097  19.187  66.484  0.00  0.00    -0.071 C 
ATOM     36  H13 non d ame     -10.746  19.959  66.898  0.00  0.00     0.028 H 
ATOM     37  H14 non d ame      -9.265  19.656  65.958  0.00  0.00     0.028 H 
ATOM     38  H15 non d ame     -10.663  18.569  65.788  0.00  0.00     0.028 H 
ENDBRANCH  33  35
BRANCH  33  39
ATOM     39  C13 non d ame      -9.881  18.911  69.038  0.00  0.00    -0.071 C 
ATOM     40  H16 non d ame      -9.585  19.959  69.054  0.00  0.00     0.028 H 
ATOM     41  H17 non d ame     -10.952  18.832  69.222  0.00  0.00     0.028 H 
ATOM     42  H18 non d ame      -9.338  18.368  69.811  0.00  0.00     0.028 H 
ENDBRANCH  33  39
ENDBRANCH   7  33
ENDBRANCH   4   7
ENDBRANCH   1   3
BRANCH   1  43
ATOM     43  C15 non d ame      -7.747  12.761  67.599  0.00  0.00     0.240 C 
ATOM     44  O5  non d ame      -7.868  12.037  68.534  0.00  0.00    -0.271 OA
ATOM     45  N6  non d ame      -8.159  12.296  66.244  0.00  0.00    -0.355 N 
ATOM     46  H46 non d ame      -8.065  12.903  65.442  0.00  0.00     0.162 HD
BRANCH  45  47
ATOM     47  C20 non d ame      -8.708  10.934  66.072  0.00  0.00     0.013 C 
ATOM     48  H30 non d ame      -8.826  10.492  67.062  0.00  0.00     0.072 H 
BRANCH  47  49
ATOM     49  C21 non d ame      -7.747  10.106  65.249  0.00  0.00    -0.038 C 
ATOM     50  H31 non d ame      -7.603  10.658  64.320  0.00  0.00     0.036 H 
ATOM     51  H32 non d ame      -6.896   9.908  65.903  0.00  0.00     0.036 H 
BRANCH  49  52
ATOM     52  C22 non d ame      -8.324   8.730  64.856  0.00  0.00     0.018 C 
ATOM     53  H33 non d ame      -7.757   7.996  65.430  0.00  0.00     0.048 H 
ATOM     54  H34 non d ame      -9.403   8.812  64.993  0.00  0.00     0.048 H 
BRANCH  52  55
ATOM     55  C23 non d ame      -8.108   8.364  63.361  0.00  0.00     0.259 C 
ATOM     56  O7  non d ame      -8.616   9.010  62.504  0.00  0.00    -0.265 OA
BRANCH  55  57
ATOM     57  O8  non d ame      -7.305   7.238  63.028  0.00  0.00    -0.317 OA
BRANCH  57  58
ATOM     58  C29 non d ame      -7.203   6.265  64.072  0.00  0.00     0.052 C 
ATOM     59  H47 non d ame      -6.297   5.698  63.860  0.00  0.00     0.082 H 
ATOM     60  H48 non d ame      -7.292   6.823  65.004  0.00  0.00     0.082 H 
BRANCH  58  61
ATOM     61  C35 non d ame      -8.420   5.308  63.955  0.00  0.00    -0.034 A 
ATOM     62  C30 non d ame      -8.842   4.867  62.706  0.00  0.00    -0.075 A 
ATOM     63  C31 non d ame      -9.934   4.008  62.600  0.00  0.00    -0.082 A 
ATOM     64  H49 non d ame      -8.317   5.195  61.809  0.00  0.00     0.084 H 
ATOM     65  C32 non d ame     -10.607   3.591  63.752  0.00  0.00    -0.083 A 
ATOM     66  H50 non d ame     -10.261   3.663  61.620  0.00  0.00     0.083 H 
ATOM     67  C33 non d ame     -10.185   4.036  64.997  0.00  0.00    -0.082 A 
ATOM     68  H51 non d ame     -11.462   2.919  63.679  0.00  0.00     0.083 H 
ATOM     69  C34 non d ame      -9.091   4.893  65.107  0.00  0.00    -0.075 A 
ATOM     70  H52 non d ame     -10.714   3.711  65.894  0.00  0.00     0.083 H 
ATOM     71  H53 non d ame      -8.765   5.238  66.089  0.00  0.00     0.084 H 
ENDBRANCH  58  61
ENDBRANCH  57  58
ENDBRANCH  55  57
ENDBRANCH  52  55
ENDBRANCH  49  52
ENDBRANCH  47  49
BRANCH  47  72
ATOM     72  C24 non d ame     -10.057  11.007  65.360  0.00  0.00    -0.039 C 
ATOM     73  H35 non d ame     -10.069  10.160  64.673  0.00  0.00     0.036 H 
ATOM     74  H36 non d ame     -10.802  11.075  66.153  0.00  0.00     0.036 H 
BRANCH  72  75
ATOM     75  C25 non d ame     -10.187  12.336  64.474  0.00  0.00    -0.001 C 
ATOM     76  C26 non d ame     -11.258  13.371  65.171  0.00  0.00    -0.035 C 
ATOM     77  C27 non d ame     -12.168  13.750  64.242  0.00  0.00     0.085 C 
ATOM     78  H38 non d ame     -11.856  12.845  65.914  0.00  0.00     0.036 H 
ATOM     79  H39 non d ame     -10.758  14.304  65.434  0.00  0.00     0.036 H 
ATOM     80  N5  non d ame     -12.011  12.818  63.065  0.00  0.00    -0.049 N 
ATOM     81  H40 non d ame     -13.142  13.581  64.702  0.00  0.00     0.075 H 
ATOM     82  H41 non d ame     -11.874  14.755  63.939  0.00  0.00     0.075 H 
ATOM     83  C28 non d ame     -10.600  12.063  63.280  0.00  0.00     0.193 C 
ATOM     84  H42 non d ame     -12.754  12.137  63.138  0.00  0.00     0.280 HD
ATOM     85  H43 non d ame     -11.941  13.401  62.244  0.00  0.00     0.280 HD
ATOM     86  H44 non d ame      -9.724  12.349  62.697  0.00  0.00     0.129 H 
ATOM     87  H37 non d ame      -9.216  12.741  64.193  0.00  0.00     0.046 H 
BRANCH  83  88
ATOM     88  O6  non d ame     -10.756  10.659  63.071  0.00  0.00    -0.369 OA
ATOM     89  H45 non d ame      -9.917  10.218  63.223  0.00  0.00     0.212 HD
ENDBRANCH  83  88
ENDBRANCH  72  75
ENDBRANCH  47  72
ENDBRANCH  45  47
ENDBRANCH   1  43
BRANCH   1  90
ATOM     90  C16 non d ame      -6.133  14.174  68.911  0.00  0.00    -0.035 C 
ATOM     91  H21 non d ame      -6.705  14.247  69.837  0.00  0.00     0.037 H 
ATOM     92  H22 non d ame      -5.518  13.295  68.720  0.00  0.00     0.037 H 
BRANCH  90  93
ATOM     93  C17 non d ame      -5.169  15.402  68.890  0.00  0.00    -0.059 C 
ATOM     94  H23 non d ame      -4.167  15.039  69.119  0.00  0.00     0.038 H 
BRANCH  93  95
ATOM     95  C18 non d ame      -5.119  16.088  67.488  0.00  0.00    -0.073 C 
ATOM     96  H24 non d ame      -5.251  17.164  67.606  0.00  0.00     0.028 H 
ATOM     97  H25 non d ame      -4.154  15.891  67.021  0.00  0.00     0.028 H 
ATOM     98  H26 non d ame      -5.915  15.690  66.859  0.00  0.00     0.028 H 
ENDBRANCH  93  95
BRANCH  93  99
ATOM     99  C19 non d ame      -5.546  16.411  69.978  0.00  0.00    -0.073 C 
ATOM    100  H27 non d ame      -6.264  17.126  69.577  0.00  0.00     0.028 H 
ATOM    101  H28 non d ame      -5.990  15.885  70.824  0.00  0.00     0.028 H 
ATOM    102  H29 non d ame      -4.652  16.940  70.307  0.00  0.00     0.028 H 
ENDBRANCH  93  99
ENDBRANCH  90  93
ENDBRANCH   1  90
TORSDOF 26
ENDMDL
MODEL 2
REMARK VINA RESULT:      -6.9      3.233      6.741
REMARK  26 active torsions:
REMARK  status: ('A' for Active; 'I' for Inactive)
REMARK    1  A    between atoms: C2_2  and  C3_3 
REMARK    2  A    between atoms: C4_6  and  C5_7 
REMARK       I    between atoms: C5_7  and  N2_9 
REMARK    3  A    between atoms: N2_9  and  C6_10 
REMARK    4  A    between atoms: C6_10  and  C7_11 
REMARK    5  A    between atoms: C6_10  and  C8_13 
REMARK       I    between atoms: C7_11  and  N3_14 
REMARK    6  A    between atoms: N3_14  and  C9_15 
REMARK    7  A    between atoms: C9_15  and  C10_16 
REMARK    8  A    between atoms: C9_15  and  C11_18 
REMARK       I    between atoms: C10_16  and  N4_21 
REMARK    9  A    between atoms: C11_18  and  C12_19 
REMARK   10  A    between atoms: C11_18  and  C13_20 
REMARK   11  A    between atoms: N4_21  and  C14_22 
REMARK   12  A    between atoms: C14_22  and  C15_23 
REMARK   13  A    between atoms: C14_22  and  C16_25 
REMARK       I    between atoms: C15_23  and  N6_40 
REMARK   14  A    between atoms: C16_25  and  C17_26 
REMARK   15  A    between atoms: C17_26  and  C18_27 
REMARK   16  A    between atoms: C17_26  and  C19_28 
REMARK   17  A    between atoms: C20_29  and  C21_30 
REMARK   18  A    between atoms: C20_29  and  C24_33 
REMARK   19  A    between atoms: C20_29  and  N6_40 
REMARK   20  A    between atoms: C21_30  and  C22_31 
REMARK   21  A    between atoms: C22_31  and  C23_32 
REMARK   22  A    between atoms: C23_32  and  O8_43 
REMARK   23  A    between atoms: C24_33  and  C25_34 
REMARK   24  A    between atoms: C28_38  and  O6_39 
REMARK   25  A    between atoms: C29_42  and  O8_43 
REMARK   26  A    between atoms: C29_42  and  C35_49 
ROOT
ATOM      1  C14 non d ame      -6.113  15.914  67.632  0.00  0.00     0.089 C 
ATOM      2  H20 non d ame      -5.619  16.403  66.792  0.00  0.00     0.087 H 
ENDROOT
BRANCH   1   3
ATOM      3  N4  non d ame      -7.543  16.142  67.493  0.00  0.00    -0.346 N 
ATOM      4  C10 non d ame      -8.067  17.066  66.423  0.00  0.00     0.241 C 
ATOM      5  O4  non d ame      -7.316  17.618  65.687  0.00  0.00    -0.271 OA
ATOM      6  H19 non d ame      -8.165  15.664  68.131  0.00  0.00     0.163 HD
BRANCH   4   7
ATOM      7  C9  non d ame      -9.551  17.287  66.289  0.00  0.00     0.092 C 
ATOM      8  H11 non d ame      -9.742  17.924  65.426  0.00  0.00     0.088 H 
BRANCH   7   9
ATOM      9  N3  non d ame     -10.214  16.004  66.035  0.00  0.00    -0.346 N 
ATOM     10  C7  non d ame     -11.066  15.848  64.882  0.00  0.00     0.240 C 
ATOM     11  O3  non d ame     -11.229  16.746  64.148  0.00  0.00    -0.271 OA
ATOM     12  H10 non d ame     -10.084  15.222  66.661  0.00  0.00     0.163 HD
BRANCH  10  13
ATOM     13  C6  non d ame     -11.772  14.482  64.619  0.00  0.00     0.086 C 
ATOM     14  H6  non d ame     -12.382  14.489  63.716  0.00  0.00     0.086 H 
BRANCH  13  15
ATOM     15  N2  non d ame     -10.759  13.457  64.430  0.00  0.00    -0.343 N 
ATOM     16  C5  non d ame     -11.080  12.263  63.644  0.00  0.00     0.273 C 
ATOM     17  O2  non d ame     -12.156  12.136  63.172  0.00  0.00    -0.266 OA
ATOM     18  H5  non d ame      -9.843  13.573  64.838  0.00  0.00     0.163 HD
BRANCH  16  19
ATOM     19  C4  non d ame     -10.018  11.172  63.433  0.00  0.00     0.154 A 
ATOM     20  C1  non d ame      -8.989  11.148  62.439  0.00  0.00    -0.017 A 
ATOM     21  C2  non d ame      -8.288   9.944  62.670  0.00  0.00     0.077 A 
ATOM     22  H1  non d ame      -8.782  11.891  61.668  0.00  0.00     0.091 H 
ATOM     23  O1  non d ame      -8.855   9.353  63.682  0.00  0.00    -0.218 OA
ATOM     24  N1  non d ame      -9.867  10.051  64.144  0.00  0.00    -0.123 NA
BRANCH  21  25
ATOM     25  C3  non d ame      -7.090   9.433  61.882  0.00  0.00    -0.029 C 
ATOM     26  H2  non d ame      -7.320   9.452  60.816  0.00  0.00     0.036 H 
ATOM     27  H3  non d ame      -6.228  10.070  62.079  0.00  0.00     0.036 H 
ATOM     28  H4  non d ame      -6.862   8.411  62.187  0.00  0.00     0.036 H 
ENDBRANCH  21  25
ENDBRANCH  16  19
ENDBRANCH  13  15
BRANCH  13  29
ATOM     29  C8  non d ame     -12.647  14.131  65.795  0.00  0.00    -0.049 C 
ATOM     30  H7  non d ame     -12.167  14.461  66.717  0.00  0.00     0.030 H 
ATOM     31  H8  non d ame     -13.613  14.627  65.690  0.00  0.00     0.030 H 
ATOM     32  H9  non d ame     -12.794  13.052  65.830  0.00  0.00     0.030 H 
ENDBRANCH  13  29
ENDBRANCH  10  13
ENDBRANCH   7   9
BRANCH   7  33
ATOM     33  C11 non d ame     -10.105  17.903  67.607  0.00  0.00    -0.033 C 
ATOM     34  H12 non d ame      -9.253  18.110  68.256  0.00  0.00     0.042 H 
BRANCH  33  35
ATOM     35  C12 non d ame     -10.831  19.258  67.339  0.00  0.00    -0.071 C 
ATOM     36  H13 non d ame     -11.668  19.093  66.661  0.00  0.00     0.028 H 
ATOM     37  H14 non d ame     -11.200  19.665  68.280  0.00  0.00     0.028 H 
ATOM     38  H15 non d ame     -10.131  19.962  66.890  0.00  0.00     0.028 H 
ENDBRANCH  33  35
BRANCH  33  39
ATOM     39  C13 non d ame     -11.042  16.894  68.345  0.00  0.00    -0.071 C 
ATOM     40  H16 non d ame     -12.069  17.256  68.305  0.00  0.00     0.028 H 
ATOM     41  H17 non d ame     -10.980  15.919  67.861  0.00  0.00     0.028 H 
ATOM     42  H18 non d ame     -10.729  16.804  69.385  0.00  0.00     0.028 H 
ENDBRANCH  33  39
ENDBRANCH   7  33
ENDBRANCH   4   7
ENDBRANCH   1   3
BRANCH   1  43
ATOM     43  C15 non d ame      -5.856  14.380  67.652  0.00  0.00     0.240 C 
ATOM     44  O5  non d ame      -4.747  13.965  67.539  0.00  0.00    -0.271 OA
ATOM     45  N6  non d ame      -6.989  13.427  67.822  0.00  0.00    -0.355 N 
ATOM     46  H46 non d ame      -7.935  13.768  67.923  0.00  0.00     0.162 HD
BRANCH  45  47
ATOM     47  C20 non d ame      -6.728  11.972  67.840  0.00  0.00     0.013 C 
ATOM     48  H30 non d ame      -5.777  11.796  67.337  0.00  0.00     0.072 H 
BRANCH  47  49
ATOM     49  C21 non d ame      -7.840  11.254  67.109  0.00  0.00    -0.038 C 
ATOM     50  H31 non d ame      -7.612  11.362  66.048  0.00  0.00     0.036 H 
ATOM     51  H32 non d ame      -7.894  10.262  67.558  0.00  0.00     0.036 H 
BRANCH  49  52
ATOM     52  C22 non d ame      -9.221  11.908  67.328  0.00  0.00     0.018 C 
ATOM     53  H33 non d ame      -9.144  12.455  68.268  0.00  0.00     0.048 H 
ATOM     54  H34 non d ame      -9.445  12.441  66.404  0.00  0.00     0.048 H 
BRANCH  52  55
ATOM     55  C23 non d ame     -10.374  10.884  67.523  0.00  0.00     0.259 C 
ATOM     56  O7  non d ame     -11.433  11.066  67.018  0.00  0.00    -0.265 OA
BRANCH  55  57
ATOM     57  O8  non d ame     -10.153   9.730  68.325  0.00  0.00    -0.317 OA
BRANCH  57  58
ATOM     58  C29 non d ame      -9.825  10.021  69.687  0.00  0.00     0.052 C 
ATOM     59  H47 non d ame      -9.096   9.267  69.983  0.00  0.00     0.082 H 
ATOM     60  H48 non d ame      -9.555  11.077  69.706  0.00  0.00     0.082 H 
BRANCH  58  61
ATOM     61  C35 non d ame     -11.107   9.827  70.540  0.00  0.00    -0.034 A 
ATOM     62  C30 non d ame     -11.968  10.898  70.756  0.00  0.00    -0.075 A 
ATOM     63  C31 non d ame     -13.119  10.724  71.523  0.00  0.00    -0.082 A 
ATOM     64  H49 non d ame     -11.741  11.872  70.326  0.00  0.00     0.084 H 
ATOM     65  C32 non d ame     -13.407   9.473  72.076  0.00  0.00    -0.083 A 
ATOM     66  H50 non d ame     -13.793  11.564  71.689  0.00  0.00     0.083 H 
ATOM     67  C33 non d ame     -12.543   8.408  71.861  0.00  0.00    -0.082 A 
ATOM     68  H51 non d ame     -14.305   9.328  72.677  0.00  0.00     0.083 H 
ATOM     69  C34 non d ame     -11.392   8.577  71.093  0.00  0.00    -0.075 A 
ATOM     70  H52 non d ame     -12.769   7.434  72.296  0.00  0.00     0.083 H 
ATOM     71  H53 non d ame     -10.719   7.735  70.927  0.00  0.00     0.084 H 
ENDBRANCH  58  61
ENDBRANCH  57  58
ENDBRANCH  55  57
ENDBRANCH  52  55
ENDBRANCH  49  52
ENDBRANCH  47  49
BRANCH  47  72
ATOM     72  C24 non d ame      -6.664  11.477  69.283  0.00  0.00    -0.039 C 
ATOM     73  H35 non d ame      -7.202  12.223  69.870  0.00  0.00     0.036 H 
ATOM     74  H36 non d ame      -7.021  10.447  69.254  0.00  0.00     0.036 H 
BRANCH  72  75
ATOM     75  C25 non d ame      -5.159  11.440  69.831  0.00  0.00    -0.001 C 
ATOM     76  C26 non d ame      -4.817   9.947  70.430  0.00  0.00    -0.035 C 
ATOM     77  C27 non d ame      -4.308  10.083  71.677  0.00  0.00     0.085 C 
ATOM     78  H38 non d ame      -5.739   9.389  70.590  0.00  0.00     0.036 H 
ATOM     79  H39 non d ame      -3.998   9.497  69.868  0.00  0.00     0.036 H 
ATOM     80  N5  non d ame      -4.575  11.504  72.111  0.00  0.00    -0.049 N 
ATOM     81  H40 non d ame      -4.888   9.405  72.305  0.00  0.00     0.075 H 
ATOM     82  H41 non d ame      -3.233   9.941  71.570  0.00  0.00     0.075 H 
ATOM     83  C28 non d ame      -4.983  12.308  70.771  0.00  0.00     0.193 C 
ATOM     84  H42 non d ame      -5.378  11.471  72.723  0.00  0.00     0.280 HD
ATOM     85  H43 non d ame      -3.697  11.870  72.450  0.00  0.00     0.280 HD
ATOM     86  H44 non d ame      -4.271  12.980  70.291  0.00  0.00     0.129 H 
ATOM     87  H37 non d ame      -4.451  11.864  69.120  0.00  0.00     0.046 H 
BRANCH  83  88
ATOM     88  O6  non d ame      -6.152  13.095  71.006  0.00  0.00    -0.369 OA
ATOM     89  H45 non d ame      -6.933  12.564  70.838  0.00  0.00     0.212 HD
ENDBRANCH  83  88
ENDBRANCH  72  75
ENDBRANCH  47  72
ENDBRANCH  45  47
ENDBRANCH   1  43
BRANCH   1  90
ATOM     90  C16 non d ame      -5.637  16.529  68.939  0.00  0.00    -0.035 C 
ATOM     91  H21 non d ame      -6.510  16.530  69.592  0.00  0.00     0.037 H 
ATOM     92  H22 non d ame      -4.749  15.963  69.217  0.00  0.00     0.037 H 
BRANCH  90  93
ATOM     93  C17 non d ame      -5.187  18.018  68.802  0.00  0.00    -0.059 C 
ATOM     94  H23 non d ame      -4.922  18.189  67.759  0.00  0.00     0.038 H 
BRANCH  93  95
ATOM     95  C18 non d ame      -6.328  19.016  69.175  0.00  0.00    -0.073 C 
ATOM     96  H24 non d ame      -5.987  20.038  69.007  0.00  0.00     0.028 H 
ATOM     97  H25 non d ame      -7.201  18.820  68.551  0.00  0.00     0.028 H 
ATOM     98  H26 non d ame      -6.596  18.889  70.223  0.00  0.00     0.028 H 
ENDBRANCH  93  95
BRANCH  93  99
ATOM     99  C19 non d ame      -3.932  18.288  69.638  0.00  0.00    -0.073 C 
ATOM    100  H27 non d ame      -3.732  19.360  69.656  0.00  0.00     0.028 H 
ATOM    101  H28 non d ame      -4.089  17.930  70.655  0.00  0.00     0.028 H 
ATOM    102  H29 non d ame      -3.083  17.768  69.196  0.00  0.00     0.028 H 
ENDBRANCH  93  99
ENDBRANCH  90  93
ENDBRANCH   1  90
TORSDOF 26
ENDMDL
MODEL 3
REMARK VINA RESULT:      -6.9      3.080      9.353
REMARK  26 active torsions:
REMARK  status: ('A' for Active; 'I' for Inactive)
REMARK    1  A    between atoms: C2_2  and  C3_3 
REMARK    2  A    between atoms: C4_6  and  C5_7 
REMARK       I    between atoms: C5_7  and  N2_9 
REMARK    3  A    between atoms: N2_9  and  C6_10 
REMARK    4  A    between atoms: C6_10  and  C7_11 
REMARK    5  A    between atoms: C6_10  and  C8_13 
REMARK       I    between atoms: C7_11  and  N3_14 
REMARK    6  A    between atoms: N3_14  and  C9_15 
REMARK    7  A    between atoms: C9_15  and  C10_16 
REMARK    8  A    between atoms: C9_15  and  C11_18 
REMARK       I    between atoms: C10_16  and  N4_21 
REMARK    9  A    between atoms: C11_18  and  C12_19 
REMARK   10  A    between atoms: C11_18  and  C13_20 
REMARK   11  A    between atoms: N4_21  and  C14_22 
REMARK   12  A    between atoms: C14_22  and  C15_23 
REMARK   13  A    between atoms: C14_22  and  C16_25 
REMARK       I    between atoms: C15_23  and  N6_40 
REMARK   14  A    between atoms: C16_25  and  C17_26 
REMARK   15  A    between atoms: C17_26  and  C18_27 
REMARK   16  A    between atoms: C17_26  and  C19_28 
REMARK   17  A    between atoms: C20_29  and  C21_30 
REMARK   18  A    between atoms: C20_29  and  C24_33 
REMARK   19  A    between atoms: C20_29  and  N6_40 
REMARK   20  A    between atoms: C21_30  and  C22_31 
REMARK   21  A    between atoms: C22_31  and  C23_32 
REMARK   22  A    between atoms: C23_32  and  O8_43 
REMARK   23  A    between atoms: C24_33  and  C25_34 
REMARK   24  A    between atoms: C28_38  and  O6_39 
REMARK   25  A    between atoms: C29_42  and  O8_43 
REMARK   26  A    between atoms: C29_42  and  C35_49 
ROOT
ATOM      1  C14 non d ame     -10.821   9.440  70.013  0.00  0.00     0.089 C 
ATOM      2  H20 non d ame     -11.120   8.554  69.454  0.00  0.00     0.087 H 
ENDROOT
BRANCH   1   3
ATOM      3  N4  non d ame      -9.451   9.754  69.638  0.00  0.00    -0.346 N 
ATOM      4  C10 non d ame      -8.521   8.664  69.167  0.00  0.00     0.241 C 
ATOM      5  O4  non d ame      -8.898   7.540  69.102  0.00  0.00    -0.271 OA
ATOM      6  H19 non d ame      -9.149  10.716  69.703  0.00  0.00     0.163 HD
BRANCH   4   7
ATOM      7  C9  non d ame      -7.107   9.008  68.777  0.00  0.00     0.092 C 
ATOM      8  H11 non d ame      -6.554   8.088  68.586  0.00  0.00     0.088 H 
BRANCH   7   9
ATOM      9  N3  non d ame      -7.118   9.773  67.527  0.00  0.00    -0.346 N 
ATOM     10  C7  non d ame      -6.950   9.096  66.265  0.00  0.00     0.240 C 
ATOM     11  O3  non d ame      -6.804   7.935  66.237  0.00  0.00    -0.271 OA
ATOM     12  H10 non d ame      -7.241  10.776  67.535  0.00  0.00     0.163 HD
BRANCH  10  13
ATOM     13  C6  non d ame      -6.959   9.917  64.938  0.00  0.00     0.086 C 
ATOM     14  H6  non d ame      -7.180   9.305  64.064  0.00  0.00     0.086 H 
BRANCH  13  15
ATOM     15  N2  non d ame      -8.003  10.926  65.015  0.00  0.00    -0.343 N 
ATOM     16  C5  non d ame      -9.405  10.522  64.892  0.00  0.00     0.273 C 
ATOM     17  O2  non d ame      -9.682   9.384  64.729  0.00  0.00    -0.266 OA
ATOM     18  H5  non d ame      -7.757  11.895  65.152  0.00  0.00     0.163 HD
BRANCH  16  19
ATOM     19  C4  non d ame     -10.520  11.576  64.973  0.00  0.00     0.154 A 
ATOM     20  C1  non d ame     -10.541  12.862  64.345  0.00  0.00    -0.017 A 
ATOM     21  C2  non d ame     -11.774  13.435  64.730  0.00  0.00     0.077 A 
ATOM     22  H1  non d ame      -9.779  13.311  63.706  0.00  0.00     0.091 H 
ATOM     23  O1  non d ame     -12.382  12.571  65.490  0.00  0.00    -0.218 OA
ATOM     24  N1  non d ame     -11.669  11.479  65.647  0.00  0.00    -0.123 NA
BRANCH  21  25
ATOM     25  C3  non d ame     -12.294  14.808  64.329  0.00  0.00    -0.029 C 
ATOM     26  H2  non d ame     -11.668  15.581  64.778  0.00  0.00     0.036 H 
ATOM     27  H3  non d ame     -12.265  14.904  63.243  0.00  0.00     0.036 H 
ATOM     28  H4  non d ame     -13.321  14.925  64.676  0.00  0.00     0.036 H 
ENDBRANCH  21  25
ENDBRANCH  16  19
ENDBRANCH  13  15
BRANCH  13  29
ATOM     29  C8  non d ame      -5.618  10.577  64.743  0.00  0.00    -0.049 C 
ATOM     30  H7  non d ame      -5.743  11.491  64.163  0.00  0.00     0.030 H 
ATOM     31  H8  non d ame      -5.188  10.821  65.716  0.00  0.00     0.030 H 
ATOM     32  H9  non d ame      -4.952   9.899  64.212  0.00  0.00     0.030 H 
ENDBRANCH  13  29
ENDBRANCH  10  13
ENDBRANCH   7   9
BRANCH   7  33
ATOM     33  C11 non d ame      -6.452   9.863  69.901  0.00  0.00    -0.033 C 
ATOM     34  H12 non d ame      -7.203  10.017  70.676  0.00  0.00     0.042 H 
BRANCH  33  35
ATOM     35  C12 non d ame      -5.249   9.115  70.556  0.00  0.00    -0.071 C 
ATOM     36  H13 non d ame      -5.353   8.043  70.387  0.00  0.00     0.028 H 
ATOM     37  H14 non d ame      -4.318   9.463  70.110  0.00  0.00     0.028 H 
ATOM     38  H15 non d ame      -5.236   9.316  71.626  0.00  0.00     0.028 H 
ENDBRANCH  33  35
BRANCH  33  39
ATOM     39  C13 non d ame      -6.021  11.263  69.358  0.00  0.00    -0.071 C 
ATOM     40  H16 non d ame      -6.893  11.786  68.968  0.00  0.00     0.028 H 
ATOM     41  H17 non d ame      -5.578  11.846  70.166  0.00  0.00     0.028 H 
ATOM     42  H18 non d ame      -5.289  11.133  68.561  0.00  0.00     0.028 H 
ENDBRANCH  33  39
ENDBRANCH   7  33
ENDBRANCH   4   7
ENDBRANCH   1   3
BRANCH   1  43
ATOM     43  C15 non d ame     -11.717  10.669  69.690  0.00  0.00     0.240 C 
ATOM     44  O5  non d ame     -12.588  10.572  68.886  0.00  0.00    -0.271 OA
ATOM     45  N6  non d ame     -11.497  11.967  70.390  0.00  0.00    -0.355 N 
ATOM     46  H46 non d ame     -10.764  12.061  71.078  0.00  0.00     0.162 HD
BRANCH  45  47
ATOM     47  C20 non d ame     -12.359  13.126  70.072  0.00  0.00     0.013 C 
ATOM     48  H30 non d ame     -13.043  12.828  69.278  0.00  0.00     0.072 H 
BRANCH  47  49
ATOM     49  C21 non d ame     -11.497  14.278  69.606  0.00  0.00    -0.038 C 
ATOM     50  H31 non d ame     -12.124  15.166  69.684  0.00  0.00     0.036 H 
ATOM     51  H32 non d ame     -10.575  14.207  70.184  0.00  0.00     0.036 H 
BRANCH  49  52
ATOM     52  C22 non d ame     -11.090  14.159  68.121  0.00  0.00     0.018 C 
ATOM     53  H33 non d ame     -11.658  13.315  67.726  0.00  0.00     0.048 H 
ATOM     54  H34 non d ame     -11.226  15.154  67.697  0.00  0.00     0.048 H 
BRANCH  52  55
ATOM     55  C23 non d ame      -9.592  13.803  67.909  0.00  0.00     0.259 C 
ATOM     56  O7  non d ame      -9.204  12.696  68.094  0.00  0.00    -0.265 OA
BRANCH  55  57
ATOM     57  O8  non d ame      -8.685  14.820  67.504  0.00  0.00    -0.317 OA
BRANCH  57  58
ATOM     58  C29 non d ame      -9.075  15.510  66.313  0.00  0.00     0.052 C 
ATOM     59  H47 non d ame      -8.258  15.366  65.607  0.00  0.00     0.082 H 
ATOM     60  H48 non d ame     -10.073  15.142  66.073  0.00  0.00     0.082 H 
BRANCH  58  61
ATOM     61  C35 non d ame      -9.177  17.022  66.647  0.00  0.00    -0.034 A 
ATOM     62  C30 non d ame     -10.397  17.571  67.026  0.00  0.00    -0.075 A 
ATOM     63  C31 non d ame     -10.489  18.929  67.325  0.00  0.00    -0.082 A 
ATOM     64  H49 non d ame     -11.281  16.937  67.087  0.00  0.00     0.084 H 
ATOM     65  C32 non d ame      -9.354  19.740  67.243  0.00  0.00    -0.083 A 
ATOM     66  H50 non d ame     -11.447  19.355  67.623  0.00  0.00     0.083 H 
ATOM     67  C33 non d ame      -8.138  19.189  66.862  0.00  0.00    -0.082 A 
ATOM     68  H51 non d ame      -9.417  20.803  67.476  0.00  0.00     0.083 H 
ATOM     69  C34 non d ame      -8.042  17.831  66.563  0.00  0.00    -0.075 A 
ATOM     70  H52 non d ame      -7.255  19.824  66.796  0.00  0.00     0.083 H 
ATOM     71  H53 non d ame      -7.083  17.405  66.265  0.00  0.00     0.084 H 
ENDBRANCH  58  61
ENDBRANCH  57  58
ENDBRANCH  55  57
ENDBRANCH  52  55
ENDBRANCH  49  52
ENDBRANCH  47  49
BRANCH  47  72
ATOM     72  C24 non d ame     -13.139  13.545  71.316  0.00  0.00    -0.039 C 
ATOM     73  H35 non d ame     -14.190  13.496  71.030  0.00  0.00     0.036 H 
ATOM     74  H36 non d ame     -12.764  12.912  72.121  0.00  0.00     0.036 H 
BRANCH  72  75
ATOM     75  C25 non d ame     -12.831  15.063  71.726  0.00  0.00    -0.001 C 
ATOM     76  C26 non d ame     -12.072  15.107  73.184  0.00  0.00    -0.035 C 
ATOM     77  C27 non d ame     -12.728  15.974  73.992  0.00  0.00     0.085 C 
ATOM     78  H38 non d ame     -12.185  14.150  73.692  0.00  0.00     0.036 H 
ATOM     79  H39 non d ame     -11.084  15.555  73.078  0.00  0.00     0.036 H 
ATOM     80  N5  non d ame     -14.051  16.278  73.332  0.00  0.00    -0.049 N 
ATOM     81  H40 non d ame     -12.910  15.429  74.918  0.00  0.00     0.075 H 
ATOM     82  H41 non d ame     -12.121  16.879  74.001  0.00  0.00     0.075 H 
ATOM     83  C28 non d ame     -13.919  15.754  71.810  0.00  0.00     0.193 C 
ATOM     84  H42 non d ame     -14.744  15.716  73.806  0.00  0.00     0.280 HD
ATOM     85  H43 non d ame     -14.141  17.283  73.319  0.00  0.00     0.280 HD
ATOM     86  H44 non d ame     -13.770  16.460  70.992  0.00  0.00     0.129 H 
ATOM     87  H37 non d ame     -12.375  15.626  70.912  0.00  0.00     0.046 H 
BRANCH  83  88
ATOM     88  O6  non d ame     -15.072  14.991  71.450  0.00  0.00    -0.369 OA
ATOM     89  H45 non d ame     -15.424  15.316  70.618  0.00  0.00     0.212 HD
ENDBRANCH  83  88
ENDBRANCH  72  75
ENDBRANCH  47  72
ENDBRANCH  45  47
ENDBRANCH   1  43
BRANCH   1  90
ATOM     90  C16 non d ame     -10.872   9.147  71.505  0.00  0.00    -0.035 C 
ATOM     91  H21 non d ame      -9.847   9.261  71.857  0.00  0.00     0.037 H 
ATOM     92  H22 non d ame     -11.657   9.792  71.898  0.00  0.00     0.037 H 
BRANCH  90  93
ATOM     93  C17 non d ame     -11.293   7.682  71.842  0.00  0.00    -0.059 C 
ATOM     94  H23 non d ame     -12.018   7.725  72.655  0.00  0.00     0.038 H 
BRANCH  93  95
ATOM     95  C18 non d ame     -11.976   6.971  70.631  0.00  0.00    -0.073 C 
ATOM     96  H24 non d ame     -13.041   6.850  70.833  0.00  0.00     0.028 H 
ATOM     97  H25 non d ame     -11.844   7.575  69.733  0.00  0.00     0.028 H 
ATOM     98  H26 non d ame     -11.522   5.992  70.480  0.00  0.00     0.028 H 
ENDBRANCH  93  95
BRANCH  93  99
ATOM     99  C19 non d ame     -10.096   6.872  72.345  0.00  0.00    -0.073 C 
ATOM    100  H27 non d ame      -9.181   7.445  72.195  0.00  0.00     0.028 H 
ATOM    101  H28 non d ame     -10.221   6.659  73.407  0.00  0.00     0.028 H 
ATOM    102  H29 non d ame     -10.032   5.936  71.792  0.00  0.00     0.028 H 
ENDBRANCH  93  99
ENDBRANCH  90  93
ENDBRANCH   1  90
TORSDOF 26
ENDMDL
MODEL 4
REMARK VINA RESULT:      -6.8      2.704      6.277
REMARK  26 active torsions:
REMARK  status: ('A' for Active; 'I' for Inactive)
REMARK    1  A    between atoms: C2_2  and  C3_3 
REMARK    2  A    between atoms: C4_6  and  C5_7 
REMARK       I    between atoms: C5_7  and  N2_9 
REMARK    3  A    between atoms: N2_9  and  C6_10 
REMARK    4  A    between atoms: C6_10  and  C7_11 
REMARK    5  A    between atoms: C6_10  and  C8_13 
REMARK       I    between atoms: C7_11  and  N3_14 
REMARK    6  A    between atoms: N3_14  and  C9_15 
REMARK    7  A    between atoms: C9_15  and  C10_16 
REMARK    8  A    between atoms: C9_15  and  C11_18 
REMARK       I    between atoms: C10_16  and  N4_21 
REMARK    9  A    between atoms: C11_18  and  C12_19 
REMARK   10  A    between atoms: C11_18  and  C13_20 
REMARK   11  A    between atoms: N4_21  and  C14_22 
REMARK   12  A    between atoms: C14_22  and  C15_23 
REMARK   13  A    between atoms: C14_22  and  C16_25 
REMARK       I    between atoms: C15_23  and  N6_40 
REMARK   14  A    between atoms: C16_25  and  C17_26 
REMARK   15  A    between atoms: C17_26  and  C18_27 
REMARK   16  A    between atoms: C17_26  and  C19_28 
REMARK   17  A    between atoms: C20_29  and  C21_30 
REMARK   18  A    between atoms: C20_29  and  C24_33 
REMARK   19  A    between atoms: C20_29  and  N6_40 
REMARK   20  A    between atoms: C21_30  and  C22_31 
REMARK   21  A    between atoms: C22_31  and  C23_32 
REMARK   22  A    between atoms: C23_32  and  O8_43 
REMARK   23  A    between atoms: C24_33  and  C25_34 
REMARK   24  A    between atoms: C28_38  and  O6_39 
REMARK   25  A    between atoms: C29_42  and  O8_43 
REMARK   26  A    between atoms: C29_42  and  C35_49 
ROOT
ATOM      1  C14 non d ame      -9.743   9.998  64.510  0.00  0.00     0.089 C 
ATOM      2  H20 non d ame     -10.600   9.356  64.709  0.00  0.00     0.087 H 
ENDROOT
BRANCH   1   3
ATOM      3  N4  non d ame      -9.222  10.446  65.792  0.00  0.00    -0.346 N 
ATOM      4  C10 non d ame      -9.948  10.106  67.070  0.00  0.00     0.241 C 
ATOM      5  O4  non d ame     -10.951   9.472  67.040  0.00  0.00    -0.271 OA
ATOM      6  H19 non d ame      -8.368  10.987  65.796  0.00  0.00     0.163 HD
BRANCH   4   7
ATOM      7  C9  non d ame      -9.392  10.573  68.389  0.00  0.00     0.092 C 
ATOM      8  H11 non d ame      -8.304  10.510  68.363  0.00  0.00     0.088 H 
BRANCH   7   9
ATOM      9  N3  non d ame      -9.738  11.983  68.594  0.00  0.00    -0.346 N 
ATOM     10  C7  non d ame      -8.895  13.019  68.050  0.00  0.00     0.240 C 
ATOM     11  O3  non d ame      -7.933  12.736  67.446  0.00  0.00    -0.271 OA
ATOM     12  H10 non d ame     -10.563  12.242  69.115  0.00  0.00     0.163 HD
BRANCH  10  13
ATOM     13  C6  non d ame      -9.267  14.517  68.275  0.00  0.00     0.086 C 
ATOM     14  H6  non d ame      -9.934  14.907  67.506  0.00  0.00     0.086 H 
BRANCH  13  15
ATOM     15  N2  non d ame      -9.973  14.642  69.539  0.00  0.00    -0.343 N 
ATOM     16  C5  non d ame     -11.329  15.198  69.556  0.00  0.00     0.273 C 
ATOM     17  O2  non d ame     -11.840  15.544  68.548  0.00  0.00    -0.266 OA
ATOM     18  H5  non d ame      -9.529  14.347  70.396  0.00  0.00     0.163 HD
BRANCH  16  19
ATOM     19  C4  non d ame     -12.088  15.335  70.885  0.00  0.00     0.154 A 
ATOM     20  C1  non d ame     -11.524  15.495  72.191  0.00  0.00    -0.017 A 
ATOM     21  C2  non d ame     -12.635  15.572  73.060  0.00  0.00     0.077 A 
ATOM     22  H1  non d ame     -10.470  15.547  72.466  0.00  0.00     0.091 H 
ATOM     23  O1  non d ame     -13.707  15.468  72.329  0.00  0.00    -0.218 OA
ATOM     24  N1  non d ame     -13.413  15.328  71.056  0.00  0.00    -0.123 NA
BRANCH  21  25
ATOM     25  C3  non d ame     -12.587  15.746  74.572  0.00  0.00    -0.029 C 
ATOM     26  H2  non d ame     -11.753  16.397  74.837  0.00  0.00     0.036 H 
ATOM     27  H3  non d ame     -13.520  16.192  74.916  0.00  0.00     0.036 H 
ATOM     28  H4  non d ame     -12.453  14.773  75.046  0.00  0.00     0.036 H 
ENDBRANCH  21  25
ENDBRANCH  16  19
ENDBRANCH  13  15
BRANCH  13  29
ATOM     29  C8  non d ame      -8.012  15.352  68.301  0.00  0.00    -0.049 C 
ATOM     30  H7  non d ame      -7.592  15.409  67.296  0.00  0.00     0.030 H 
ATOM     31  H8  non d ame      -8.252  16.357  68.652  0.00  0.00     0.030 H 
ATOM     32  H9  non d ame      -7.286  14.895  68.972  0.00  0.00     0.030 H 
ENDBRANCH  13  29
ENDBRANCH  10  13
ENDBRANCH   7   9
BRANCH   7  33
ATOM     33  C11 non d ame     -10.000   9.719  69.540  0.00  0.00    -0.033 C 
ATOM     34  H12 non d ame     -10.443   8.830  69.091  0.00  0.00     0.042 H 
BRANCH  33  35
ATOM     35  C12 non d ame      -8.898   9.242  70.537  0.00  0.00    -0.071 C 
ATOM     36  H13 non d ame      -8.470   8.304  70.183  0.00  0.00     0.028 H 
ATOM     37  H14 non d ame      -8.115   9.997  70.602  0.00  0.00     0.028 H 
ATOM     38  H15 non d ame      -9.340   9.092  71.521  0.00  0.00     0.028 H 
ENDBRANCH  33  35
BRANCH  33  39
ATOM     39  C13 non d ame     -11.131  10.503  70.280  0.00  0.00    -0.071 C 
ATOM     40  H16 non d ame     -10.810  11.530  70.450  0.00  0.00     0.028 H 
ATOM     41  H17 non d ame     -12.034  10.500  69.669  0.00  0.00     0.028 H 
ATOM     42  H18 non d ame     -11.338  10.023  71.236  0.00  0.00     0.028 H 
ENDBRANCH  33  39
ENDBRANCH   7  33
ENDBRANCH   4   7
ENDBRANCH   1   3
BRANCH   1  43
ATOM     43  C15 non d ame      -8.611   9.248  63.750  0.00  0.00     0.240 C 
ATOM     44  O5  non d ame      -8.758   8.957  62.607  0.00  0.00    -0.271 OA
ATOM     45  N6  non d ame      -7.339   8.899  64.446  0.00  0.00    -0.355 N 
ATOM     46  H46 non d ame      -7.201   9.145  65.415  0.00  0.00     0.162 HD
BRANCH  45  47
ATOM     47  C20 non d ame      -6.273   8.187  63.710  0.00  0.00     0.013 C 
ATOM     48  H30 non d ame      -6.741   7.625  62.901  0.00  0.00     0.072 H 
BRANCH  47  49
ATOM     49  C21 non d ame      -5.561   7.241  64.651  0.00  0.00    -0.038 C 
ATOM     50  H31 non d ame      -4.510   7.276  64.364  0.00  0.00     0.036 H 
ATOM     51  H32 non d ame      -5.863   7.543  65.654  0.00  0.00     0.036 H 
BRANCH  49  52
ATOM     52  C22 non d ame      -6.013   5.775  64.482  0.00  0.00     0.018 C 
ATOM     53  H33 non d ame      -5.861   5.537  63.429  0.00  0.00     0.048 H 
ATOM     54  H34 non d ame      -5.482   5.212  65.250  0.00  0.00     0.048 H 
BRANCH  52  55
ATOM     55  C23 non d ame      -7.527   5.552  64.756  0.00  0.00     0.259 C 
ATOM     56  O7  non d ame      -8.286   5.401  63.854  0.00  0.00    -0.265 OA
BRANCH  55  57
ATOM     57  O8  non d ame      -8.000   5.543  66.097  0.00  0.00    -0.317 OA
BRANCH  57  58
ATOM     58  C29 non d ame      -9.306   6.104  66.259  0.00  0.00     0.052 C 
ATOM     59  H47 non d ame      -9.208   7.159  66.004  0.00  0.00     0.082 H 
ATOM     60  H48 non d ame      -9.974   5.464  65.682  0.00  0.00     0.082 H 
BRANCH  58  61
ATOM     61  C35 non d ame      -9.692   5.994  67.758  0.00  0.00    -0.034 A 
ATOM     62  C30 non d ame     -10.991   6.277  68.165  0.00  0.00    -0.075 A 
ATOM     63  C31 non d ame     -11.339   6.178  69.511  0.00  0.00    -0.082 A 
ATOM     64  H49 non d ame     -11.737   6.577  67.429  0.00  0.00     0.084 H 
ATOM     65  C32 non d ame     -10.379   5.795  70.452  0.00  0.00    -0.083 A 
ATOM     66  H50 non d ame     -12.358   6.399  69.826  0.00  0.00     0.083 H 
ATOM     67  C33 non d ame      -9.082   5.517  70.042  0.00  0.00    -0.082 A 
ATOM     68  H51 non d ame     -10.642   5.715  71.507  0.00  0.00     0.083 H 
ATOM     69  C34 non d ame      -8.732   5.612  68.697  0.00  0.00    -0.075 A 
ATOM     70  H52 non d ame      -8.336   5.221  70.780  0.00  0.00     0.083 H 
ATOM     71  H53 non d ame      -7.711   5.390  68.382  0.00  0.00     0.084 H 
ENDBRANCH  58  61
ENDBRANCH  57  58
ENDBRANCH  55  57
ENDBRANCH  52  55
ENDBRANCH  49  52
ENDBRANCH  47  49
BRANCH  47  72
ATOM     72  C24 non d ame      -5.273   9.194  63.146  0.00  0.00    -0.039 C 
ATOM     73  H35 non d ame      -4.932   8.769  62.203  0.00  0.00     0.036 H 
ATOM     74  H36 non d ame      -5.791  10.154  63.155  0.00  0.00     0.036 H 
BRANCH  72  75
ATOM     75  C25 non d ame      -3.987   9.344  64.090  0.00  0.00    -0.001 C 
ATOM     76  C26 non d ame      -4.152  10.662  65.059  0.00  0.00    -0.035 C 
ATOM     77  C27 non d ame      -3.039  11.426  64.951  0.00  0.00     0.085 C 
ATOM     78  H38 non d ame      -4.942  11.309  64.677  0.00  0.00     0.036 H 
ATOM     79  H39 non d ame      -4.154  10.359  66.106  0.00  0.00     0.036 H 
ATOM     80  N5  non d ame      -2.270  10.920  63.754  0.00  0.00    -0.049 N 
ATOM     81  H40 non d ame      -3.396  12.435  64.744  0.00  0.00     0.075 H 
ATOM     82  H41 non d ame      -2.461  11.226  65.853  0.00  0.00     0.075 H 
ATOM     83  C28 non d ame      -2.909   9.481  63.392  0.00  0.00     0.193 C 
ATOM     84  H42 non d ame      -2.467  11.559  62.997  0.00  0.00     0.280 HD
ATOM     85  H43 non d ame      -1.319  10.781  64.062  0.00  0.00     0.280 HD
ATOM     86  H44 non d ame      -2.385   8.562  63.652  0.00  0.00     0.129 H 
ATOM     87  H37 non d ame      -3.718   8.404  64.572  0.00  0.00     0.046 H 
BRANCH  83  88
ATOM     88  O6  non d ame      -3.160   9.394  61.988  0.00  0.00    -0.369 OA
ATOM     89  H45 non d ame      -2.566   9.984  61.520  0.00  0.00     0.212 HD
ENDBRANCH  83  88
ENDBRANCH  72  75
ENDBRANCH  47  72
ENDBRANCH  45  47
ENDBRANCH   1  43
BRANCH   1  90
ATOM     90  C16 non d ame     -10.184  11.209  63.702  0.00  0.00    -0.035 C 
ATOM     91  H21 non d ame      -9.336  11.895  63.725  0.00  0.00     0.037 H 
ATOM     92  H22 non d ame     -10.535  10.810  62.752  0.00  0.00     0.037 H 
BRANCH  90  93
ATOM     93  C17 non d ame     -11.389  11.977  64.332  0.00  0.00    -0.059 C 
ATOM     94  H23 non d ame     -11.788  11.361  65.138  0.00  0.00     0.038 H 
BRANCH  93  95
ATOM     95  C18 non d ame     -10.960  13.347  64.946  0.00  0.00    -0.073 C 
ATOM     96  H24 non d ame     -11.447  14.157  64.402  0.00  0.00     0.028 H 
ATOM     97  H25 non d ame     -11.257  13.385  65.994  0.00  0.00     0.028 H 
ATOM     98  H26 non d ame      -9.878  13.457  64.871  0.00  0.00     0.028 H 
ENDBRANCH  93  95
BRANCH  93  99
ATOM     99  C19 non d ame     -12.511  12.166  63.308  0.00  0.00    -0.073 C 
ATOM    100  H27 non d ame     -12.090  12.528  62.370  0.00  0.00     0.028 H 
ATOM    101  H28 non d ame     -13.012  11.212  63.138  0.00  0.00     0.028 H 
ATOM    102  H29 non d ame     -13.230  12.891  63.687  0.00  0.00     0.028 H 
ENDBRANCH  93  99
ENDBRANCH  90  93
ENDBRANCH   1  90
TORSDOF 26
ENDMDL
MODEL 5
REMARK VINA RESULT:      -6.8      2.542      9.869
REMARK  26 active torsions:
REMARK  status: ('A' for Active; 'I' for Inactive)
REMARK    1  A    between atoms: C2_2  and  C3_3 
REMARK    2  A    between atoms: C4_6  and  C5_7 
REMARK       I    between atoms: C5_7  and  N2_9 
REMARK    3  A    between atoms: N2_9  and  C6_10 
REMARK    4  A    between atoms: C6_10  and  C7_11 
REMARK    5  A    between atoms: C6_10  and  C8_13 
REMARK       I    between atoms: C7_11  and  N3_14 
REMARK    6  A    between atoms: N3_14  and  C9_15 
REMARK    7  A    between atoms: C9_15  and  C10_16 
REMARK    8  A    between atoms: C9_15  and  C11_18 
REMARK       I    between atoms: C10_16  and  N4_21 
REMARK    9  A    between atoms: C11_18  and  C12_19 
REMARK   10  A    between atoms: C11_18  and  C13_20 
REMARK   11  A    between atoms: N4_21  and  C14_22 
REMARK   12  A    between atoms: C14_22  and  C15_23 
REMARK   13  A    between atoms: C14_22  and  C16_25 
REMARK       I    between atoms: C15_23  and  N6_40 
REMARK   14  A    between atoms: C16_25  and  C17_26 
REMARK   15  A    between atoms: C17_26  and  C18_27 
REMARK   16  A    between atoms: C17_26  and  C19_28 
REMARK   17  A    between atoms: C20_29  and  C21_30 
REMARK   18  A    between atoms: C20_29  and  C24_33 
REMARK   19  A    between atoms: C20_29  and  N6_40 
REMARK   20  A    between atoms: C21_30  and  C22_31 
REMARK   21  A    between atoms: C22_31  and  C23_32 
REMARK   22  A    between atoms: C23_32  and  O8_43 
REMARK   23  A    between atoms: C24_33  and  C25_34 
REMARK   24  A    between atoms: C28_38  and  O6_39 
REMARK   25  A    between atoms: C29_42  and  O8_43 
REMARK   26  A    between atoms: C29_42  and  C35_49 
ROOT
ATOM      1  C14 non d ame     -10.970   9.140  69.560  0.00  0.00     0.089 C 
ATOM      2  H20 non d ame     -11.859   8.515  69.478  0.00  0.00     0.087 H 
ENDROOT
BRANCH   1   3
ATOM      3  N4  non d ame      -9.841   8.364  69.068  0.00  0.00    -0.346 N 
ATOM      4  C10 non d ame     -10.047   6.961  68.556  0.00  0.00     0.241 C 
ATOM      5  O4  non d ame     -11.131   6.476  68.551  0.00  0.00    -0.271 OA
ATOM      6  H19 non d ame      -8.926   8.794  69.083  0.00  0.00     0.163 HD
BRANCH   4   7
ATOM      7  C9  non d ame      -8.869   6.174  68.045  0.00  0.00     0.092 C 
ATOM      8  H11 non d ame      -9.226   5.259  67.572  0.00  0.00     0.088 H 
BRANCH   7   9
ATOM      9  N3  non d ame      -8.172   6.949  67.015  0.00  0.00    -0.346 N 
ATOM     10  C7  non d ame      -8.420   6.683  65.620  0.00  0.00     0.240 C 
ATOM     11  O3  non d ame      -9.177   5.846  65.308  0.00  0.00    -0.271 OA
ATOM     12  H10 non d ame      -7.515   7.673  67.268  0.00  0.00     0.163 HD
BRANCH  10  13
ATOM     13  C6  non d ame      -7.673   7.509  64.528  0.00  0.00     0.086 C 
ATOM     14  H6  non d ame      -7.394   6.910  63.662  0.00  0.00     0.086 H 
BRANCH  13  15
ATOM     15  N2  non d ame      -8.557   8.556  64.042  0.00  0.00    -0.343 N 
ATOM     16  C5  non d ame      -9.024   9.592  64.966  0.00  0.00     0.273 C 
ATOM     17  O2  non d ame      -8.685   9.573  66.098  0.00  0.00    -0.266 OA
ATOM     18  H5  non d ame      -8.844   8.563  63.074  0.00  0.00     0.163 HD
BRANCH  16  19
ATOM     19  C4  non d ame      -9.958  10.705  64.466  0.00  0.00     0.154 A 
ATOM     20  C1  non d ame     -10.310  11.911  65.152  0.00  0.00    -0.017 A 
ATOM     21  C2  non d ame     -11.186  12.587  64.273  0.00  0.00     0.077 A 
ATOM     22  H1  non d ame      -9.982  12.244  66.137  0.00  0.00     0.091 H 
ATOM     23  O1  non d ame     -11.312  11.849  63.209  0.00  0.00    -0.218 OA
ATOM     24  N1  non d ame     -10.606  10.745  63.299  0.00  0.00    -0.123 NA
BRANCH  21  25
ATOM     25  C3  non d ame     -11.854  13.932  64.524  0.00  0.00    -0.029 C 
ATOM     26  H2  non d ame     -12.628  14.100  63.774  0.00  0.00     0.036 H 
ATOM     27  H3  non d ame     -12.304  13.934  65.517  0.00  0.00     0.036 H 
ATOM     28  H4  non d ame     -11.109  14.726  64.462  0.00  0.00     0.036 H 
ENDBRANCH  21  25
ENDBRANCH  16  19
ENDBRANCH  13  15
BRANCH  13  29
ATOM     29  C8  non d ame      -6.428   8.120  65.120  0.00  0.00    -0.049 C 
ATOM     30  H7  non d ame      -5.588   7.439  64.982  0.00  0.00     0.030 H 
ATOM     31  H8  non d ame      -6.215   9.066  64.619  0.00  0.00     0.030 H 
ATOM     32  H9  non d ame      -6.581   8.298  66.183  0.00  0.00     0.030 H 
ENDBRANCH  13  29
ENDBRANCH  10  13
ENDBRANCH   7   9
BRANCH   7  33
ATOM     33  C11 non d ame      -7.891   5.882  69.221  0.00  0.00    -0.033 C 
ATOM     34  H12 non d ame      -7.651   6.835  69.694  0.00  0.00     0.042 H 
BRANCH  33  35
ATOM     35  C12 non d ame      -8.558   4.976  70.303  0.00  0.00    -0.071 C 
ATOM     36  H13 non d ame      -8.929   4.065  69.835  0.00  0.00     0.028 H 
ATOM     37  H14 non d ame      -7.822   4.719  71.065  0.00  0.00     0.028 H 
ATOM     38  H15 non d ame      -9.386   5.513  70.765  0.00  0.00     0.028 H 
ENDBRANCH  33  35
BRANCH  33  39
ATOM     39  C13 non d ame      -6.560   5.253  68.698  0.00  0.00    -0.071 C 
ATOM     40  H16 non d ame      -6.414   5.527  67.654  0.00  0.00     0.028 H 
ATOM     41  H17 non d ame      -5.724   5.624  69.292  0.00  0.00     0.028 H 
ATOM     42  H18 non d ame      -6.614   4.168  68.784  0.00  0.00     0.028 H 
ENDBRANCH  33  39
ENDBRANCH   7  33
ENDBRANCH   4   7
ENDBRANCH   1   3
BRANCH   1  43
ATOM     43  C15 non d ame     -11.084  10.439  68.712  0.00  0.00     0.240 C 
ATOM     44  O5  non d ame     -11.611  10.405  67.646  0.00  0.00    -0.271 OA
ATOM     45  N6  non d ame     -10.546  11.728  69.232  0.00  0.00    -0.355 N 
ATOM     46  H46 non d ame     -10.100  11.770  70.137  0.00  0.00     0.162 HD
BRANCH  45  47
ATOM     47  C20 non d ame     -10.663  12.955  68.414  0.00  0.00     0.013 C 
ATOM     48  H30 non d ame     -10.722  12.655  67.368  0.00  0.00     0.072 H 
BRANCH  47  49
ATOM     49  C21 non d ame      -9.445  13.822  68.635  0.00  0.00    -0.038 C 
ATOM     50  H31 non d ame      -9.774  14.633  69.286  0.00  0.00     0.036 H 
ATOM     51  H32 non d ame      -8.657  13.143  68.963  0.00  0.00     0.036 H 
BRANCH  49  52
ATOM     52  C22 non d ame      -8.936  14.483  67.336  0.00  0.00     0.018 C 
ATOM     53  H33 non d ame      -9.057  13.732  66.554  0.00  0.00     0.048 H 
ATOM     54  H34 non d ame      -9.464  15.435  67.262  0.00  0.00     0.048 H 
BRANCH  52  55
ATOM     55  C23 non d ame      -7.422  14.833  67.363  0.00  0.00     0.259 C 
ATOM     56  O7  non d ame      -6.605  13.973  67.303  0.00  0.00    -0.265 OA
BRANCH  55  57
ATOM     57  O8  non d ame      -7.023  16.193  67.474  0.00  0.00    -0.317 OA
BRANCH  57  58
ATOM     58  C29 non d ame      -7.566  16.870  68.611  0.00  0.00     0.052 C 
ATOM     59  H47 non d ame      -8.247  16.160  69.080  0.00  0.00     0.082 H 
ATOM     60  H48 non d ame      -6.709  17.250  69.166  0.00  0.00     0.082 H 
BRANCH  58  61
ATOM     61  C35 non d ame      -8.394  18.078  68.098  0.00  0.00    -0.034 A 
ATOM     62  C30 non d ame      -9.767  17.956  67.918  0.00  0.00    -0.075 A 
ATOM     63  C31 non d ame     -10.511  19.041  67.458  0.00  0.00    -0.082 A 
ATOM     64  H49 non d ame     -10.261  17.010  68.138  0.00  0.00     0.084 H 
ATOM     65  C32 non d ame      -9.875  20.253  67.175  0.00  0.00    -0.083 A 
ATOM     66  H50 non d ame     -11.587  18.942  67.319  0.00  0.00     0.083 H 
ATOM     67  C33 non d ame      -8.503  20.370  67.353  0.00  0.00    -0.082 A 
ATOM     68  H51 non d ame     -10.448  21.107  66.814  0.00  0.00     0.083 H 
ATOM     69  C34 non d ame      -7.757  19.288  67.815  0.00  0.00    -0.075 A 
ATOM     70  H52 non d ame      -8.009  21.316  67.129  0.00  0.00     0.083 H 
ATOM     71  H53 non d ame      -6.679  19.388  67.954  0.00  0.00     0.084 H 
ENDBRANCH  58  61
ENDBRANCH  57  58
ENDBRANCH  55  57
ENDBRANCH  52  55
ENDBRANCH  49  52
ENDBRANCH  47  49
BRANCH  47  72
ATOM     72  C24 non d ame     -11.918  13.725  68.818  0.00  0.00    -0.039 C 
ATOM     73  H35 non d ame     -11.956  14.588  68.153  0.00  0.00     0.036 H 
ATOM     74  H36 non d ame     -12.726  12.993  68.806  0.00  0.00     0.036 H 
BRANCH  72  75
ATOM     75  C25 non d ame     -11.813  14.287  70.314  0.00  0.00    -0.001 C 
ATOM     76  C26 non d ame     -12.807  13.432  71.306  0.00  0.00    -0.035 C 
ATOM     77  C27 non d ame     -13.582  14.298  72.000  0.00  0.00     0.085 C 
ATOM     78  H38 non d ame     -13.526  12.865  70.715  0.00  0.00     0.036 H 
ATOM     79  H39 non d ame     -12.224  12.933  72.081  0.00  0.00     0.036 H 
ATOM     80  N5  non d ame     -13.438  15.648  71.339  0.00  0.00    -0.049 N 
ATOM     81  H40 non d ame     -14.605  13.946  71.868  0.00  0.00     0.075 H 
ATOM     82  H41 non d ame     -13.145  14.344  72.998  0.00  0.00     0.075 H 
ATOM     83  C28 non d ame     -12.151  15.533  70.371  0.00  0.00     0.193 C 
ATOM     84  H42 non d ame     -14.260  15.775  70.766  0.00  0.00     0.280 HD
ATOM     85  H43 non d ame     -13.228  16.307  72.075  0.00  0.00     0.280 HD
ATOM     86  H44 non d ame     -11.200  15.984  70.657  0.00  0.00     0.129 H 
ATOM     87  H37 non d ame     -10.779  14.412  70.636  0.00  0.00     0.046 H 
BRANCH  83  88
ATOM     88  O6  non d ame     -12.455  16.068  69.082  0.00  0.00    -0.369 OA
ATOM     89  H45 non d ame     -11.871  16.807  68.897  0.00  0.00     0.212 HD
ENDBRANCH  83  88
ENDBRANCH  72  75
ENDBRANCH  47  72
ENDBRANCH  45  47
ENDBRANCH   1  43
BRANCH   1  90
ATOM     90  C16 non d ame     -10.727   9.500  71.018  0.00  0.00    -0.035 C 
ATOM     91  H21 non d ame      -9.817   8.971  71.298  0.00  0.00     0.037 H 
ATOM     92  H22 non d ame     -10.757  10.589  71.054  0.00  0.00     0.037 H 
BRANCH  90  93
ATOM     93  C17 non d ame     -11.846   8.995  71.982  0.00  0.00    -0.059 C 
ATOM     94  H23 non d ame     -11.508   9.173  73.003  0.00  0.00     0.038 H 
BRANCH  93  95
ATOM     95  C18 non d ame     -13.190   9.765  71.783  0.00  0.00    -0.073 C 
ATOM     96  H24 non d ame     -13.166  10.691  72.360  0.00  0.00     0.028 H 
ATOM     97  H25 non d ame     -13.321  10.000  70.727  0.00  0.00     0.028 H 
ATOM     98  H26 non d ame     -14.019   9.145  72.124  0.00  0.00     0.028 H 
ENDBRANCH  93  95
BRANCH  93  99
ATOM     99  C19 non d ame     -12.056   7.485  71.832  0.00  0.00    -0.073 C 
ATOM    100  H27 non d ame     -13.103   7.245  72.012  0.00  0.00     0.028 H 
ATOM    101  H28 non d ame     -11.781   7.179  70.822  0.00  0.00     0.028 H 
ATOM    102  H29 non d ame     -11.433   6.959  72.554  0.00  0.00     0.028 H 
ENDBRANCH  93  99
ENDBRANCH  90  93
ENDBRANCH   1  90
TORSDOF 26
ENDMDL
MODEL 6
REMARK VINA RESULT:      -6.8      2.614      8.977
REMARK  26 active torsions:
REMARK  status: ('A' for Active; 'I' for Inactive)
REMARK    1  A    between atoms: C2_2  and  C3_3 
REMARK    2  A    between atoms: C4_6  and  C5_7 
REMARK       I    between atoms: C5_7  and  N2_9 
REMARK    3  A    between atoms: N2_9  and  C6_10 
REMARK    4  A    between atoms: C6_10  and  C7_11 
REMARK    5  A    between atoms: C6_10  and  C8_13 
REMARK       I    between atoms: C7_11  and  N3_14 
REMARK    6  A    between atoms: N3_14  and  C9_15 
REMARK    7  A    between atoms: C9_15  and  C10_16 
REMARK    8  A    between atoms: C9_15  and  C11_18 
REMARK       I    between atoms: C10_16  and  N4_21 
REMARK    9  A    between atoms: C11_18  and  C12_19 
REMARK   10  A    between atoms: C11_18  and  C13_20 
REMARK   11  A    between atoms: N4_21  and  C14_22 
REMARK   12  A    between atoms: C14_22  and  C15_23 
REMARK   13  A    between atoms: C14_22  and  C16_25 
REMARK       I    between atoms: C15_23  and  N6_40 
REMARK   14  A    between atoms: C16_25  and  C17_26 
REMARK   15  A    between atoms: C17_26  and  C18_27 
REMARK   16  A    between atoms: C17_26  and  C19_28 
REMARK   17  A    between atoms: C20_29  and  C21_30 
REMARK   18  A    between atoms: C20_29  and  C24_33 
REMARK   19  A    between atoms: C20_29  and  N6_40 
REMARK   20  A    between atoms: C21_30  and  C22_31 
REMARK   21  A    between atoms: C22_31  and  C23_32 
REMARK   22  A    between atoms: C23_32  and  O8_43 
REMARK   23  A    between atoms: C24_33  and  C25_34 
REMARK   24  A    between atoms: C28_38  and  O6_39 
REMARK   25  A    between atoms: C29_42  and  O8_43 
REMARK   26  A    between atoms: C29_42  and  C35_49 
ROOT
ATOM      1  C14 non d ame      -7.069   9.583  63.307  0.00  0.00     0.089 C 
ATOM      2  H20 non d ame      -6.495  10.160  62.582  0.00  0.00     0.087 H 
ENDROOT
BRANCH   1   3
ATOM      3  N4  non d ame      -6.305   9.552  64.546  0.00  0.00    -0.346 N 
ATOM      4  C10 non d ame      -5.104  10.447  64.722  0.00  0.00     0.241 C 
ATOM      5  O4  non d ame      -4.769  11.182  63.852  0.00  0.00    -0.271 OA
ATOM      6  H19 non d ame      -6.605   8.918  65.273  0.00  0.00     0.163 HD
BRANCH   4   7
ATOM      7  C9  non d ame      -4.328  10.406  66.012  0.00  0.00     0.092 C 
ATOM      8  H11 non d ame      -3.499  11.111  65.955  0.00  0.00     0.088 H 
BRANCH   7   9
ATOM      9  N3  non d ame      -5.190  10.842  67.115  0.00  0.00    -0.346 N 
ATOM     10  C7  non d ame      -5.167  12.216  67.550  0.00  0.00     0.240 C 
ATOM     11  O3  non d ame      -4.459  12.986  67.024  0.00  0.00    -0.271 OA
ATOM     12  H10 non d ame      -5.805  10.189  67.580  0.00  0.00     0.163 HD
BRANCH  10  13
ATOM     13  C6  non d ame      -6.084  12.673  68.726  0.00  0.00     0.086 C 
ATOM     14  H6  non d ame      -5.521  13.062  69.574  0.00  0.00     0.086 H 
BRANCH  13  15
ATOM     15  N2  non d ame      -6.940  13.753  68.264  0.00  0.00    -0.343 N 
ATOM     16  C5  non d ame      -6.793  15.089  68.847  0.00  0.00     0.273 C 
ATOM     17  O2  non d ame      -5.984  15.283  69.687  0.00  0.00    -0.266 OA
ATOM     18  H5  non d ame      -7.630  13.578  67.548  0.00  0.00     0.163 HD
BRANCH  16  19
ATOM     19  C4  non d ame      -7.689  16.241  68.366  0.00  0.00     0.154 A 
ATOM     20  C1  non d ame      -8.660  16.200  67.316  0.00  0.00    -0.017 A 
ATOM     21  C2  non d ame      -9.204  17.503  67.273  0.00  0.00     0.077 A 
ATOM     22  H1  non d ame      -8.929  15.355  66.682  0.00  0.00     0.091 H 
ATOM     23  O1  non d ame      -8.610  18.202  68.196  0.00  0.00    -0.218 OA
ATOM     24  N1  non d ame      -7.721  17.487  68.847  0.00  0.00    -0.123 NA
BRANCH  21  25
ATOM     25  C3  non d ame     -10.288  17.997  66.324  0.00  0.00    -0.029 C 
ATOM     26  H2  non d ame     -11.160  17.345  66.396  0.00  0.00     0.036 H 
ATOM     27  H3  non d ame     -10.572  19.014  66.595  0.00  0.00     0.036 H 
ATOM     28  H4  non d ame      -9.909  17.987  65.302  0.00  0.00     0.036 H 
ENDBRANCH  21  25
ENDBRANCH  16  19
ENDBRANCH  13  15
BRANCH  13  29
ATOM     29  C8  non d ame      -6.925  11.511  69.192  0.00  0.00    -0.049 C 
ATOM     30  H7  non d ame      -7.258  10.934  68.329  0.00  0.00     0.030 H 
ATOM     31  H8  non d ame      -6.331  10.873  69.848  0.00  0.00     0.030 H 
ATOM     32  H9  non d ame      -7.792  11.885  69.735  0.00  0.00     0.030 H 
ENDBRANCH  13  29
ENDBRANCH  10  13
ENDBRANCH   7   9
BRANCH   7  33
ATOM     33  C11 non d ame      -3.842   8.952  66.280  0.00  0.00    -0.033 C 
ATOM     34  H12 non d ame      -4.708   8.295  66.194  0.00  0.00     0.042 H 
BRANCH  33  35
ATOM     35  C12 non d ame      -2.799   8.495  65.213  0.00  0.00    -0.071 C 
ATOM     36  H13 non d ame      -1.799   8.787  65.534  0.00  0.00     0.028 H 
ATOM     37  H14 non d ame      -2.843   7.412  65.102  0.00  0.00     0.028 H 
ATOM     38  H15 non d ame      -3.028   8.967  64.258  0.00  0.00     0.028 H 
ENDBRANCH  33  35
BRANCH  33  39
ATOM     39  C13 non d ame      -3.270   8.811  67.728  0.00  0.00    -0.071 C 
ATOM     40  H16 non d ame      -3.422   7.791  68.080  0.00  0.00     0.028 H 
ATOM     41  H17 non d ame      -2.204   9.040  67.722  0.00  0.00     0.028 H 
ATOM     42  H18 non d ame      -3.787   9.505  68.390  0.00  0.00     0.028 H 
ENDBRANCH  33  39
ENDBRANCH   7  33
ENDBRANCH   4   7
ENDBRANCH   1   3
BRANCH   1  43
ATOM     43  C15 non d ame      -8.458  10.220  63.598  0.00  0.00     0.240 C 
ATOM     44  O5  non d ame      -9.356  10.053  62.836  0.00  0.00    -0.271 OA
ATOM     45  N6  non d ame      -8.672  11.031  64.830  0.00  0.00    -0.355 N 
ATOM     46  H46 non d ame      -7.919  11.176  65.487  0.00  0.00     0.162 HD
BRANCH  45  47
ATOM     47  C20 non d ame      -9.999  11.628  65.093  0.00  0.00     0.013 C 
ATOM     48  H30 non d ame     -10.451  11.876  64.132  0.00  0.00     0.072 H 
BRANCH  47  49
ATOM     49  C21 non d ame      -9.829  12.882  65.921  0.00  0.00    -0.038 C 
ATOM     50  H31 non d ame      -9.272  12.576  66.807  0.00  0.00     0.036 H 
ATOM     51  H32 non d ame      -9.410  13.627  65.243  0.00  0.00     0.036 H 
BRANCH  49  52
ATOM     52  C22 non d ame     -11.171  13.456  66.423  0.00  0.00     0.018 C 
ATOM     53  H33 non d ame     -11.239  14.460  66.004  0.00  0.00     0.048 H 
ATOM     54  H34 non d ame     -11.924  12.709  66.172  0.00  0.00     0.048 H 
BRANCH  52  55
ATOM     55  C23 non d ame     -11.238  13.632  67.966  0.00  0.00     0.259 C 
ATOM     56  O7  non d ame     -10.409  13.145  68.664  0.00  0.00    -0.265 OA
BRANCH  55  57
ATOM     57  O8  non d ame     -12.310  14.371  68.538  0.00  0.00    -0.317 OA
BRANCH  57  58
ATOM     58  C29 non d ame     -11.898  15.542  69.248  0.00  0.00     0.052 C 
ATOM     59  H47 non d ame     -10.811  15.563  69.178  0.00  0.00     0.082 H 
ATOM     60  H48 non d ame     -12.487  16.360  68.834  0.00  0.00     0.082 H 
BRANCH  58  61
ATOM     61  C35 non d ame     -12.291  15.361  70.739  0.00  0.00    -0.034 A 
ATOM     62  C30 non d ame     -11.789  16.230  71.702  0.00  0.00    -0.075 A 
ATOM     63  C31 non d ame     -12.141  16.067  73.040  0.00  0.00    -0.082 A 
ATOM     64  H49 non d ame     -11.119  17.037  71.408  0.00  0.00     0.084 H 
ATOM     65  C32 non d ame     -12.998  15.029  73.415  0.00  0.00    -0.083 A 
ATOM     66  H50 non d ame     -11.747  16.750  73.792  0.00  0.00     0.083 H 
ATOM     67  C33 non d ame     -13.495  14.162  72.451  0.00  0.00    -0.082 A 
ATOM     68  H51 non d ame     -13.279  14.894  74.460  0.00  0.00     0.083 H 
ATOM     69  C34 non d ame     -13.146  14.323  71.111  0.00  0.00    -0.075 A 
ATOM     70  H52 non d ame     -14.161  13.351  72.747  0.00  0.00     0.083 H 
ATOM     71  H53 non d ame     -13.542  13.638  70.359  0.00  0.00     0.084 H 
ENDBRANCH  58  61
ENDBRANCH  57  58
ENDBRANCH  55  57
ENDBRANCH  52  55
ENDBRANCH  49  52
ENDBRANCH  47  49
BRANCH  47  72
ATOM     72  C24 non d ame     -10.874  10.632  65.850  0.00  0.00    -0.039 C 
ATOM     73  H35 non d ame     -11.597  11.236  66.397  0.00  0.00     0.036 H 
ATOM     74  H36 non d ame     -11.216   9.918  65.101  0.00  0.00     0.036 H 
BRANCH  72  75
ATOM     75  C25 non d ame     -10.030   9.809  66.935  0.00  0.00    -0.001 C 
ATOM     76  C26 non d ame      -9.743   8.286  66.386  0.00  0.00    -0.035 C 
ATOM     77  C27 non d ame     -10.120   7.399  67.337  0.00  0.00     0.085 C 
ATOM     78  H38 non d ame     -10.406   8.060  65.550  0.00  0.00     0.036 H 
ATOM     79  H39 non d ame      -8.670   8.118  66.291  0.00  0.00     0.036 H 
ATOM     80  N5  non d ame     -10.938   8.162  68.352  0.00  0.00    -0.049 N 
ATOM     81  H40 non d ame     -10.764   6.681  66.829  0.00  0.00     0.075 H 
ATOM     82  H41 non d ame      -9.195   7.066  67.807  0.00  0.00     0.075 H 
ATOM     83  C28 non d ame     -10.666   9.726  68.057  0.00  0.00     0.193 C 
ATOM     84  H42 non d ame     -11.907   7.960  68.148  0.00  0.00     0.280 HD
ATOM     85  H43 non d ame     -10.555   7.935  69.258  0.00  0.00     0.280 HD
ATOM     86  H44 non d ame     -10.005  10.304  68.703  0.00  0.00     0.129 H 
ATOM     87  H37 non d ame      -9.174  10.372  67.306  0.00  0.00     0.046 H 
BRANCH  83  88
ATOM     88  O6  non d ame     -11.900  10.444  68.031  0.00  0.00    -0.369 OA
ATOM     89  H45 non d ame     -12.543   9.995  68.584  0.00  0.00     0.212 HD
ENDBRANCH  83  88
ENDBRANCH  72  75
ENDBRANCH  47  72
ENDBRANCH  45  47
ENDBRANCH   1  43
BRANCH   1  90
ATOM     90  C16 non d ame      -7.254   8.160  62.803  0.00  0.00    -0.035 C 
ATOM     91  H21 non d ame      -8.333   8.008  62.762  0.00  0.00     0.037 H 
ATOM     92  H22 non d ame      -6.661   8.098  61.891  0.00  0.00     0.037 H 
BRANCH  90  93
ATOM     93  C17 non d ame      -6.692   7.074  63.772  0.00  0.00    -0.059 C 
ATOM     94  H23 non d ame      -6.388   7.576  64.691  0.00  0.00     0.038 H 
BRANCH  93  95
ATOM     95  C18 non d ame      -7.766   6.004  64.147  0.00  0.00    -0.073 C 
ATOM     96  H24 non d ame      -8.691   6.214  63.609  0.00  0.00     0.028 H 
ATOM     97  H25 non d ame      -7.404   5.013  63.871  0.00  0.00     0.028 H 
ATOM     98  H26 non d ame      -7.953   6.036  65.220  0.00  0.00     0.028 H 
ENDBRANCH  93  95
BRANCH  93  99
ATOM     99  C19 non d ame      -5.443   6.410  63.184  0.00  0.00    -0.073 C 
ATOM    100  H27 non d ame      -5.365   6.659  62.126  0.00  0.00     0.028 H 
ATOM    101  H28 non d ame      -4.559   6.770  63.709  0.00  0.00     0.028 H 
ATOM    102  H29 non d ame      -5.519   5.329  63.298  0.00  0.00     0.028 H 
ENDBRANCH  93  99
ENDBRANCH  90  93
ENDBRANCH   1  90
TORSDOF 26
ENDMDL
MODEL 7
REMARK VINA RESULT:      -6.6      2.598      6.849
REMARK  26 active torsions:
REMARK  status: ('A' for Active; 'I' for Inactive)
REMARK    1  A    between atoms: C2_2  and  C3_3 
REMARK    2  A    between atoms: C4_6  and  C5_7 
REMARK       I    between atoms: C5_7  and  N2_9 
REMARK    3  A    between atoms: N2_9  and  C6_10 
REMARK    4  A    between atoms: C6_10  and  C7_11 
REMARK    5  A    between atoms: C6_10  and  C8_13 
REMARK       I    between atoms: C7_11  and  N3_14 
REMARK    6  A    between atoms: N3_14  and  C9_15 
REMARK    7  A    between atoms: C9_15  and  C10_16 
REMARK    8  A    between atoms: C9_15  and  C11_18 
REMARK       I    between atoms: C10_16  and  N4_21 
REMARK    9  A    between atoms: C11_18  and  C12_19 
REMARK   10  A    between atoms: C11_18  and  C13_20 
REMARK   11  A    between atoms: N4_21  and  C14_22 
REMARK   12  A    between atoms: C14_22  and  C15_23 
REMARK   13  A    between atoms: C14_22  and  C16_25 
REMARK       I    between atoms: C15_23  and  N6_40 
REMARK   14  A    between atoms: C16_25  and  C17_26 
REMARK   15  A    between atoms: C17_26  and  C18_27 
REMARK   16  A    between atoms: C17_26  and  C19_28 
REMARK   17  A    between atoms: C20_29  and  C21_30 
REMARK   18  A    between atoms: C20_29  and  C24_33 
REMARK   19  A    between atoms: C20_29  and  N6_40 
REMARK   20  A    between atoms: C21_30  and  C22_31 
REMARK   21  A    between atoms: C22_31  and  C23_32 
REMARK   22  A    between atoms: C23_32  and  O8_43 
REMARK   23  A    between atoms: C24_33  and  C25_34 
REMARK   24  A    between atoms: C28_38  and  O6_39 
REMARK   25  A    between atoms: C29_42  and  O8_43 
REMARK   26  A    between atoms: C29_42  and  C35_49 
ROOT
ATOM      1  C14 non d ame      -6.868  10.120  67.697  0.00  0.00     0.089 C 
ATOM      2  H20 non d ame      -5.871  10.271  67.285  0.00  0.00     0.087 H 
ENDROOT
BRANCH   1   3
ATOM      3  N4  non d ame      -7.777   9.910  66.580  0.00  0.00    -0.346 N 
ATOM      4  C10 non d ame      -7.331  10.204  65.170  0.00  0.00     0.241 C 
ATOM      5  O4  non d ame      -6.236  10.612  64.959  0.00  0.00    -0.271 OA
ATOM      6  H19 non d ame      -8.705   9.565  66.781  0.00  0.00     0.163 HD
BRANCH   4   7
ATOM      7  C9  non d ame      -8.282   9.975  64.025  0.00  0.00     0.092 C 
ATOM      8  H11 non d ame      -8.859   9.070  64.213  0.00  0.00     0.088 H 
BRANCH   7   9
ATOM      9  N3  non d ame      -9.235  11.087  63.951  0.00  0.00    -0.346 N 
ATOM     10  C7  non d ame     -10.412  11.085  64.784  0.00  0.00     0.240 C 
ATOM     11  O3  non d ame     -10.610  10.195  65.519  0.00  0.00    -0.271 OA
ATOM     12  H10 non d ame      -9.079  11.861  63.321  0.00  0.00     0.163 HD
BRANCH  10  13
ATOM     13  C6  non d ame     -11.424  12.269  64.698  0.00  0.00     0.086 C 
ATOM     14  H6  non d ame     -12.232  12.188  65.426  0.00  0.00     0.086 H 
BRANCH  13  15
ATOM     15  N2  non d ame     -10.724  13.509  64.991  0.00  0.00    -0.343 N 
ATOM     16  C5  non d ame     -11.310  14.462  65.936  0.00  0.00     0.273 C 
ATOM     17  O2  non d ame     -12.346  14.224  66.452  0.00  0.00    -0.266 OA
ATOM     18  H5  non d ame      -9.841  13.706  64.543  0.00  0.00     0.163 HD
BRANCH  16  19
ATOM     19  C4  non d ame     -10.580  15.776  66.256  0.00  0.00     0.154 A 
ATOM     20  C1  non d ame     -10.540  16.458  67.514  0.00  0.00    -0.017 A 
ATOM     21  C2  non d ame      -9.745  17.603  67.282  0.00  0.00     0.077 A 
ATOM     22  H1  non d ame     -11.014  16.167  68.452  0.00  0.00     0.091 H 
ATOM     23  O1  non d ame      -9.375  17.571  66.034  0.00  0.00    -0.218 OA
ATOM     24  N1  non d ame      -9.851  16.515  65.415  0.00  0.00    -0.123 NA
BRANCH  21  25
ATOM     25  C3  non d ame      -9.385  18.673  68.303  0.00  0.00    -0.029 C 
ATOM     26  H2  non d ame      -8.300  18.744  68.390  0.00  0.00     0.036 H 
ATOM     27  H3  non d ame      -9.788  19.633  67.981  0.00  0.00     0.036 H 
ATOM     28  H4  non d ame      -9.810  18.409  69.273  0.00  0.00     0.036 H 
ENDBRANCH  21  25
ENDBRANCH  16  19
ENDBRANCH  13  15
BRANCH  13  29
ATOM     29  C8  non d ame     -12.019  12.327  63.314  0.00  0.00    -0.049 C 
ATOM     30  H7  non d ame     -11.299  12.771  62.627  0.00  0.00     0.030 H 
ATOM     31  H8  non d ame     -12.264  11.318  62.982  0.00  0.00     0.030 H 
ATOM     32  H9  non d ame     -12.924  12.933  63.333  0.00  0.00     0.030 H 
ENDBRANCH  13  29
ENDBRANCH  10  13
ENDBRANCH   7   9
BRANCH   7  33
ATOM     33  C11 non d ame      -7.481   9.893  62.693  0.00  0.00    -0.033 C 
ATOM     34  H12 non d ame      -6.421   9.870  62.948  0.00  0.00     0.042 H 
BRANCH  33  35
ATOM     35  C12 non d ame      -7.805   8.579  61.916  0.00  0.00    -0.071 C 
ATOM     36  H13 non d ame      -7.438   8.662  60.893  0.00  0.00     0.028 H 
ATOM     37  H14 non d ame      -7.318   7.737  62.408  0.00  0.00     0.028 H 
ATOM     38  H15 non d ame      -8.882   8.420  61.905  0.00  0.00     0.028 H 
ENDBRANCH  33  35
BRANCH  33  39
ATOM     39  C13 non d ame      -7.739  11.153  61.806  0.00  0.00    -0.071 C 
ATOM     40  H16 non d ame      -7.751  10.863  60.756  0.00  0.00     0.028 H 
ATOM     41  H17 non d ame      -8.700  11.595  62.073  0.00  0.00     0.028 H 
ATOM     42  H18 non d ame      -6.946  11.881  61.973  0.00  0.00     0.028 H 
ENDBRANCH  33  39
ENDBRANCH   7  33
ENDBRANCH   4   7
ENDBRANCH   1   3
BRANCH   1  43
ATOM     43  C15 non d ame      -6.937   8.879  68.632  0.00  0.00     0.240 C 
ATOM     44  O5  non d ame      -6.106   8.722  69.468  0.00  0.00    -0.271 OA
ATOM     45  N6  non d ame      -8.042   7.889  68.491  0.00  0.00    -0.355 N 
ATOM     46  H46 non d ame      -8.756   8.014  67.787  0.00  0.00     0.162 HD
BRANCH  45  47
ATOM     47  C20 non d ame      -8.094   6.715  69.388  0.00  0.00     0.013 C 
ATOM     48  H30 non d ame      -7.269   6.797  70.095  0.00  0.00     0.072 H 
BRANCH  47  49
ATOM     49  C21 non d ame      -7.948   5.452  68.568  0.00  0.00    -0.038 C 
ATOM     50  H31 non d ame      -7.494   5.763  67.627  0.00  0.00     0.036 H 
ATOM     51  H32 non d ame      -7.432   4.741  69.215  0.00  0.00     0.036 H 
BRANCH  49  52
ATOM     52  C22 non d ame      -9.305   4.810  68.209  0.00  0.00     0.018 C 
ATOM     53  H33 non d ame      -9.247   3.779  68.560  0.00  0.00     0.048 H 
ATOM     54  H34 non d ame     -10.065   5.481  68.612  0.00  0.00     0.048 H 
BRANCH  52  55
ATOM     55  C23 non d ame      -9.573   4.727  66.681  0.00  0.00     0.259 C 
ATOM     56  O7  non d ame     -10.671   4.879  66.253  0.00  0.00    -0.265 OA
BRANCH  55  57
ATOM     57  O8  non d ame      -8.493   4.453  65.798  0.00  0.00    -0.317 OA
BRANCH  57  58
ATOM     58  C29 non d ame      -8.496   5.247  64.608  0.00  0.00     0.052 C 
ATOM     59  H47 non d ame      -8.630   4.546  63.785  0.00  0.00     0.082 H 
ATOM     60  H48 non d ame      -9.233   6.032  64.779  0.00  0.00     0.082 H 
BRANCH  58  61
ATOM     61  C35 non d ame      -7.099   5.907  64.469  0.00  0.00    -0.034 A 
ATOM     62  C30 non d ame      -6.571   6.648  65.520  0.00  0.00    -0.075 A 
ATOM     63  C31 non d ame      -5.316   7.241  65.396  0.00  0.00    -0.082 A 
ATOM     64  H49 non d ame      -7.140   6.764  66.442  0.00  0.00     0.084 H 
ATOM     65  C32 non d ame      -4.588   7.093  64.212  0.00  0.00    -0.083 A 
ATOM     66  H50 non d ame      -4.904   7.820  66.223  0.00  0.00     0.083 H 
ATOM     67  C33 non d ame      -5.120   6.355  63.163  0.00  0.00    -0.082 A 
ATOM     68  H51 non d ame      -3.606   7.553  64.106  0.00  0.00     0.083 H 
ATOM     69  C34 non d ame      -6.374   5.758  63.285  0.00  0.00    -0.075 A 
ATOM     70  H52 non d ame      -4.552   6.243  62.240  0.00  0.00     0.083 H 
ATOM     71  H53 non d ame      -6.785   5.179  62.456  0.00  0.00     0.084 H 
ENDBRANCH  58  61
ENDBRANCH  57  58
ENDBRANCH  55  57
ENDBRANCH  52  55
ENDBRANCH  49  52
ENDBRANCH  47  49
BRANCH  47  72
ATOM     72  C24 non d ame      -9.428   6.690  70.130  0.00  0.00    -0.039 C 
ATOM     73  H35 non d ame     -10.005   5.891  69.664  0.00  0.00     0.036 H 
ATOM     74  H36 non d ame      -9.172   6.630  71.188  0.00  0.00     0.036 H 
BRANCH  72  75
ATOM     75  C25 non d ame     -10.248   8.050  69.919  0.00  0.00    -0.001 C 
ATOM     76  C26 non d ame     -10.150   8.980  71.272  0.00  0.00    -0.035 C 
ATOM     77  C27 non d ame     -11.400   9.345  71.643  0.00  0.00     0.085 C 
ATOM     78  H38 non d ame      -9.800   8.380  72.112  0.00  0.00     0.036 H 
ATOM     79  H39 non d ame      -9.664   9.928  71.040  0.00  0.00     0.036 H 
ATOM     80  N5  non d ame     -12.362   8.485  70.861  0.00  0.00    -0.049 N 
ATOM     81  H40 non d ame     -11.476   9.092  72.701  0.00  0.00     0.075 H 
ATOM     82  H41 non d ame     -11.508  10.381  71.320  0.00  0.00     0.075 H 
ATOM     83  C28 non d ame     -11.494   7.811  69.677  0.00  0.00     0.193 C 
ATOM     84  H42 non d ame     -12.669   7.755  71.488  0.00  0.00     0.280 HD
ATOM     85  H43 non d ame     -13.037   9.112  70.448  0.00  0.00     0.280 HD
ATOM     86  H44 non d ame     -11.572   8.182  68.654  0.00  0.00     0.129 H 
ATOM     87  H37 non d ame     -10.014   8.530  68.969  0.00  0.00     0.046 H 
BRANCH  83  88
ATOM     88  O6  non d ame     -11.771   6.412  69.599  0.00  0.00    -0.369 OA
ATOM     89  H45 non d ame     -12.072   6.098  70.453  0.00  0.00     0.212 HD
ENDBRANCH  83  88
ENDBRANCH  72  75
ENDBRANCH  47  72
ENDBRANCH  45  47
ENDBRANCH   1  43
BRANCH   1  90
ATOM     90  C16 non d ame      -7.302  11.361  68.463  0.00  0.00    -0.035 C 
ATOM     91  H21 non d ame      -7.816  10.988  69.349  0.00  0.00     0.037 H 
ATOM     92  H22 non d ame      -6.400  11.963  68.570  0.00  0.00     0.037 H 
BRANCH  90  93
ATOM     93  C17 non d ame      -8.335  12.243  67.693  0.00  0.00    -0.059 C 
ATOM     94  H23 non d ame      -8.486  11.795  66.711  0.00  0.00     0.038 H 
BRANCH  93  95
ATOM     95  C18 non d ame      -9.720  12.294  68.412  0.00  0.00    -0.073 C 
ATOM     96  H24 non d ame     -10.053  11.280  68.632  0.00  0.00     0.028 H 
ATOM     97  H25 non d ame      -9.626  12.854  69.343  0.00  0.00     0.028 H 
ATOM     98  H26 non d ame     -10.447  12.784  67.766  0.00  0.00     0.028 H 
ENDBRANCH  93  95
BRANCH  93  99
ATOM     99  C19 non d ame      -7.785  13.655  67.467  0.00  0.00    -0.073 C 
ATOM    100  H27 non d ame      -8.368  14.150  66.690  0.00  0.00     0.028 H 
ATOM    101  H28 non d ame      -7.855  14.225  68.393  0.00  0.00     0.028 H 
ATOM    102  H29 non d ame      -6.743  13.593  67.155  0.00  0.00     0.028 H 
ENDBRANCH  93  99
ENDBRANCH  90  93
ENDBRANCH   1  90
TORSDOF 26
ENDMDL
MODEL 8
REMARK VINA RESULT:      -6.6      2.711      7.184
REMARK  26 active torsions:
REMARK  status: ('A' for Active; 'I' for Inactive)
REMARK    1  A    between atoms: C2_2  and  C3_3 
REMARK    2  A    between atoms: C4_6  and  C5_7 
REMARK       I    between atoms: C5_7  and  N2_9 
REMARK    3  A    between atoms: N2_9  and  C6_10 
REMARK    4  A    between atoms: C6_10  and  C7_11 
REMARK    5  A    between atoms: C6_10  and  C8_13 
REMARK       I    between atoms: C7_11  and  N3_14 
REMARK    6  A    between atoms: N3_14  and  C9_15 
REMARK    7  A    between atoms: C9_15  and  C10_16 
REMARK    8  A    between atoms: C9_15  and  C11_18 
REMARK       I    between atoms: C10_16  and  N4_21 
REMARK    9  A    between atoms: C11_18  and  C12_19 
REMARK   10  A    between atoms: C11_18  and  C13_20 
REMARK   11  A    between atoms: N4_21  and  C14_22 
REMARK   12  A    between atoms: C14_22  and  C15_23 
REMARK   13  A    between atoms: C14_22  and  C16_25 
REMARK       I    between atoms: C15_23  and  N6_40 
REMARK   14  A    between atoms: C16_25  and  C17_26 
REMARK   15  A    between atoms: C17_26  and  C18_27 
REMARK   16  A    between atoms: C17_26  and  C19_28 
REMARK   17  A    between atoms: C20_29  and  C21_30 
REMARK   18  A    between atoms: C20_29  and  C24_33 
REMARK   19  A    between atoms: C20_29  and  N6_40 
REMARK   20  A    between atoms: C21_30  and  C22_31 
REMARK   21  A    between atoms: C22_31  and  C23_32 
REMARK   22  A    between atoms: C23_32  and  O8_43 
REMARK   23  A    between atoms: C24_33  and  C25_34 
REMARK   24  A    between atoms: C28_38  and  O6_39 
REMARK   25  A    between atoms: C29_42  and  O8_43 
REMARK   26  A    between atoms: C29_42  and  C35_49 
ROOT
ATOM      1  C14 non d ame     -10.077   9.503  66.714  0.00  0.00     0.089 C 
ATOM      2  H20 non d ame     -11.146   9.299  66.651  0.00  0.00     0.087 H 
ENDROOT
BRANCH   1   3
ATOM      3  N4  non d ame      -9.891  10.934  66.526  0.00  0.00    -0.346 N 
ATOM      4  C10 non d ame     -10.956  11.905  66.969  0.00  0.00     0.241 C 
ATOM      5  O4  non d ame     -11.956  11.511  67.472  0.00  0.00    -0.271 OA
ATOM      6  H19 non d ame      -9.034  11.248  66.093  0.00  0.00     0.163 HD
BRANCH   4   7
ATOM      7  C9  non d ame     -10.744  13.383  66.772  0.00  0.00     0.092 C 
ATOM      8  H11 non d ame     -11.186  13.923  67.609  0.00  0.00     0.088 H 
BRANCH   7   9
ATOM      9  N3  non d ame      -9.308  13.677  66.778  0.00  0.00    -0.346 N 
ATOM     10  C7  non d ame      -8.725  14.406  67.877  0.00  0.00     0.240 C 
ATOM     11  O3  non d ame      -9.399  14.767  68.764  0.00  0.00    -0.271 OA
ATOM     12  H10 non d ame      -8.715  13.374  66.019  0.00  0.00     0.163 HD
BRANCH  10  13
ATOM     13  C6  non d ame      -7.197  14.718  67.876  0.00  0.00     0.086 C 
ATOM     14  H6  non d ame      -6.859  15.169  66.943  0.00  0.00     0.086 H 
BRANCH  13  15
ATOM     15  N2  non d ame      -6.912  15.679  68.929  0.00  0.00    -0.343 N 
ATOM     16  C5  non d ame      -5.774  16.590  68.785  0.00  0.00     0.273 C 
ATOM     17  O2  non d ame      -5.094  16.540  67.820  0.00  0.00    -0.266 OA
ATOM     18  H5  non d ame      -7.496  15.713  69.751  0.00  0.00     0.163 HD
BRANCH  16  19
ATOM     19  C4  non d ame      -5.462  17.612  69.889  0.00  0.00     0.154 A 
ATOM     20  C1  non d ame      -5.381  19.034  69.753  0.00  0.00    -0.017 A 
ATOM     21  C2  non d ame      -5.071  19.507  71.048  0.00  0.00     0.077 A 
ATOM     22  H1  non d ame      -5.525  19.633  68.853  0.00  0.00     0.091 H 
ATOM     23  O1  non d ame      -4.987  18.469  71.829  0.00  0.00    -0.218 OA
ATOM     24  N1  non d ame      -5.210  17.352  71.175  0.00  0.00    -0.123 NA
BRANCH  21  25
ATOM     25  C3  non d ame      -4.874  20.961  71.453  0.00  0.00    -0.029 C 
ATOM     26  H2  non d ame      -5.129  21.611  70.615  0.00  0.00     0.036 H 
ATOM     27  H3  non d ame      -5.519  21.192  72.301  0.00  0.00     0.036 H 
ATOM     28  H4  non d ame      -3.833  21.123  71.735  0.00  0.00     0.036 H 
ENDBRANCH  21  25
ENDBRANCH  16  19
ENDBRANCH  13  15
BRANCH  13  29
ATOM     29  C8  non d ame      -6.421  13.448  68.112  0.00  0.00    -0.049 C 
ATOM     30  H7  non d ame      -6.067  13.055  67.159  0.00  0.00     0.030 H 
ATOM     31  H8  non d ame      -5.567  13.659  68.758  0.00  0.00     0.030 H 
ATOM     32  H9  non d ame      -7.065  12.712  68.591  0.00  0.00     0.030 H 
ENDBRANCH  13  29
ENDBRANCH  10  13
ENDBRANCH   7   9
BRANCH   7  33
ATOM     33  C11 non d ame     -11.354  13.817  65.407  0.00  0.00    -0.033 C 
ATOM     34  H12 non d ame     -12.433  13.902  65.541  0.00  0.00     0.042 H 
BRANCH  33  35
ATOM     35  C12 non d ame     -10.824  15.218  64.967  0.00  0.00    -0.071 C 
ATOM     36  H13 non d ame     -11.667  15.892  64.811  0.00  0.00     0.028 H 
ATOM     37  H14 non d ame     -10.176  15.621  65.744  0.00  0.00     0.028 H 
ATOM     38  H15 non d ame     -10.261  15.117  64.040  0.00  0.00     0.028 H 
ENDBRANCH  33  35
BRANCH  33  39
ATOM     39  C13 non d ame     -11.088  12.740  64.307  0.00  0.00    -0.071 C 
ATOM     40  H16 non d ame     -10.495  11.929  64.730  0.00  0.00     0.028 H 
ATOM     41  H17 non d ame     -12.038  12.347  63.945  0.00  0.00     0.028 H 
ATOM     42  H18 non d ame     -10.543  13.194  63.480  0.00  0.00     0.028 H 
ENDBRANCH  33  39
ENDBRANCH   7  33
ENDBRANCH   4   7
ENDBRANCH   1   3
BRANCH   1  43
ATOM     43  C15 non d ame      -9.483   9.103  68.095  0.00  0.00     0.240 C 
ATOM     44  O5  non d ame      -8.406   9.497  68.411  0.00  0.00    -0.271 OA
ATOM     45  N6  non d ame     -10.259   8.237  69.027  0.00  0.00    -0.355 N 
ATOM     46  H46 non d ame     -11.176   7.900  68.771  0.00  0.00     0.162 HD
BRANCH  45  47
ATOM     47  C20 non d ame      -9.680   7.868  70.337  0.00  0.00     0.013 C 
ATOM     48  H30 non d ame      -8.620   8.120  70.318  0.00  0.00     0.072 H 
BRANCH  47  49
ATOM     49  C21 non d ame      -9.853   6.382  70.559  0.00  0.00    -0.038 C 
ATOM     50  H31 non d ame      -8.846   5.964  70.557  0.00  0.00     0.036 H 
ATOM     51  H32 non d ame     -10.482   6.289  71.446  0.00  0.00     0.036 H 
BRANCH  49  52
ATOM     52  C22 non d ame     -10.617   5.689  69.410  0.00  0.00     0.018 C 
ATOM     53  H33 non d ame     -11.333   5.022  69.891  0.00  0.00     0.048 H 
ATOM     54  H34 non d ame     -10.970   6.493  68.763  0.00  0.00     0.048 H 
BRANCH  52  55
ATOM     55  C23 non d ame      -9.720   4.784  68.520  0.00  0.00     0.259 C 
ATOM     56  O7  non d ame      -9.406   3.699  68.889  0.00  0.00    -0.265 OA
BRANCH  55  57
ATOM     57  O8  non d ame      -9.266   5.271  67.264  0.00  0.00    -0.317 OA
BRANCH  57  58
ATOM     58  C29 non d ame      -7.871   5.064  67.027  0.00  0.00     0.052 C 
ATOM     59  H47 non d ame      -7.355   5.816  67.623  0.00  0.00     0.082 H 
ATOM     60  H48 non d ame      -7.694   4.004  67.215  0.00  0.00     0.082 H 
BRANCH  58  61
ATOM     61  C35 non d ame      -7.592   5.349  65.527  0.00  0.00    -0.034 A 
ATOM     62  C30 non d ame      -8.619   5.244  64.596  0.00  0.00    -0.075 A 
ATOM     63  C31 non d ame      -8.368   5.500  63.248  0.00  0.00    -0.082 A 
ATOM     64  H49 non d ame      -9.619   4.960  64.920  0.00  0.00     0.084 H 
ATOM     65  C32 non d ame      -7.084   5.860  62.834  0.00  0.00    -0.083 A 
ATOM     66  H50 non d ame      -9.176   5.418  62.521  0.00  0.00     0.083 H 
ATOM     67  C33 non d ame      -6.060   5.961  63.767  0.00  0.00    -0.082 A 
ATOM     68  H51 non d ame      -6.879   6.062  61.782  0.00  0.00     0.083 H 
ATOM     69  C34 non d ame      -6.307   5.708  65.115  0.00  0.00    -0.075 A 
ATOM     70  H52 non d ame      -5.058   6.240  63.440  0.00  0.00     0.083 H 
ATOM     71  H53 non d ame      -5.498   5.791  65.842  0.00  0.00     0.084 H 
ENDBRANCH  58  61
ENDBRANCH  57  58
ENDBRANCH  55  57
ENDBRANCH  52  55
ENDBRANCH  49  52
ENDBRANCH  47  49
BRANCH  47  72
ATOM     72  C24 non d ame     -10.389   8.636  71.450  0.00  0.00    -0.039 C 
ATOM     73  H35 non d ame     -10.450   7.943  72.289  0.00  0.00     0.036 H 
ATOM     74  H36 non d ame      -9.838   9.571  71.555  0.00  0.00     0.036 H 
BRANCH  72  75
ATOM     75  C25 non d ame     -11.891   9.018  71.042  0.00  0.00    -0.001 C 
ATOM     76  C26 non d ame     -12.044  10.651  70.930  0.00  0.00    -0.035 C 
ATOM     77  C27 non d ame     -13.107  11.042  71.671  0.00  0.00     0.085 C 
ATOM     78  H38 non d ame     -11.200  11.139  71.417  0.00  0.00     0.036 H 
ATOM     79  H39 non d ame     -12.324  10.931  69.914  0.00  0.00     0.036 H 
ATOM     80  N5  non d ame     -13.497   9.870  72.539  0.00  0.00    -0.049 N 
ATOM     81  H40 non d ame     -12.740  11.848  72.307  0.00  0.00     0.075 H 
ATOM     82  H41 non d ame     -13.907  11.234  70.955  0.00  0.00     0.075 H 
ATOM     83  C28 non d ame     -12.737   8.587  71.919  0.00  0.00     0.193 C 
ATOM     84  H42 non d ame     -13.118  10.055  73.457  0.00  0.00     0.280 HD
ATOM     85  H43 non d ame     -14.491   9.743  72.420  0.00  0.00     0.280 HD
ATOM     86  H44 non d ame     -13.283   7.854  71.325  0.00  0.00     0.129 H 
ATOM     87  H37 non d ame     -12.253   8.426  70.202  0.00  0.00     0.046 H 
BRANCH  83  88
ATOM     88  O6  non d ame     -12.103   7.840  72.958  0.00  0.00    -0.369 OA
ATOM     89  H45 non d ame     -12.489   8.078  73.804  0.00  0.00     0.212 HD
ENDBRANCH  83  88
ENDBRANCH  72  75
ENDBRANCH  47  72
ENDBRANCH  45  47
ENDBRANCH   1  43
BRANCH   1  90
ATOM     90  C16 non d ame      -9.346   8.757  65.608  0.00  0.00    -0.035 C 
ATOM     91  H21 non d ame      -8.707   8.037  66.119  0.00  0.00     0.037 H 
ATOM     92  H22 non d ame     -10.125   8.408  64.931  0.00  0.00     0.037 H 
BRANCH  90  93
ATOM     93  C17 non d ame      -8.399   9.664  64.761  0.00  0.00    -0.059 C 
ATOM     94  H23 non d ame      -8.635  10.701  64.998  0.00  0.00     0.038 H 
BRANCH  93  95
ATOM     95  C18 non d ame      -6.893   9.428  65.103  0.00  0.00    -0.073 C 
ATOM     96  H24 non d ame      -6.273  10.072  64.479  0.00  0.00     0.028 H 
ATOM     97  H25 non d ame      -6.718   9.664  66.153  0.00  0.00     0.028 H 
ATOM     98  H26 non d ame      -6.637   8.386  64.918  0.00  0.00     0.028 H 
ENDBRANCH  93  95
BRANCH  93  99
ATOM     99  C19 non d ame      -8.653   9.473  63.263  0.00  0.00    -0.073 C 
ATOM    100  H27 non d ame      -7.997   8.691  62.881  0.00  0.00     0.028 H 
ATOM    101  H28 non d ame      -9.693   9.184  63.106  0.00  0.00     0.028 H 
ATOM    102  H29 non d ame      -8.452  10.406  62.738  0.00  0.00     0.028 H 
ENDBRANCH  93  99
ENDBRANCH  90  93
ENDBRANCH   1  90
TORSDOF 26
ENDMDL
MODEL 9
REMARK VINA RESULT:      -6.5      2.592      8.809
REMARK  26 active torsions:
REMARK  status: ('A' for Active; 'I' for Inactive)
REMARK    1  A    between atoms: C2_2  and  C3_3 
REMARK    2  A    between atoms: C4_6  and  C5_7 
REMARK       I    between atoms: C5_7  and  N2_9 
REMARK    3  A    between atoms: N2_9  and  C6_10 
REMARK    4  A    between atoms: C6_10  and  C7_11 
REMARK    5  A    between atoms: C6_10  and  C8_13 
REMARK       I    between atoms: C7_11  and  N3_14 
REMARK    6  A    between atoms: N3_14  and  C9_15 
REMARK    7  A    between atoms: C9_15  and  C10_16 
REMARK    8  A    between atoms: C9_15  and  C11_18 
REMARK       I    between atoms: C10_16  and  N4_21 
REMARK    9  A    between atoms: C11_18  and  C12_19 
REMARK   10  A    between atoms: C11_18  and  C13_20 
REMARK   11  A    between atoms: N4_21  and  C14_22 
REMARK   12  A    between atoms: C14_22  and  C15_23 
REMARK   13  A    between atoms: C14_22  and  C16_25 
REMARK       I    between atoms: C15_23  and  N6_40 
REMARK   14  A    between atoms: C16_25  and  C17_26 
REMARK   15  A    between atoms: C17_26  and  C18_27 
REMARK   16  A    between atoms: C17_26  and  C19_28 
REMARK   17  A    between atoms: C20_29  and  C21_30 
REMARK   18  A    between atoms: C20_29  and  C24_33 
REMARK   19  A    between atoms: C20_29  and  N6_40 
REMARK   20  A    between atoms: C21_30  and  C22_31 
REMARK   21  A    between atoms: C22_31  and  C23_32 
REMARK   22  A    between atoms: C23_32  and  O8_43 
REMARK   23  A    between atoms: C24_33  and  C25_34 
REMARK   24  A    between atoms: C28_38  and  O6_39 
REMARK   25  A    between atoms: C29_42  and  O8_43 
REMARK   26  A    between atoms: C29_42  and  C35_49 
ROOT
ATOM      1  C14 non d ame      -9.595   9.317  68.846  0.00  0.00     0.089 C 
ATOM      2  H20 non d ame     -10.542   8.819  69.055  0.00  0.00     0.087 H 
ENDROOT
BRANCH   1   3
ATOM      3  N4  non d ame      -8.895   8.527  67.844  0.00  0.00    -0.346 N 
ATOM      4  C10 non d ame      -9.666   7.641  66.898  0.00  0.00     0.241 C 
ATOM      5  O4  non d ame     -10.850   7.579  66.964  0.00  0.00    -0.271 OA
ATOM      6  H19 non d ame      -7.887   8.592  67.807  0.00  0.00     0.163 HD
BRANCH   4   7
ATOM      7  C9  non d ame      -8.926   6.834  65.864  0.00  0.00     0.092 C 
ATOM      8  H11 non d ame      -9.550   6.732  64.976  0.00  0.00     0.088 H 
BRANCH   7   9
ATOM      9  N3  non d ame      -7.713   7.552  65.460  0.00  0.00    -0.346 N 
ATOM     10  C7  non d ame      -7.806   8.683  64.571  0.00  0.00     0.240 C 
ATOM     11  O3  non d ame      -8.850   9.029  64.168  0.00  0.00    -0.271 OA
ATOM     12  H10 non d ame      -6.806   7.264  65.797  0.00  0.00     0.163 HD
BRANCH  10  13
ATOM     13  C6  non d ame      -6.511   9.440  64.142  0.00  0.00     0.086 C 
ATOM     14  H6  non d ame      -6.553   9.799  63.114  0.00  0.00     0.086 H 
BRANCH  13  15
ATOM     15  N2  non d ame      -6.350  10.612  64.986  0.00  0.00    -0.343 N 
ATOM     16  C5  non d ame      -6.144  10.440  66.426  0.00  0.00     0.273 C 
ATOM     17  O2  non d ame      -6.113   9.356  66.895  0.00  0.00    -0.266 OA
ATOM     18  H5  non d ame      -6.380  11.534  64.577  0.00  0.00     0.163 HD
BRANCH  16  19
ATOM     19  C4  non d ame      -5.970  11.670  67.330  0.00  0.00     0.154 A 
ATOM     20  C1  non d ame      -6.184  11.742  68.744  0.00  0.00    -0.017 A 
ATOM     21  C2  non d ame      -5.889  13.079  69.089  0.00  0.00     0.077 A 
ATOM     22  H1  non d ame      -6.505  10.945  69.416  0.00  0.00     0.091 H 
ATOM     23  O1  non d ame      -5.544  13.695  67.996  0.00  0.00    -0.218 OA
ATOM     24  N1  non d ame      -5.585  12.894  66.956  0.00  0.00    -0.123 NA
BRANCH  21  25
ATOM     25  C3  non d ame      -5.958  13.686  70.484  0.00  0.00    -0.029 C 
ATOM     26  H2  non d ame      -6.457  14.655  70.435  0.00  0.00     0.036 H 
ATOM     27  H3  non d ame      -6.519  13.022  71.141  0.00  0.00     0.036 H 
ATOM     28  H4  non d ame      -4.949  13.817  70.875  0.00  0.00     0.036 H 
ENDBRANCH  21  25
ENDBRANCH  16  19
ENDBRANCH  13  15
BRANCH  13  29
ATOM     29  C8  non d ame      -5.320   8.528  64.291  0.00  0.00    -0.049 C 
ATOM     30  H7  non d ame      -5.409   7.962  65.218  0.00  0.00     0.030 H 
ATOM     31  H8  non d ame      -5.282   7.839  63.446  0.00  0.00     0.030 H 
ATOM     32  H9  non d ame      -4.408   9.123  64.316  0.00  0.00     0.030 H 
ENDBRANCH  13  29
ENDBRANCH  10  13
ENDBRANCH   7   9
BRANCH   7  33
ATOM     33  C11 non d ame      -8.534   5.454  66.466  0.00  0.00    -0.033 C 
ATOM     34  H12 non d ame      -8.492   5.568  67.550  0.00  0.00     0.042 H 
BRANCH  33  35
ATOM     35  C12 non d ame      -9.609   4.369  66.149  0.00  0.00    -0.071 C 
ATOM     36  H13 non d ame      -9.487   3.527  66.831  0.00  0.00     0.028 H 
ATOM     37  H14 non d ame     -10.604   4.796  66.275  0.00  0.00     0.028 H 
ATOM     38  H15 non d ame      -9.488   4.027  65.122  0.00  0.00     0.028 H 
ENDBRANCH  33  35
BRANCH  33  39
ATOM     39  C13 non d ame      -7.119   5.010  65.972  0.00  0.00    -0.071 C 
ATOM     40  H16 non d ame      -7.226   4.227  65.222  0.00  0.00     0.028 H 
ATOM     41  H17 non d ame      -6.602   5.865  65.535  0.00  0.00     0.028 H 
ATOM     42  H18 non d ame      -6.544   4.630  66.815  0.00  0.00     0.028 H 
ENDBRANCH  33  39
ENDBRANCH   7  33
ENDBRANCH   4   7
ENDBRANCH   1   3
BRANCH   1  43
ATOM     43  C15 non d ame      -9.798  10.755  68.289  0.00  0.00     0.240 C 
ATOM     44  O5  non d ame      -9.458  11.013  67.179  0.00  0.00    -0.271 OA
ATOM     45  N6  non d ame     -10.425  11.810  69.136  0.00  0.00    -0.355 N 
ATOM     46  H46 non d ame     -10.722  11.602  70.078  0.00  0.00     0.162 HD
BRANCH  45  47
ATOM     47  C20 non d ame     -10.612  13.172  68.591  0.00  0.00     0.013 C 
ATOM     48  H30 non d ame     -10.535  13.112  67.505  0.00  0.00     0.072 H 
BRANCH  47  49
ATOM     49  C21 non d ame      -9.533  14.081  69.135  0.00  0.00    -0.038 C 
ATOM     50  H31 non d ame     -10.037  14.753  69.831  0.00  0.00     0.036 H 
ATOM     51  H32 non d ame      -8.743  13.419  69.491  0.00  0.00     0.036 H 
BRANCH  49  52
ATOM     52  C22 non d ame      -8.897  14.974  68.048  0.00  0.00     0.018 C 
ATOM     53  H33 non d ame      -7.902  15.227  68.417  0.00  0.00     0.048 H 
ATOM     54  H34 non d ame      -9.008  14.425  67.113  0.00  0.00     0.048 H 
BRANCH  52  55
ATOM     55  C23 non d ame      -9.632  16.328  67.842  0.00  0.00     0.259 C 
ATOM     56  O7  non d ame      -9.256  17.308  68.398  0.00  0.00    -0.265 OA
BRANCH  55  57
ATOM     57  O8  non d ame     -10.770  16.381  66.991  0.00  0.00    -0.317 OA
BRANCH  57  58
ATOM     58  C29 non d ame     -10.479  16.140  65.611  0.00  0.00     0.052 C 
ATOM     59  H47 non d ame     -11.073  16.863  65.053  0.00  0.00     0.082 H 
ATOM     60  H48 non d ame      -9.392  16.152  65.533  0.00  0.00     0.082 H 
BRANCH  58  61
ATOM     61  C35 non d ame     -10.981  14.715  65.257  0.00  0.00    -0.034 A 
ATOM     62  C30 non d ame     -10.102  13.782  64.717  0.00  0.00    -0.075 A 
ATOM     63  C31 non d ame     -10.552  12.501  64.399  0.00  0.00    -0.082 A 
ATOM     64  H49 non d ame      -9.062  14.053  64.543  0.00  0.00     0.084 H 
ATOM     65  C32 non d ame     -11.888  12.156  64.622  0.00  0.00    -0.083 A 
ATOM     66  H50 non d ame      -9.861  11.772  63.978  0.00  0.00     0.083 H 
ATOM     67  C33 non d ame     -12.763  13.092  65.158  0.00  0.00    -0.082 A 
ATOM     68  H51 non d ame     -12.249  11.157  64.376  0.00  0.00     0.083 H 
ATOM     69  C34 non d ame     -12.316  14.372  65.479  0.00  0.00    -0.075 A 
ATOM     70  H52 non d ame     -13.805  12.821  65.328  0.00  0.00     0.083 H 
ATOM     71  H53 non d ame     -13.009  15.102  65.901  0.00  0.00     0.084 H 
ENDBRANCH  58  61
ENDBRANCH  57  58
ENDBRANCH  55  57
ENDBRANCH  52  55
ENDBRANCH  49  52
ENDBRANCH  47  49
BRANCH  47  72
ATOM     72  C24 non d ame     -11.983  13.707  68.998  0.00  0.00    -0.039 C 
ATOM     73  H35 non d ame     -12.181  14.541  68.325  0.00  0.00     0.036 H 
ATOM     74  H36 non d ame     -12.644  12.840  69.000  0.00  0.00     0.036 H 
BRANCH  72  75
ATOM     75  C25 non d ame     -11.971  14.295  70.488  0.00  0.00    -0.001 C 
ATOM     76  C26 non d ame     -12.917  13.369  71.464  0.00  0.00    -0.035 C 
ATOM     77  C27 non d ame     -13.784  14.173  72.123  0.00  0.00     0.085 C 
ATOM     78  H38 non d ame     -13.566  12.734  70.861  0.00  0.00     0.036 H 
ATOM     79  H39 non d ame     -12.316  12.933  72.263  0.00  0.00     0.036 H 
ATOM     80  N5  non d ame     -13.738  15.522  71.445  0.00  0.00    -0.049 N 
ATOM     81  H40 non d ame     -14.769  13.731  71.967  0.00  0.00     0.075 H 
ATOM     82  H41 non d ame     -13.383  14.270  73.131  0.00  0.00     0.075 H 
ATOM     83  C28 non d ame     -12.417  15.507  70.516  0.00  0.00     0.193 C 
ATOM     84  H42 non d ame     -14.551  15.570  70.847  0.00  0.00     0.280 HD
ATOM     85  H43 non d ame     -13.608  16.206  72.176  0.00  0.00     0.280 HD
ATOM     86  H44 non d ame     -11.519  16.043  70.823  0.00  0.00     0.129 H 
ATOM     87  H37 non d ame     -10.962  14.513  70.838  0.00  0.00     0.046 H 
BRANCH  83  88
ATOM     88  O6  non d ame     -12.728  15.997  69.211  0.00  0.00    -0.369 OA
ATOM     89  H45 non d ame     -12.934  15.260  68.633  0.00  0.00     0.212 HD
ENDBRANCH  83  88
ENDBRANCH  72  75
ENDBRANCH  47  72
ENDBRANCH  45  47
ENDBRANCH   1  43
BRANCH   1  90
ATOM     90  C16 non d ame      -8.753   9.373  70.112  0.00  0.00    -0.035 C 
ATOM     91  H21 non d ame      -7.859   8.792  69.889  0.00  0.00     0.037 H 
ATOM     92  H22 non d ame      -8.668  10.432  70.354  0.00  0.00     0.037 H 
BRANCH  90  93
ATOM     93  C17 non d ame      -9.427   8.690  71.343  0.00  0.00    -0.059 C 
ATOM     94  H23 non d ame      -8.886   9.007  72.235  0.00  0.00     0.038 H 
BRANCH  93  95
ATOM     95  C18 non d ame     -10.919   9.120  71.513  0.00  0.00    -0.073 C 
ATOM     96  H24 non d ame     -10.962  10.128  71.927  0.00  0.00     0.028 H 
ATOM     97  H25 non d ame     -11.415   9.105  70.543  0.00  0.00     0.028 H 
ATOM     98  H26 non d ame     -11.422   8.428  72.188  0.00  0.00     0.028 H 
ENDBRANCH  93  95
BRANCH  93  99
ATOM     99  C19 non d ame      -9.305   7.166  71.257  0.00  0.00    -0.073 C 
ATOM    100  H27 non d ame      -8.444   6.906  70.643  0.00  0.00     0.028 H 
ATOM    101  H28 non d ame      -9.176   6.755  72.258  0.00  0.00     0.028 H 
ATOM    102  H29 non d ame     -10.209   6.755  70.808  0.00  0.00     0.028 H 
ENDBRANCH  93  99
ENDBRANCH  90  93
ENDBRANCH   1  90
TORSDOF 26
ENDMDL
MODEL 10
REMARK VINA RESULT:      -6.5      2.567      6.679
REMARK  26 active torsions:
REMARK  status: ('A' for Active; 'I' for Inactive)
REMARK    1  A    between atoms: C2_2  and  C3_3 
REMARK    2  A    between atoms: C4_6  and  C5_7 
REMARK       I    between atoms: C5_7  and  N2_9 
REMARK    3  A    between atoms: N2_9  and  C6_10 
REMARK    4  A    between atoms: C6_10  and  C7_11 
REMARK    5  A    between atoms: C6_10  and  C8_13 
REMARK       I    between atoms: C7_11  and  N3_14 
REMARK    6  A    between atoms: N3_14  and  C9_15 
REMARK    7  A    between atoms: C9_15  and  C10_16 
REMARK    8  A    between atoms: C9_15  and  C11_18 
REMARK       I    between atoms: C10_16  and  N4_21 
REMARK    9  A    between atoms: C11_18  and  C12_19 
REMARK   10  A    between atoms: C11_18  and  C13_20 
REMARK   11  A    between atoms: N4_21  and  C14_22 
REMARK   12  A    between atoms: C14_22  and  C15_23 
REMARK   13  A    between atoms: C14_22  and  C16_25 
REMARK       I    between atoms: C15_23  and  N6_40 
REMARK   14  A    between atoms: C16_25  and  C17_26 
REMARK   15  A    between atoms: C17_26  and  C18_27 
REMARK   16  A    between atoms: C17_26  and  C19_28 
REMARK   17  A    between atoms: C20_29  and  C21_30 
REMARK   18  A    between atoms: C20_29  and  C24_33 
REMARK   19  A    between atoms: C20_29  and  N6_40 
REMARK   20  A    between atoms: C21_30  and  C22_31 
REMARK   21  A    between atoms: C22_31  and  C23_32 
REMARK   22  A    between atoms: C23_32  and  O8_43 
REMARK   23  A    between atoms: C24_33  and  C25_34 
REMARK   24  A    between atoms: C28_38  and  O6_39 
REMARK   25  A    between atoms: C29_42  and  O8_43 
REMARK   26  A    between atoms: C29_42  and  C35_49 
ROOT
ATOM      1  C14 non d ame     -10.627  11.065  64.617  0.00  0.00     0.089 C 
ATOM      2  H20 non d ame     -11.492  10.404  64.668  0.00  0.00     0.087 H 
ENDROOT
BRANCH   1   3
ATOM      3  N4  non d ame     -10.085  11.183  65.963  0.00  0.00    -0.346 N 
ATOM      4  C10 non d ame     -10.171  10.023  66.923  0.00  0.00     0.241 C 
ATOM      5  O4  non d ame     -10.684   9.005  66.590  0.00  0.00    -0.271 OA
ATOM      6  H19 non d ame      -9.654  12.058  66.227  0.00  0.00     0.163 HD
BRANCH   4   7
ATOM      7  C9  non d ame      -9.600  10.159  68.309  0.00  0.00     0.092 C 
ATOM      8  H11 non d ame      -8.812   9.419  68.447  0.00  0.00     0.088 H 
BRANCH   7   9
ATOM      9  N3  non d ame      -8.981  11.480  68.455  0.00  0.00    -0.346 N 
ATOM     10  C7  non d ame      -7.575  11.653  68.185  0.00  0.00     0.240 C 
ATOM     11  O3  non d ame      -6.925  10.738  67.851  0.00  0.00    -0.271 OA
ATOM     12  H10 non d ame      -9.529  12.278  68.745  0.00  0.00     0.163 HD
BRANCH  10  13
ATOM     13  C6  non d ame      -6.923  13.061  68.346  0.00  0.00     0.086 C 
ATOM     14  H6  non d ame      -6.287  13.331  67.503  0.00  0.00     0.086 H 
BRANCH  13  15
ATOM     15  N2  non d ame      -7.974  14.062  68.411  0.00  0.00    -0.343 N 
ATOM     16  C5  non d ame      -7.806  15.331  67.699  0.00  0.00     0.273 C 
ATOM     17  O2  non d ame      -6.821  15.537  67.079  0.00  0.00    -0.266 OA
ATOM     18  H5  non d ame      -8.812  13.880  68.944  0.00  0.00     0.163 HD
BRANCH  16  19
ATOM     19  C4  non d ame      -8.910  16.399  67.756  0.00  0.00     0.154 A 
ATOM     20  C1  non d ame      -8.974  17.617  67.008  0.00  0.00    -0.017 A 
ATOM     21  C2  non d ame     -10.175  18.236  67.423  0.00  0.00     0.077 A 
ATOM     22  H1  non d ame      -8.259  17.995  66.276  0.00  0.00     0.091 H 
ATOM     23  O1  non d ame     -10.728  17.455  68.305  0.00  0.00    -0.218 OA
ATOM     24  N1  non d ame     -10.008  16.377  68.516  0.00  0.00    -0.123 NA
BRANCH  21  25
ATOM     25  C3  non d ame     -10.720  19.568  66.927  0.00  0.00    -0.029 C 
ATOM     26  H2  non d ame     -10.806  19.545  65.840  0.00  0.00     0.036 H 
ATOM     27  H3  non d ame     -11.703  19.743  67.365  0.00  0.00     0.036 H 
ATOM     28  H4  non d ame     -10.044  20.371  67.221  0.00  0.00     0.036 H 
ENDBRANCH  21  25
ENDBRANCH  16  19
ENDBRANCH  13  15
BRANCH  13  29
ATOM     29  C8  non d ame      -6.099  13.096  69.608  0.00  0.00    -0.049 C 
ATOM     30  H7  non d ame      -6.607  12.531  70.390  0.00  0.00     0.030 H 
ATOM     31  H8  non d ame      -5.122  12.651  69.416  0.00  0.00     0.030 H 
ATOM     32  H9  non d ame      -5.972  14.128  69.931  0.00  0.00     0.030 H 
ENDBRANCH  13  29
ENDBRANCH  10  13
ENDBRANCH   7   9
BRANCH   7  33
ATOM     33  C11 non d ame     -10.739  10.003  69.358  0.00  0.00    -0.033 C 
ATOM     34  H12 non d ame     -11.428   9.245  68.984  0.00  0.00     0.042 H 
BRANCH  33  35
ATOM     35  C12 non d ame     -10.186   9.500  70.728  0.00  0.00    -0.071 C 
ATOM     36  H13 non d ame     -10.994   9.044  71.300  0.00  0.00     0.028 H 
ATOM     37  H14 non d ame      -9.403   8.763  70.555  0.00  0.00     0.028 H 
ATOM     38  H15 non d ame      -9.776  10.342  71.284  0.00  0.00     0.028 H 
ENDBRANCH  33  35
BRANCH  33  39
ATOM     39  C13 non d ame     -11.533  11.339  69.523  0.00  0.00    -0.071 C 
ATOM     40  H16 non d ame     -10.835  12.158  69.691  0.00  0.00     0.028 H 
ATOM     41  H17 non d ame     -12.112  11.533  68.620  0.00  0.00     0.028 H 
ATOM     42  H18 non d ame     -12.207  11.256  70.376  0.00  0.00     0.028 H 
ENDBRANCH  33  39
ENDBRANCH   7  33
ENDBRANCH   4   7
ENDBRANCH   1   3
BRANCH   1  43
ATOM     43  C15 non d ame      -9.516  10.509  63.682  0.00  0.00     0.240 C 
ATOM     44  O5  non d ame      -9.074  11.195  62.816  0.00  0.00    -0.271 OA
ATOM     45  N6  non d ame      -8.994   9.126  63.870  0.00  0.00    -0.355 N 
ATOM     46  H46 non d ame      -9.358   8.536  64.604  0.00  0.00     0.162 HD
BRANCH  45  47
ATOM     47  C20 non d ame      -7.936   8.613  62.973  0.00  0.00     0.013 C 
ATOM     48  H30 non d ame      -7.901   9.256  62.094  0.00  0.00     0.072 H 
BRANCH  47  49
ATOM     49  C21 non d ame      -8.272   7.197  62.563  0.00  0.00    -0.038 C 
ATOM     50  H31 non d ame      -9.360   7.130  62.597  0.00  0.00     0.036 H 
ATOM     51  H32 non d ame      -7.744   7.030  61.623  0.00  0.00     0.036 H 
BRANCH  49  52
ATOM     52  C22 non d ame      -7.737   6.142  63.556  0.00  0.00     0.018 C 
ATOM     53  H33 non d ame      -6.925   5.632  63.037  0.00  0.00     0.048 H 
ATOM     54  H34 non d ame      -7.538   6.683  64.481  0.00  0.00     0.048 H 
BRANCH  52  55
ATOM     55  C23 non d ame      -8.773   5.041  63.916  0.00  0.00     0.259 C 
ATOM     56  O7  non d ame      -9.393   4.494  63.062  0.00  0.00    -0.265 OA
BRANCH  55  57
ATOM     57  O8  non d ame      -8.983   4.701  65.281  0.00  0.00    -0.317 OA
BRANCH  57  58
ATOM     58  C29 non d ame      -8.168   5.437  66.198  0.00  0.00     0.052 C 
ATOM     59  H47 non d ame      -7.325   4.789  66.430  0.00  0.00     0.082 H 
ATOM     60  H48 non d ame      -7.998   6.406  65.727  0.00  0.00     0.082 H 
BRANCH  58  61
ATOM     61  C35 non d ame      -8.989   5.660  67.495  0.00  0.00    -0.034 A 
ATOM     62  C30 non d ame     -10.369   5.818  67.428  0.00  0.00    -0.075 A 
ATOM     63  C31 non d ame     -11.107   6.018  68.594  0.00  0.00    -0.082 A 
ATOM     64  H49 non d ame     -10.873   5.785  66.463  0.00  0.00     0.084 H 
ATOM     65  C32 non d ame     -10.459   6.061  69.831  0.00  0.00    -0.083 A 
ATOM     66  H50 non d ame     -12.189   6.140  68.538  0.00  0.00     0.083 H 
ATOM     67  C33 non d ame      -9.080   5.906  69.894  0.00  0.00    -0.082 A 
ATOM     68  H51 non d ame     -11.028   6.217  70.748  0.00  0.00     0.083 H 
ATOM     69  C34 non d ame      -8.340   5.704  68.730  0.00  0.00    -0.075 A 
ATOM     70  H52 non d ame      -8.577   5.943  70.860  0.00  0.00     0.083 H 
ATOM     71  H53 non d ame      -7.257   5.582  68.788  0.00  0.00     0.084 H 
ENDBRANCH  58  61
ENDBRANCH  57  58
ENDBRANCH  55  57
ENDBRANCH  52  55
ENDBRANCH  49  52
ENDBRANCH  47  49
BRANCH  47  72
ATOM     72  C24 non d ame      -6.593   8.629  63.698  0.00  0.00    -0.039 C 
ATOM     73  H35 non d ame      -6.803   9.026  64.691  0.00  0.00     0.036 H 
ATOM     74  H36 non d ame      -6.191   7.622  63.588  0.00  0.00     0.036 H 
BRANCH  72  75
ATOM     75  C25 non d ame      -5.555   9.630  62.999  0.00  0.00    -0.001 C 
ATOM     76  C26 non d ame      -4.094   8.895  62.828  0.00  0.00    -0.035 C 
ATOM     77  C27 non d ame      -3.136   9.702  63.341  0.00  0.00     0.085 C 
ATOM     78  H38 non d ame      -4.046   8.009  63.461  0.00  0.00     0.036 H 
ATOM     79  H39 non d ame      -3.831   8.825  61.772  0.00  0.00     0.036 H 
ATOM     80  N5  non d ame      -3.841  10.773  64.138  0.00  0.00    -0.049 N 
ATOM     81  H40 non d ame      -2.559   9.075  64.021  0.00  0.00     0.075 H 
ATOM     82  H41 non d ame      -2.652  10.163  62.480  0.00  0.00     0.075 H 
ATOM     83  C28 non d ame      -5.394  10.702  63.702  0.00  0.00     0.193 C 
ATOM     84  H42 non d ame      -3.767  10.503  65.108  0.00  0.00     0.280 HD
ATOM     85  H43 non d ame      -3.461  11.657  63.830  0.00  0.00     0.280 HD
ATOM     86  H44 non d ame      -5.814  11.448  63.026  0.00  0.00     0.129 H 
ATOM     87  H37 non d ame      -5.975  10.109  62.115  0.00  0.00     0.046 H 
BRANCH  83  88
ATOM     88  O6  non d ame      -6.231  10.719  64.858  0.00  0.00    -0.369 OA
ATOM     89  H45 non d ame      -6.178  11.580  65.279  0.00  0.00     0.212 HD
ENDBRANCH  83  88
ENDBRANCH  72  75
ENDBRANCH  47  72
ENDBRANCH  45  47
ENDBRANCH   1  43
BRANCH   1  90
ATOM     90  C16 non d ame     -11.060  12.441  64.135  0.00  0.00    -0.035 C 
ATOM     91  H21 non d ame     -10.259  12.782  63.478  0.00  0.00     0.037 H 
ATOM     92  H22 non d ame     -12.066  12.305  63.740  0.00  0.00     0.037 H 
BRANCH  90  93
ATOM     93  C17 non d ame     -11.173  13.499  65.278  0.00  0.00    -0.059 C 
ATOM     94  H23 non d ame     -10.729  13.066  66.174  0.00  0.00     0.038 H 
BRANCH  93  95
ATOM     95  C18 non d ame     -10.394  14.811  64.947  0.00  0.00    -0.073 C 
ATOM     96  H24 non d ame     -10.378  15.456  65.826  0.00  0.00     0.028 H 
ATOM     97  H25 non d ame      -9.372  14.565  64.659  0.00  0.00     0.028 H 
ATOM     98  H26 non d ame     -10.888  15.330  64.125  0.00  0.00     0.028 H 
ENDBRANCH  93  95
BRANCH  93  99
ATOM     99  C19 non d ame     -12.639  13.801  65.599  0.00  0.00    -0.073 C 
ATOM    100  H27 non d ame     -13.135  14.183  64.707  0.00  0.00     0.028 H 
ATOM    101  H28 non d ame     -13.135  12.888  65.928  0.00  0.00     0.028 H 
ATOM    102  H29 non d ame     -12.691  14.548  66.391  0.00  0.00     0.028 H 
ENDBRANCH  93  99
ENDBRANCH  90  93
ENDBRANCH   1  90
TORSDOF 26
ENDMDL
MODEL 11
REMARK VINA RESULT:      -6.4      2.284      5.902
REMARK  26 active torsions:
REMARK  status: ('A' for Active; 'I' for Inactive)
REMARK    1  A    between atoms: C2_2  and  C3_3 
REMARK    2  A    between atoms: C4_6  and  C5_7 
REMARK       I    between atoms: C5_7  and  N2_9 
REMARK    3  A    between atoms: N2_9  and  C6_10 
REMARK    4  A    between atoms: C6_10  and  C7_11 
REMARK    5  A    between atoms: C6_10  and  C8_13 
REMARK       I    between atoms: C7_11  and  N3_14 
REMARK    6  A    between atoms: N3_14  and  C9_15 
REMARK    7  A    between atoms: C9_15  and  C10_16 
REMARK    8  A    between atoms: C9_15  and  C11_18 
REMARK       I    between atoms: C10_16  and  N4_21 
REMARK    9  A    between atoms: C11_18  and  C12_19 
REMARK   10  A    between atoms: C11_18  and  C13_20 
REMARK   11  A    between atoms: N4_21  and  C14_22 
REMARK   12  A    between atoms: C14_22  and  C15_23 
REMARK   13  A    between atoms: C14_22  and  C16_25 
REMARK       I    between atoms: C15_23  and  N6_40 
REMARK   14  A    between atoms: C16_25  and  C17_26 
REMARK   15  A    between atoms: C17_26  and  C18_27 
REMARK   16  A    between atoms: C17_26  and  C19_28 
REMARK   17  A    between atoms: C20_29  and  C21_30 
REMARK   18  A    between atoms: C20_29  and  C24_33 
REMARK   19  A    between atoms: C20_29  and  N6_40 
REMARK   20  A    between atoms: C21_30  and  C22_31 
REMARK   21  A    between atoms: C22_31  and  C23_32 
REMARK   22  A    between atoms: C23_32  and  O8_43 
REMARK   23  A    between atoms: C24_33  and  C25_34 
REMARK   24  A    between atoms: C28_38  and  O6_39 
REMARK   25  A    between atoms: C29_42  and  O8_43 
REMARK   26  A    between atoms: C29_42  and  C35_49 
ROOT
ATOM      1  C14 non d ame      -9.356   9.807  66.396  0.00  0.00     0.089 C 
ATOM      2  H20 non d ame     -10.394  10.115  66.265  0.00  0.00     0.087 H 
ENDROOT
BRANCH   1   3
ATOM      3  N4  non d ame      -8.565  11.010  66.607  0.00  0.00    -0.346 N 
ATOM      4  C10 non d ame      -8.936  11.985  67.696  0.00  0.00     0.241 C 
ATOM      5  O4  non d ame      -9.878  11.780  68.389  0.00  0.00    -0.271 OA
ATOM      6  H19 non d ame      -7.768  11.166  66.005  0.00  0.00     0.163 HD
BRANCH   4   7
ATOM      7  C9  non d ame      -8.102  13.221  67.904  0.00  0.00     0.092 C 
ATOM      8  H11 non d ame      -7.604  13.480  66.970  0.00  0.00     0.088 H 
BRANCH   7   9
ATOM      9  N3  non d ame      -8.975  14.346  68.253  0.00  0.00    -0.346 N 
ATOM     10  C7  non d ame      -9.295  15.346  67.264  0.00  0.00     0.240 C 
ATOM     11  O3  non d ame      -8.857  15.261  66.182  0.00  0.00    -0.271 OA
ATOM     12  H10 non d ame      -9.359  14.433  69.183  0.00  0.00     0.163 HD
BRANCH  10  13
ATOM     13  C6  non d ame     -10.222  16.542  67.644  0.00  0.00     0.086 C 
ATOM     14  H6  non d ame     -11.113  16.601  67.018  0.00  0.00     0.086 H 
BRANCH  13  15
ATOM     15  N2  non d ame     -10.684  16.365  69.010  0.00  0.00    -0.343 N 
ATOM     16  C5  non d ame     -11.822  15.481  69.277  0.00  0.00     0.273 C 
ATOM     17  O2  non d ame     -12.359  14.920  68.386  0.00  0.00    -0.266 OA
ATOM     18  H5  non d ame     -10.221  16.849  69.765  0.00  0.00     0.163 HD
BRANCH  16  19
ATOM     19  C4  non d ame     -12.320  15.283  70.717  0.00  0.00     0.154 A 
ATOM     20  C1  non d ame     -11.712  15.771  71.918  0.00  0.00    -0.017 A 
ATOM     21  C2  non d ame     -12.553  15.320  72.960  0.00  0.00     0.077 A 
ATOM     22  H1  non d ame     -10.801  16.361  72.017  0.00  0.00     0.091 H 
ATOM     23  O1  non d ame     -13.527  14.654  72.412  0.00  0.00    -0.218 OA
ATOM     24  N1  non d ame     -13.412  14.618  71.104  0.00  0.00    -0.123 NA
BRANCH  21  25
ATOM     25  C3  non d ame     -12.355  15.571  74.449  0.00  0.00    -0.029 C 
ATOM     26  H2  non d ame     -11.495  16.224  74.598  0.00  0.00     0.036 H 
ATOM     27  H3  non d ame     -13.247  16.046  74.858  0.00  0.00     0.036 H 
ATOM     28  H4  non d ame     -12.184  14.622  74.958  0.00  0.00     0.036 H 
ENDBRANCH  21  25
ENDBRANCH  16  19
ENDBRANCH  13  15
BRANCH  13  29
ATOM     29  C8  non d ame      -9.455  17.834  67.522  0.00  0.00    -0.049 C 
ATOM     30  H7  non d ame      -8.431  17.622  67.214  0.00  0.00     0.030 H 
ATOM     31  H8  non d ame      -9.934  18.472  66.778  0.00  0.00     0.030 H 
ATOM     32  H9  non d ame      -9.446  18.343  68.485  0.00  0.00     0.030 H 
ENDBRANCH  13  29
ENDBRANCH  10  13
ENDBRANCH   7   9
BRANCH   7  33
ATOM     33  C11 non d ame      -7.089  12.976  69.060  0.00  0.00    -0.033 C 
ATOM     34  H12 non d ame      -7.664  12.793  69.968  0.00  0.00     0.042 H 
BRANCH  33  35
ATOM     35  C12 non d ame      -6.218  11.709  68.793  0.00  0.00    -0.071 C 
ATOM     36  H13 non d ame      -6.034  11.190  69.734  0.00  0.00     0.028 H 
ATOM     37  H14 non d ame      -6.745  11.044  68.109  0.00  0.00     0.028 H 
ATOM     38  H15 non d ame      -5.269  12.008  68.349  0.00  0.00     0.028 H 
ENDBRANCH  33  35
BRANCH  33  39
ATOM     39  C13 non d ame      -6.197  14.236  69.298  0.00  0.00    -0.071 C 
ATOM     40  H16 non d ame      -6.601  15.079  68.738  0.00  0.00     0.028 H 
ATOM     41  H17 non d ame      -6.184  14.478  70.361  0.00  0.00     0.028 H 
ATOM     42  H18 non d ame      -5.181  14.030  68.960  0.00  0.00     0.028 H 
ENDBRANCH  33  39
ENDBRANCH   7  33
ENDBRANCH   4   7
ENDBRANCH   1   3
BRANCH   1  43
ATOM     43  C15 non d ame      -9.172   8.871  67.625  0.00  0.00     0.240 C 
ATOM     44  O5  non d ame      -8.093   8.446  67.887  0.00  0.00    -0.271 OA
ATOM     45  N6  non d ame     -10.338   8.512  68.480  0.00  0.00    -0.355 N 
ATOM     46  H46 non d ame     -11.259   8.870  68.270  0.00  0.00     0.162 HD
BRANCH  45  47
ATOM     47  C20 non d ame     -10.146   7.622  69.646  0.00  0.00     0.013 C 
ATOM     48  H30 non d ame      -9.084   7.390  69.718  0.00  0.00     0.072 H 
BRANCH  47  49
ATOM     49  C21 non d ame     -10.939   6.351  69.441  0.00  0.00    -0.038 C 
ATOM     50  H31 non d ame     -11.724   6.368  70.197  0.00  0.00     0.036 H 
ATOM     51  H32 non d ame     -11.201   6.335  68.382  0.00  0.00     0.036 H 
BRANCH  49  52
ATOM     52  C22 non d ame     -10.107   5.077  69.703  0.00  0.00     0.018 C 
ATOM     53  H33 non d ame      -9.948   5.044  70.781  0.00  0.00     0.048 H 
ATOM     54  H34 non d ame     -10.643   4.267  69.206  0.00  0.00     0.048 H 
BRANCH  52  55
ATOM     55  C23 non d ame      -8.692   5.111  69.063  0.00  0.00     0.259 C 
ATOM     56  O7  non d ame      -7.722   5.160  69.748  0.00  0.00    -0.265 OA
BRANCH  55  57
ATOM     57  O8  non d ame      -8.566   5.098  67.646  0.00  0.00    -0.317 OA
BRANCH  57  58
ATOM     58  C29 non d ame      -7.251   4.782  67.180  0.00  0.00     0.052 C 
ATOM     59  H47 non d ame      -6.574   5.408  67.760  0.00  0.00     0.082 H 
ATOM     60  H48 non d ame      -7.172   3.696  67.236  0.00  0.00     0.082 H 
BRANCH  58  61
ATOM     61  C35 non d ame      -7.157   5.205  65.690  0.00  0.00    -0.034 A 
ATOM     62  C30 non d ame      -8.316   5.393  64.945  0.00  0.00    -0.075 A 
ATOM     63  C31 non d ame      -8.232   5.773  63.606  0.00  0.00    -0.082 A 
ATOM     64  H49 non d ame      -9.290   5.242  65.409  0.00  0.00     0.084 H 
ATOM     65  C32 non d ame      -6.981   5.963  63.012  0.00  0.00    -0.083 A 
ATOM     66  H50 non d ame      -9.142   5.920  63.025  0.00  0.00     0.083 H 
ATOM     67  C33 non d ame      -5.826   5.771  63.759  0.00  0.00    -0.082 A 
ATOM     68  H51 non d ame      -6.906   6.260  61.966  0.00  0.00     0.083 H 
ATOM     69  C34 non d ame      -5.907   5.394  65.098  0.00  0.00    -0.075 A 
ATOM     70  H52 non d ame      -4.852   5.918  63.292  0.00  0.00     0.083 H 
ATOM     71  H53 non d ame      -4.995   5.246  65.678  0.00  0.00     0.084 H 
ENDBRANCH  58  61
ENDBRANCH  57  58
ENDBRANCH  55  57
ENDBRANCH  52  55
ENDBRANCH  49  52
ENDBRANCH  47  49
BRANCH  47  72
ATOM     72  C24 non d ame     -10.625   8.323  70.915  0.00  0.00    -0.039 C 
ATOM     73  H35 non d ame     -10.613   7.558  71.691  0.00  0.00     0.036 H 
ATOM     74  H36 non d ame      -9.996   9.208  71.013  0.00  0.00     0.036 H 
BRANCH  72  75
ATOM     75  C25 non d ame     -12.138   8.832  70.776  0.00  0.00    -0.001 C 
ATOM     76  C26 non d ame     -12.186  10.474  70.845  0.00  0.00    -0.035 C 
ATOM     77  C27 non d ame     -13.100  10.846  71.772  0.00  0.00     0.085 C 
ATOM     78  H38 non d ame     -11.247  10.858  71.245  0.00  0.00     0.036 H 
ATOM     79  H39 non d ame     -12.586  10.877  69.914  0.00  0.00     0.036 H 
ATOM     80  N5  non d ame     -13.446   9.613  72.571  0.00  0.00    -0.049 N 
ATOM     81  H40 non d ame     -12.588  11.557  72.420  0.00  0.00     0.075 H 
ATOM     82  H41 non d ame     -13.978  11.158  71.205  0.00  0.00     0.075 H 
ATOM     83  C28 non d ame     -12.878   8.361  71.723  0.00  0.00     0.193 C 
ATOM     84  H42 non d ame     -12.927   9.677  73.435  0.00  0.00     0.280 HD
ATOM     85  H43 non d ame     -14.454   9.557  72.590  0.00  0.00     0.280 HD
ATOM     86  H44 non d ame     -13.556   7.728  71.150  0.00  0.00     0.129 H 
ATOM     87  H37 non d ame     -12.659   8.355  69.946  0.00  0.00     0.046 H 
BRANCH  83  88
ATOM     88  O6  non d ame     -12.159   7.472  72.579  0.00  0.00    -0.369 OA
ATOM     89  H45 non d ame     -11.418   7.938  72.973  0.00  0.00     0.212 HD
ENDBRANCH  83  88
ENDBRANCH  72  75
ENDBRANCH  47  72
ENDBRANCH  45  47
ENDBRANCH   1  43
BRANCH   1  90
ATOM     90  C16 non d ame      -8.866   9.104  65.140  0.00  0.00    -0.035 C 
ATOM     91  H21 non d ame      -8.529   8.121  65.472  0.00  0.00     0.037 H 
ATOM     92  H22 non d ame      -9.684   9.185  64.425  0.00  0.00     0.037 H 
BRANCH  90  93
ATOM     93  C17 non d ame      -7.630   9.792  64.478  0.00  0.00    -0.059 C 
ATOM     94  H23 non d ame      -7.618  10.832  64.803  0.00  0.00     0.038 H 
BRANCH  93  95
ATOM     95  C18 non d ame      -6.283   9.138  64.921  0.00  0.00    -0.073 C 
ATOM     96  H24 non d ame      -6.097   9.365  65.971  0.00  0.00     0.028 H 
ATOM     97  H25 non d ame      -6.342   8.058  64.788  0.00  0.00     0.028 H 
ATOM     98  H26 non d ame      -5.470   9.535  64.314  0.00  0.00     0.028 H 
ENDBRANCH  93  95
BRANCH  93  99
ATOM     99  C19 non d ame      -7.759   9.795  62.952  0.00  0.00    -0.073 C 
ATOM    100  H27 non d ame      -8.415   8.982  62.642  0.00  0.00     0.028 H 
ATOM    101  H28 non d ame      -8.179  10.747  62.625  0.00  0.00     0.028 H 
ATOM    102  H29 non d ame      -6.775   9.659  62.505  0.00  0.00     0.028 H 
ENDBRANCH  93  99
ENDBRANCH  90  93
ENDBRANCH   1  90
TORSDOF 26
ENDMDL
MODEL 12
REMARK VINA RESULT:      -6.4      2.853      9.164
REMARK  26 active torsions:
REMARK  status: ('A' for Active; 'I' for Inactive)
REMARK    1  A    between atoms: C2_2  and  C3_3 
REMARK    2  A    between atoms: C4_6  and  C5_7 
REMARK       I    between atoms: C5_7  and  N2_9 
REMARK    3  A    between atoms: N2_9  and  C6_10 
REMARK    4  A    between atoms: C6_10  and  C7_11 
REMARK    5  A    between atoms: C6_10  and  C8_13 
REMARK       I    between atoms: C7_11  and  N3_14 
REMARK    6  A    between atoms: N3_14  and  C9_15 
REMARK    7  A    between atoms: C9_15  and  C10_16 
REMARK    8  A    between atoms: C9_15  and  C11_18 
REMARK       I    between atoms: C10_16  and  N4_21 
REMARK    9  A    between atoms: C11_18  and  C12_19 
REMARK   10  A    between atoms: C11_18  and  C13_20 
REMARK   11  A    between atoms: N4_21  and  C14_22 
REMARK   12  A    between atoms: C14_22  and  C15_23 
REMARK   13  A    between atoms: C14_22  and  C16_25 
REMARK       I    between atoms: C15_23  and  N6_40 
REMARK   14  A    between atoms: C16_25  and  C17_26 
REMARK   15  A    between atoms: C17_26  and  C18_27 
REMARK   16  A    between atoms: C17_26  and  C19_28 
REMARK   17  A    between atoms: C20_29  and  C21_30 
REMARK   18  A    between atoms: C20_29  and  C24_33 
REMARK   19  A    between atoms: C20_29  and  N6_40 
REMARK   20  A    between atoms: C21_30  and  C22_31 
REMARK   21  A    between atoms: C22_31  and  C23_32 
REMARK   22  A    between atoms: C23_32  and  O8_43 
REMARK   23  A    between atoms: C24_33  and  C25_34 
REMARK   24  A    between atoms: C28_38  and  O6_39 
REMARK   25  A    between atoms: C29_42  and  O8_43 
REMARK   26  A    between atoms: C29_42  and  C35_49 
ROOT
ATOM      1  C14 non d ame     -10.776  12.976  64.839  0.00  0.00     0.089 C 
ATOM      2  H20 non d ame     -11.162  12.913  63.821  0.00  0.00     0.087 H 
ENDROOT
BRANCH   1   3
ATOM      3  N4  non d ame      -9.669  12.038  64.947  0.00  0.00    -0.346 N 
ATOM      4  C10 non d ame      -9.612  10.821  64.058  0.00  0.00     0.241 C 
ATOM      5  O4  non d ame     -10.471  10.616  63.265  0.00  0.00    -0.271 OA
ATOM      6  H19 non d ame      -8.950  12.229  65.631  0.00  0.00     0.163 HD
BRANCH   4   7
ATOM      7  C9  non d ame      -8.456   9.863  64.180  0.00  0.00     0.092 C 
ATOM      8  H11 non d ame      -7.674  10.320  64.786  0.00  0.00     0.088 H 
BRANCH   7   9
ATOM      9  N3  non d ame      -8.895   8.653  64.882  0.00  0.00    -0.346 N 
ATOM     10  C7  non d ame      -8.379   8.354  66.195  0.00  0.00     0.240 C 
ATOM     11  O3  non d ame      -7.608   9.075  66.701  0.00  0.00    -0.271 OA
ATOM     12  H10 non d ame      -9.558   8.021  64.458  0.00  0.00     0.163 HD
BRANCH  10  13
ATOM     13  C6  non d ame      -8.847   7.063  66.936  0.00  0.00     0.086 C 
ATOM     14  H6  non d ame      -8.074   6.640  67.576  0.00  0.00     0.086 H 
BRANCH  13  15
ATOM     15  N2  non d ame      -9.967   7.397  67.800  0.00  0.00    -0.343 N 
ATOM     16  C5  non d ame      -9.911   7.043  69.221  0.00  0.00     0.273 C 
ATOM     17  O2  non d ame      -8.963   6.488  69.656  0.00  0.00    -0.266 OA
ATOM     18  H5  non d ame     -10.774   7.868  67.420  0.00  0.00     0.163 HD
BRANCH  16  19
ATOM     19  C4  non d ame     -11.087   7.391  70.147  0.00  0.00     0.154 A 
ATOM     20  C1  non d ame     -11.444   8.686  70.641  0.00  0.00    -0.017 A 
ATOM     21  C2  non d ame     -12.587   8.467  71.443  0.00  0.00     0.077 A 
ATOM     22  H1  non d ame     -10.951   9.639  70.447  0.00  0.00     0.091 H 
ATOM     23  O1  non d ame     -12.848   7.192  71.406  0.00  0.00    -0.218 OA
ATOM     24  N1  non d ame     -11.985   6.544  70.657  0.00  0.00    -0.123 NA
BRANCH  21  25
ATOM     25  C3  non d ame     -13.369   9.527  72.206  0.00  0.00    -0.029 C 
ATOM     26  H2  non d ame     -14.204   9.058  72.728  0.00  0.00     0.036 H 
ATOM     27  H3  non d ame     -12.714  10.010  72.930  0.00  0.00     0.036 H 
ATOM     28  H4  non d ame     -13.750  10.272  71.507  0.00  0.00     0.036 H 
ENDBRANCH  21  25
ENDBRANCH  16  19
ENDBRANCH  13  15
BRANCH  13  29
ATOM     29  C8  non d ame      -9.267   6.025  65.926  0.00  0.00    -0.049 C 
ATOM     30  H7  non d ame      -8.843   6.272  64.953  0.00  0.00     0.030 H 
ATOM     31  H8  non d ame      -8.905   5.045  66.242  0.00  0.00     0.030 H 
ATOM     32  H9  non d ame     -10.353   6.005  65.855  0.00  0.00     0.030 H 
ENDBRANCH  13  29
ENDBRANCH  10  13
ENDBRANCH   7   9
BRANCH   7  33
ATOM     33  C11 non d ame      -7.948   9.480  62.759  0.00  0.00    -0.033 C 
ATOM     34  H12 non d ame      -8.506  10.078  62.038  0.00  0.00     0.042 H 
BRANCH  33  35
ATOM     35  C12 non d ame      -6.436   9.825  62.584  0.00  0.00    -0.071 C 
ATOM     36  H13 non d ame      -6.339  10.769  62.049  0.00  0.00     0.028 H 
ATOM     37  H14 non d ame      -5.968   9.914  63.564  0.00  0.00     0.028 H 
ATOM     38  H15 non d ame      -5.946   9.033  62.019  0.00  0.00     0.028 H 
ENDBRANCH  33  35
BRANCH  33  39
ATOM     39  C13 non d ame      -8.224   7.973  62.455  0.00  0.00    -0.071 C 
ATOM     40  H16 non d ame      -7.994   7.765  61.410  0.00  0.00     0.028 H 
ATOM     41  H17 non d ame      -7.598   7.351  63.095  0.00  0.00     0.028 H 
ATOM     42  H18 non d ame      -9.273   7.751  62.647  0.00  0.00     0.028 H 
ENDBRANCH  33  39
ENDBRANCH   7  33
ENDBRANCH   4   7
ENDBRANCH   1   3
BRANCH   1  43
ATOM     43  C15 non d ame     -10.254  14.400  65.182  0.00  0.00     0.240 C 
ATOM     44  O5  non d ame     -10.786  15.355  64.713  0.00  0.00    -0.271 OA
ATOM     45  N6  non d ame      -9.096  14.576  66.104  0.00  0.00    -0.355 N 
ATOM     46  H46 non d ame      -8.639  13.774  66.513  0.00  0.00     0.162 HD
BRANCH  45  47
ATOM     47  C20 non d ame      -8.613  15.937  66.422  0.00  0.00     0.013 C 
ATOM     48  H30 non d ame      -8.630  16.522  65.502  0.00  0.00     0.072 H 
BRANCH  47  49
ATOM     49  C21 non d ame      -7.200  15.855  66.955  0.00  0.00    -0.038 C 
ATOM     50  H31 non d ame      -6.935  14.798  66.924  0.00  0.00     0.036 H 
ATOM     51  H32 non d ame      -6.625  16.579  66.376  0.00  0.00     0.036 H 
BRANCH  49  52
ATOM     52  C22 non d ame      -7.089  16.291  68.431  0.00  0.00     0.018 C 
ATOM     53  H33 non d ame      -8.115  16.384  68.790  0.00  0.00     0.048 H 
ATOM     54  H34 non d ame      -6.411  15.577  68.900  0.00  0.00     0.048 H 
BRANCH  52  55
ATOM     55  C23 non d ame      -6.441  17.690  68.624  0.00  0.00     0.259 C 
ATOM     56  O7  non d ame      -7.034  18.558  69.177  0.00  0.00    -0.265 OA
BRANCH  55  57
ATOM     57  O8  non d ame      -5.134  17.928  68.118  0.00  0.00    -0.317 OA
BRANCH  57  58
ATOM     58  C29 non d ame      -4.885  19.292  67.762  0.00  0.00     0.052 C 
ATOM     59  H47 non d ame      -5.631  19.878  68.298  0.00  0.00     0.082 H 
ATOM     60  H48 non d ame      -3.824  19.457  67.951  0.00  0.00     0.082 H 
BRANCH  58  61
ATOM     61  C35 non d ame      -5.142  19.444  66.239  0.00  0.00    -0.034 A 
ATOM     62  C30 non d ame      -4.875  18.385  65.379  0.00  0.00    -0.075 A 
ATOM     63  C31 non d ame      -5.106  18.521  64.011  0.00  0.00    -0.082 A 
ATOM     64  H49 non d ame      -4.485  17.448  65.775  0.00  0.00     0.084 H 
ATOM     65  C32 non d ame      -5.604  19.724  63.504  0.00  0.00    -0.083 A 
ATOM     66  H50 non d ame      -4.897  17.689  63.339  0.00  0.00     0.083 H 
ATOM     67  C33 non d ame      -5.867  20.781  64.366  0.00  0.00    -0.082 A 
ATOM     68  H51 non d ame      -5.788  19.840  62.436  0.00  0.00     0.083 H 
ATOM     69  C34 non d ame      -5.639  20.647  65.735  0.00  0.00    -0.075 A 
ATOM     70  H52 non d ame      -6.253  21.719  63.967  0.00  0.00     0.083 H 
ATOM     71  H53 non d ame      -5.849  21.481  66.406  0.00  0.00     0.084 H 
ENDBRANCH  58  61
ENDBRANCH  57  58
ENDBRANCH  55  57
ENDBRANCH  52  55
ENDBRANCH  49  52
ENDBRANCH  47  49
BRANCH  47  72
ATOM     72  C24 non d ame      -9.518  16.574  67.474  0.00  0.00    -0.039 C 
ATOM     73  H35 non d ame     -10.359  15.890  67.586  0.00  0.00     0.036 H 
ATOM     74  H36 non d ame      -8.870  16.786  68.325  0.00  0.00     0.036 H 
BRANCH  72  75
ATOM     75  C25 non d ame     -10.112  17.975  66.974  0.00  0.00    -0.001 C 
ATOM     76  C26 non d ame      -8.943  18.839  66.205  0.00  0.00    -0.035 C 
ATOM     77  C27 non d ame      -8.894  20.081  66.740  0.00  0.00     0.085 C 
ATOM     78  H38 non d ame      -7.962  18.424  66.434  0.00  0.00     0.036 H 
ATOM     79  H39 non d ame      -9.231  19.018  65.168  0.00  0.00     0.036 H 
ATOM     80  N5  non d ame      -9.695  20.043  68.019  0.00  0.00    -0.049 N 
ATOM     81  H40 non d ame      -7.845  20.254  66.983  0.00  0.00     0.075 H 
ATOM     82  H41 non d ame      -9.401  20.727  66.023  0.00  0.00     0.075 H 
ATOM     83  C28 non d ame     -10.553  18.676  67.965  0.00  0.00     0.193 C 
ATOM     84  H42 non d ame      -9.027  19.973  68.773  0.00  0.00     0.280 HD
ATOM     85  H43 non d ame     -10.333  20.825  67.981  0.00  0.00     0.280 HD
ATOM     86  H44 non d ame     -11.619  18.700  67.733  0.00  0.00     0.129 H 
ATOM     87  H37 non d ame     -11.064  17.859  66.456  0.00  0.00     0.046 H 
BRANCH  83  88
ATOM     88  O6  non d ame     -10.448  17.980  69.207  0.00  0.00    -0.369 OA
ATOM     89  H45 non d ame     -10.319  17.044  69.039  0.00  0.00     0.212 HD
ENDBRANCH  83  88
ENDBRANCH  72  75
ENDBRANCH  47  72
ENDBRANCH  45  47
ENDBRANCH   1  43
BRANCH   1  90
ATOM     90  C16 non d ame     -11.863  12.578  65.826  0.00  0.00    -0.035 C 
ATOM     91  H21 non d ame     -12.571  13.407  65.825  0.00  0.00     0.037 H 
ATOM     92  H22 non d ame     -12.187  11.585  65.514  0.00  0.00     0.037 H 
BRANCH  90  93
ATOM     93  C17 non d ame     -11.353  12.436  67.295  0.00  0.00    -0.059 C 
ATOM     94  H23 non d ame     -10.274  12.589  67.286  0.00  0.00     0.038 H 
BRANCH  93  95
ATOM     95  C18 non d ame     -11.979  13.506  68.243  0.00  0.00    -0.073 C 
ATOM     96  H24 non d ame     -12.547  14.226  67.654  0.00  0.00     0.028 H 
ATOM     97  H25 non d ame     -12.643  13.016  68.956  0.00  0.00     0.028 H 
ATOM     98  H26 non d ame     -11.186  14.023  68.783  0.00  0.00     0.028 H 
ENDBRANCH  93  95
BRANCH  93  99
ATOM     99  C19 non d ame     -11.605  11.022  67.826  0.00  0.00    -0.073 C 
ATOM    100  H27 non d ame     -10.807  10.360  67.490  0.00  0.00     0.028 H 
ATOM    101  H28 non d ame     -11.627  11.041  68.916  0.00  0.00     0.028 H 
ATOM    102  H29 non d ame     -12.561  10.658  67.450  0.00  0.00     0.028 H 
ENDBRANCH  93  99
ENDBRANCH  90  93
ENDBRANCH   1  90
TORSDOF 26
ENDMDL
MODEL 13
REMARK VINA RESULT:      -6.4      3.032      5.502
REMARK  26 active torsions:
REMARK  status: ('A' for Active; 'I' for Inactive)
REMARK    1  A    between atoms: C2_2  and  C3_3 
REMARK    2  A    between atoms: C4_6  and  C5_7 
REMARK       I    between atoms: C5_7  and  N2_9 
REMARK    3  A    between atoms: N2_9  and  C6_10 
REMARK    4  A    between atoms: C6_10  and  C7_11 
REMARK    5  A    between atoms: C6_10  and  C8_13 
REMARK       I    between atoms: C7_11  and  N3_14 
REMARK    6  A    between atoms: N3_14  and  C9_15 
REMARK    7  A    between atoms: C9_15  and  C10_16 
REMARK    8  A    between atoms: C9_15  and  C11_18 
REMARK       I    between atoms: C10_16  and  N4_21 
REMARK    9  A    between atoms: C11_18  and  C12_19 
REMARK   10  A    between atoms: C11_18  and  C13_20 
REMARK   11  A    between atoms: N4_21  and  C14_22 
REMARK   12  A    between atoms: C14_22  and  C15_23 
REMARK   13  A    between atoms: C14_22  and  C16_25 
REMARK       I    between atoms: C15_23  and  N6_40 
REMARK   14  A    between atoms: C16_25  and  C17_26 
REMARK   15  A    between atoms: C17_26  and  C18_27 
REMARK   16  A    between atoms: C17_26  and  C19_28 
REMARK   17  A    between atoms: C20_29  and  C21_30 
REMARK   18  A    between atoms: C20_29  and  C24_33 
REMARK   19  A    between atoms: C20_29  and  N6_40 
REMARK   20  A    between atoms: C21_30  and  C22_31 
REMARK   21  A    between atoms: C22_31  and  C23_32 
REMARK   22  A    between atoms: C23_32  and  O8_43 
REMARK   23  A    between atoms: C24_33  and  C25_34 
REMARK   24  A    between atoms: C28_38  and  O6_39 
REMARK   25  A    between atoms: C29_42  and  O8_43 
REMARK   26  A    between atoms: C29_42  and  C35_49 
ROOT
ATOM      1  C14 non d ame      -6.241  16.823  67.907  0.00  0.00     0.089 C 
ATOM      2  H20 non d ame      -5.772  17.470  67.167  0.00  0.00     0.087 H 
ENDROOT
BRANCH   1   3
ATOM      3  N4  non d ame      -7.678  16.861  67.676  0.00  0.00    -0.346 N 
ATOM      4  C10 non d ame      -8.238  17.596  66.485  0.00  0.00     0.241 C 
ATOM      5  O4  non d ame      -7.513  18.152  65.727  0.00  0.00    -0.271 OA
ATOM      6  H19 non d ame      -8.278  16.383  68.335  0.00  0.00     0.163 HD
BRANCH   4   7
ATOM      7  C9  non d ame      -9.727  17.620  66.258  0.00  0.00     0.092 C 
ATOM      8  H11 non d ame      -9.927  17.566  65.187  0.00  0.00     0.088 H 
BRANCH   7   9
ATOM      9  N3  non d ame     -10.335  16.436  66.872  0.00  0.00    -0.346 N 
ATOM     10  C7  non d ame     -10.857  15.380  66.041  0.00  0.00     0.240 C 
ATOM     11  O3  non d ame     -10.798  15.467  64.874  0.00  0.00    -0.271 OA
ATOM     12  H10 non d ame     -10.395  16.348  67.876  0.00  0.00     0.163 HD
BRANCH  10  13
ATOM     13  C6  non d ame     -11.506  14.124  66.700  0.00  0.00     0.086 C 
ATOM     14  H6  non d ame     -10.810  13.291  66.797  0.00  0.00     0.086 H 
BRANCH  13  15
ATOM     15  N2  non d ame     -11.933  14.468  68.047  0.00  0.00    -0.343 N 
ATOM     16  C5  non d ame     -11.982  13.425  69.075  0.00  0.00     0.273 C 
ATOM     17  O2  non d ame     -11.679  12.315  68.808  0.00  0.00    -0.266 OA
ATOM     18  H5  non d ame     -12.192  15.418  68.266  0.00  0.00     0.163 HD
BRANCH  16  19
ATOM     19  C4  non d ame     -12.430  13.774  70.503  0.00  0.00     0.154 A 
ATOM     20  C1  non d ame     -12.408  15.062  71.126  0.00  0.00    -0.017 A 
ATOM     21  C2  non d ame     -12.917  14.847  72.426  0.00  0.00     0.077 A 
ATOM     22  H1  non d ame     -12.075  16.009  70.699  0.00  0.00     0.091 H 
ATOM     23  O1  non d ame     -13.196  13.580  72.528  0.00  0.00    -0.218 OA
ATOM     24  N1  non d ame     -12.920  12.933  71.418  0.00  0.00    -0.123 NA
BRANCH  21  25
ATOM     25  C3  non d ame     -13.105  15.903  73.507  0.00  0.00    -0.029 C 
ATOM     26  H2  non d ame     -14.107  16.327  73.431  0.00  0.00     0.036 H 
ATOM     27  H3  non d ame     -12.977  15.445  74.487  0.00  0.00     0.036 H 
ATOM     28  H4  non d ame     -12.366  16.693  73.377  0.00  0.00     0.036 H 
ENDBRANCH  21  25
ENDBRANCH  16  19
ENDBRANCH  13  15
BRANCH  13  29
ATOM     29  C8  non d ame     -12.691  13.678  65.882  0.00  0.00    -0.049 C 
ATOM     30  H7  non d ame     -13.388  14.508  65.769  0.00  0.00     0.030 H 
ATOM     31  H8  non d ame     -12.350  13.353  64.898  0.00  0.00     0.030 H 
ATOM     32  H9  non d ame     -13.190  12.851  66.386  0.00  0.00     0.030 H 
ENDBRANCH  13  29
ENDBRANCH  10  13
ENDBRANCH   7   9
BRANCH   7  33
ATOM     33  C11 non d ame     -10.329  18.903  66.902  0.00  0.00    -0.033 C 
ATOM     34  H12 non d ame     -11.306  18.640  67.307  0.00  0.00     0.042 H 
BRANCH  33  35
ATOM     35  C12 non d ame      -9.451  19.410  68.088  0.00  0.00    -0.071 C 
ATOM     36  H13 non d ame      -9.136  18.561  68.695  0.00  0.00     0.028 H 
ATOM     37  H14 non d ame      -8.572  19.922  67.697  0.00  0.00     0.028 H 
ATOM     38  H15 non d ame     -10.031  20.101  68.699  0.00  0.00     0.028 H 
ENDBRANCH  33  35
BRANCH  33  39
ATOM     39  C13 non d ame     -10.535  20.022  65.831  0.00  0.00    -0.071 C 
ATOM     40  H16 non d ame     -10.887  20.931  66.318  0.00  0.00     0.028 H 
ATOM     41  H17 non d ame      -9.589  20.222  65.327  0.00  0.00     0.028 H 
ATOM     42  H18 non d ame     -11.274  19.693  65.100  0.00  0.00     0.028 H 
ENDBRANCH  33  39
ENDBRANCH   7  33
ENDBRANCH   4   7
ENDBRANCH   1   3
BRANCH   1  43
ATOM     43  C15 non d ame      -5.760  15.348  67.789  0.00  0.00     0.240 C 
ATOM     44  O5  non d ame      -4.675  15.113  67.362  0.00  0.00    -0.271 OA
ATOM     45  N6  non d ame      -6.647  14.229  68.215  0.00  0.00    -0.355 N 
ATOM     46  H46 non d ame      -7.569  14.416  68.583  0.00  0.00     0.162 HD
BRANCH  45  47
ATOM     47  C20 non d ame      -6.173  12.833  68.097  0.00  0.00     0.013 C 
ATOM     48  H30 non d ame      -5.230  12.844  67.551  0.00  0.00     0.072 H 
BRANCH  47  49
ATOM     49  C21 non d ame      -7.199  12.019  67.339  0.00  0.00    -0.038 C 
ATOM     50  H31 non d ame      -7.454  12.611  66.460  0.00  0.00     0.036 H 
ATOM     51  H32 non d ame      -6.758  11.028  67.221  0.00  0.00     0.036 H 
BRANCH  49  52
ATOM     52  C22 non d ame      -8.510  11.822  68.130  0.00  0.00     0.018 C 
ATOM     53  H33 non d ame      -8.320  12.227  69.125  0.00  0.00     0.048 H 
ATOM     54  H34 non d ame      -9.297  12.250  67.508  0.00  0.00     0.048 H 
BRANCH  52  55
ATOM     55  C23 non d ame      -8.895  10.331  68.342  0.00  0.00     0.259 C 
ATOM     56  O7  non d ame      -9.194   9.934  69.420  0.00  0.00    -0.265 OA
BRANCH  55  57
ATOM     57  O8  non d ame      -8.871   9.441  67.233  0.00  0.00    -0.317 OA
BRANCH  57  58
ATOM     58  C29 non d ame     -10.059   9.469  66.437  0.00  0.00     0.052 C 
ATOM     59  H47 non d ame     -10.365   8.430  66.324  0.00  0.00     0.082 H 
ATOM     60  H48 non d ame     -10.724  10.183  66.924  0.00  0.00     0.082 H 
BRANCH  58  61
ATOM     61  C35 non d ame      -9.685  10.025  65.037  0.00  0.00    -0.034 A 
ATOM     62  C30 non d ame      -8.582   9.518  64.359  0.00  0.00    -0.075 A 
ATOM     63  C31 non d ame      -8.244  10.017  63.102  0.00  0.00    -0.082 A 
ATOM     64  H49 non d ame      -7.981   8.730  64.812  0.00  0.00     0.084 H 
ATOM     65  C32 non d ame      -9.015  11.030  62.524  0.00  0.00    -0.083 A 
ATOM     66  H50 non d ame      -7.380   9.616  62.572  0.00  0.00     0.083 H 
ATOM     67  C33 non d ame     -10.113  11.536  63.206  0.00  0.00    -0.082 A 
ATOM     68  H51 non d ame      -8.758  11.426  61.541  0.00  0.00     0.083 H 
ATOM     69  C34 non d ame     -10.455  11.038  64.462  0.00  0.00    -0.075 A 
ATOM     70  H52 non d ame     -10.711  12.328  62.753  0.00  0.00     0.083 H 
ATOM     71  H53 non d ame     -11.320  11.439  64.991  0.00  0.00     0.084 H 
ENDBRANCH  58  61
ENDBRANCH  57  58
ENDBRANCH  55  57
ENDBRANCH  52  55
ENDBRANCH  49  52
ENDBRANCH  47  49
BRANCH  47  72
ATOM     72  C24 non d ame      -5.975  12.236  69.488  0.00  0.00    -0.039 C 
ATOM     73  H35 non d ame      -6.826  12.579  70.076  0.00  0.00     0.036 H 
ATOM     74  H36 non d ame      -5.819  11.169  69.327  0.00  0.00     0.036 H 
BRANCH  72  75
ATOM     75  C25 non d ame      -4.654  12.804  70.194  0.00  0.00    -0.001 C 
ATOM     76  C26 non d ame      -3.722  11.558  70.727  0.00  0.00    -0.035 C 
ATOM     77  C27 non d ame      -3.415  11.769  72.029  0.00  0.00     0.085 C 
ATOM     78  H38 non d ame      -4.307  10.639  70.749  0.00  0.00     0.036 H 
ATOM     79  H39 non d ame      -2.752  11.576  70.230  0.00  0.00     0.036 H 
ATOM     80  N5  non d ame      -4.318  12.874  72.523  0.00  0.00    -0.049 N 
ATOM     81  H40 non d ame      -3.673  10.843  72.544  0.00  0.00     0.075 H 
ATOM     82  H41 non d ame      -2.385  12.126  72.031  0.00  0.00     0.075 H 
ATOM     83  C28 non d ame      -4.949  13.556  71.202  0.00  0.00     0.193 C 
ATOM     84  H42 non d ame      -5.062  12.427  73.040  0.00  0.00     0.280 HD
ATOM     85  H43 non d ame      -3.722  13.549  72.979  0.00  0.00     0.280 HD
ATOM     86  H44 non d ame      -4.581  14.519  70.847  0.00  0.00     0.129 H 
ATOM     87  H37 non d ame      -4.162  13.569  69.593  0.00  0.00     0.046 H 
BRANCH  83  88
ATOM     88  O6  non d ame      -6.359  13.719  71.358  0.00  0.00    -0.369 OA
ATOM     89  H45 non d ame      -6.597  14.631  71.177  0.00  0.00     0.212 HD
ENDBRANCH  83  88
ENDBRANCH  72  75
ENDBRANCH  47  72
ENDBRANCH  45  47
ENDBRANCH   1  43
BRANCH   1  90
ATOM     90  C16 non d ame      -5.949  17.345  69.306  0.00  0.00    -0.035 C 
ATOM     91  H21 non d ame      -6.926  17.514  69.760  0.00  0.00     0.037 H 
ATOM     92  H22 non d ame      -5.262  16.623  69.745  0.00  0.00     0.037 H 
BRANCH  90  93
ATOM     93  C17 non d ame      -5.213  18.721  69.319  0.00  0.00    -0.059 C 
ATOM     94  H23 non d ame      -4.267  18.585  69.844  0.00  0.00     0.038 H 
BRANCH  93  95
ATOM     95  C18 non d ame      -4.890  19.232  67.879  0.00  0.00    -0.073 C 
ATOM     96  H24 non d ame      -5.811  19.557  67.394  0.00  0.00     0.028 H 
ATOM     97  H25 non d ame      -4.197  20.071  67.938  0.00  0.00     0.028 H 
ATOM     98  H26 non d ame      -4.438  18.428  67.300  0.00  0.00     0.028 H 
ENDBRANCH  93  95
BRANCH  93  99
ATOM     99  C19 non d ame      -6.018  19.764  70.100  0.00  0.00    -0.073 C 
ATOM    100  H27 non d ame      -7.058  19.445  70.165  0.00  0.00     0.028 H 
ATOM    101  H28 non d ame      -5.605  19.865  71.103  0.00  0.00     0.028 H 
ATOM    102  H29 non d ame      -5.965  20.723  69.586  0.00  0.00     0.028 H 
ENDBRANCH  93  99
ENDBRANCH  90  93
ENDBRANCH   1  90
TORSDOF 26
ENDMDL
MODEL 14
REMARK VINA RESULT:      -6.4      1.505      2.174
REMARK  26 active torsions:
REMARK  status: ('A' for Active; 'I' for Inactive)
REMARK    1  A    between atoms: C2_2  and  C3_3 
REMARK    2  A    between atoms: C4_6  and  C5_7 
REMARK       I    between atoms: C5_7  and  N2_9 
REMARK    3  A    between atoms: N2_9  and  C6_10 
REMARK    4  A    between atoms: C6_10  and  C7_11 
REMARK    5  A    between atoms: C6_10  and  C8_13 
REMARK       I    between atoms: C7_11  and  N3_14 
REMARK    6  A    between atoms: N3_14  and  C9_15 
REMARK    7  A    between atoms: C9_15  and  C10_16 
REMARK    8  A    between atoms: C9_15  and  C11_18 
REMARK       I    between atoms: C10_16  and  N4_21 
REMARK    9  A    between atoms: C11_18  and  C12_19 
REMARK   10  A    between atoms: C11_18  and  C13_20 
REMARK   11  A    between atoms: N4_21  and  C14_22 
REMARK   12  A    between atoms: C14_22  and  C15_23 
REMARK   13  A    between atoms: C14_22  and  C16_25 
REMARK       I    between atoms: C15_23  and  N6_40 
REMARK   14  A    between atoms: C16_25  and  C17_26 
REMARK   15  A    between atoms: C17_26  and  C18_27 
REMARK   16  A    between atoms: C17_26  and  C19_28 
REMARK   17  A    between atoms: C20_29  and  C21_30 
REMARK   18  A    between atoms: C20_29  and  C24_33 
REMARK   19  A    between atoms: C20_29  and  N6_40 
REMARK   20  A    between atoms: C21_30  and  C22_31 
REMARK   21  A    between atoms: C22_31  and  C23_32 
REMARK   22  A    between atoms: C23_32  and  O8_43 
REMARK   23  A    between atoms: C24_33  and  C25_34 
REMARK   24  A    between atoms: C28_38  and  O6_39 
REMARK   25  A    between atoms: C29_42  and  O8_43 
REMARK   26  A    between atoms: C29_42  and  C35_49 
ROOT
ATOM      1  C14 non d ame      -7.247  14.401  67.451  0.00  0.00     0.089 C 
ATOM      2  H20 non d ame      -6.952  14.770  66.468  0.00  0.00     0.087 H 
ENDROOT
BRANCH   1   3
ATOM      3  N4  non d ame      -8.397  15.180  67.884  0.00  0.00    -0.346 N 
ATOM      4  C10 non d ame      -9.064  16.146  66.937  0.00  0.00     0.241 C 
ATOM      5  O4  non d ame      -8.654  16.282  65.831  0.00  0.00    -0.271 OA
ATOM      6  H19 non d ame      -8.729  15.052  68.830  0.00  0.00     0.163 HD
BRANCH   4   7
ATOM      7  C9  non d ame     -10.256  16.941  67.400  0.00  0.00     0.092 C 
ATOM      8  H11 non d ame     -11.075  16.803  66.694  0.00  0.00     0.088 H 
BRANCH   7   9
ATOM      9  N3  non d ame     -10.712  16.428  68.695  0.00  0.00    -0.346 N 
ATOM     10  C7  non d ame     -11.628  15.316  68.750  0.00  0.00     0.240 C 
ATOM     11  O3  non d ame     -12.011  14.822  67.760  0.00  0.00    -0.271 OA
ATOM     12  H10 non d ame     -10.392  16.845  69.558  0.00  0.00     0.163 HD
BRANCH  10  13
ATOM     13  C6  non d ame     -12.112  14.778  70.132  0.00  0.00     0.086 C 
ATOM     14  H6  non d ame     -13.171  14.966  70.311  0.00  0.00     0.086 H 
BRANCH  13  15
ATOM     15  N2  non d ame     -11.934  13.336  70.164  0.00  0.00    -0.343 N 
ATOM     16  C5  non d ame     -12.728  12.532  71.097  0.00  0.00     0.273 C 
ATOM     17  O2  non d ame     -13.504  13.056  71.818  0.00  0.00    -0.266 OA
ATOM     18  H5  non d ame     -11.268  12.896  69.546  0.00  0.00     0.163 HD
BRANCH  16  19
ATOM     19  C4  non d ame     -12.552  11.006  71.140  0.00  0.00     0.154 A 
ATOM     20  C1  non d ame     -13.483  10.043  71.644  0.00  0.00    -0.017 A 
ATOM     21  C2  non d ame     -12.851   8.793  71.457  0.00  0.00     0.077 A 
ATOM     22  H1  non d ame     -14.466  10.222  72.080  0.00  0.00     0.091 H 
ATOM     23  O1  non d ame     -11.694   9.023  70.906  0.00  0.00    -0.218 OA
ATOM     24  N1  non d ame     -11.497  10.307  70.713  0.00  0.00    -0.123 NA
BRANCH  21  25
ATOM     25  C3  non d ame     -13.420   7.431  71.827  0.00  0.00    -0.029 C 
ATOM     26  H2  non d ame     -12.673   6.863  72.384  0.00  0.00     0.036 H 
ATOM     27  H3  non d ame     -14.309   7.564  72.443  0.00  0.00     0.036 H 
ATOM     28  H4  non d ame     -13.686   6.888  70.919  0.00  0.00     0.036 H 
ENDBRANCH  21  25
ENDBRANCH  16  19
ENDBRANCH  13  15
BRANCH  13  29
ATOM     29  C8  non d ame     -11.310  15.421  71.234  0.00  0.00    -0.049 C 
ATOM     30  H7  non d ame     -10.397  14.848  71.402  0.00  0.00     0.030 H 
ATOM     31  H8  non d ame     -11.050  16.441  70.947  0.00  0.00     0.030 H 
ATOM     32  H9  non d ame     -11.899  15.440  72.149  0.00  0.00     0.030 H 
ENDBRANCH  13  29
ENDBRANCH  10  13
ENDBRANCH   7   9
BRANCH   7  33
ATOM     33  C11 non d ame      -9.857  18.438  67.548  0.00  0.00    -0.033 C 
ATOM     34  H12 non d ame      -8.880  18.565  67.081  0.00  0.00     0.042 H 
BRANCH  33  35
ATOM     35  C12 non d ame     -10.860  19.370  66.799  0.00  0.00    -0.071 C 
ATOM     36  H13 non d ame     -11.472  18.775  66.121  0.00  0.00     0.028 H 
ATOM     37  H14 non d ame     -11.502  19.870  67.524  0.00  0.00     0.028 H 
ATOM     38  H15 non d ame     -10.306  20.116  66.230  0.00  0.00     0.028 H 
ENDBRANCH  33  35
BRANCH  33  39
ATOM     39  C13 non d ame      -9.730  18.836  69.053  0.00  0.00    -0.071 C 
ATOM     40  H16 non d ame     -10.543  18.383  69.619  0.00  0.00     0.028 H 
ATOM     41  H17 non d ame      -8.774  18.484  69.443  0.00  0.00     0.028 H 
ATOM     42  H18 non d ame      -9.782  19.921  69.147  0.00  0.00     0.028 H 
ENDBRANCH  33  39
ENDBRANCH   7  33
ENDBRANCH   4   7
ENDBRANCH   1   3
BRANCH   1  43
ATOM     43  C15 non d ame      -7.650  12.899  67.418  0.00  0.00     0.240 C 
ATOM     44  O5  non d ame      -7.432  12.208  68.361  0.00  0.00    -0.271 OA
ATOM     45  N6  non d ame      -8.316  12.323  66.215  0.00  0.00    -0.355 N 
ATOM     46  H46 non d ame      -8.510  12.901  65.410  0.00  0.00     0.162 HD
BRANCH  45  47
ATOM     47  C20 non d ame      -8.694  10.894  66.200  0.00  0.00     0.013 C 
ATOM     48  H30 non d ame      -8.912  10.594  67.226  0.00  0.00     0.072 H 
BRANCH  47  49
ATOM     49  C21 non d ame      -7.543  10.077  65.658  0.00  0.00    -0.038 C 
ATOM     50  H31 non d ame      -7.663  10.083  64.574  0.00  0.00     0.036 H 
ATOM     51  H32 non d ame      -6.645  10.500  66.110  0.00  0.00     0.036 H 
BRANCH  49  52
ATOM     52  C22 non d ame      -7.598   8.598  66.097  0.00  0.00     0.018 C 
ATOM     53  H33 non d ame      -6.559   8.280  66.196  0.00  0.00     0.048 H 
ATOM     54  H34 non d ame      -8.261   8.571  66.962  0.00  0.00     0.048 H 
BRANCH  52  55
ATOM     55  C23 non d ame      -8.234   7.655  65.038  0.00  0.00     0.259 C 
ATOM     56  O7  non d ame      -8.199   7.934  63.884  0.00  0.00    -0.265 OA
BRANCH  55  57
ATOM     57  O8  non d ame      -8.873   6.458  65.465  0.00  0.00    -0.317 OA
BRANCH  57  58
ATOM     58  C29 non d ame      -8.180   5.767  66.508  0.00  0.00     0.052 C 
ATOM     59  H47 non d ame      -8.073   4.739  66.162  0.00  0.00     0.082 H 
ATOM     60  H48 non d ame      -7.293   6.365  66.720  0.00  0.00     0.082 H 
BRANCH  58  61
ATOM     61  C35 non d ame      -9.085   5.769  67.768  0.00  0.00    -0.034 A 
ATOM     62  C30 non d ame     -10.419   6.151  67.667  0.00  0.00    -0.075 A 
ATOM     63  C31 non d ame     -11.233   6.153  68.798  0.00  0.00    -0.082 A 
ATOM     64  H49 non d ame     -10.826   6.448  66.701  0.00  0.00     0.084 H 
ATOM     65  C32 non d ame     -10.707   5.774  70.037  0.00  0.00    -0.083 A 
ATOM     66  H50 non d ame     -12.277   6.451  68.715  0.00  0.00     0.083 H 
ATOM     67  C33 non d ame      -9.374   5.397  70.134  0.00  0.00    -0.082 A 
ATOM     68  H51 non d ame     -11.336   5.773  70.927  0.00  0.00     0.083 H 
ATOM     69  C34 non d ame      -8.558   5.391  69.005  0.00  0.00    -0.075 A 
ATOM     70  H52 non d ame      -8.966   5.104  71.102  0.00  0.00     0.083 H 
ATOM     71  H53 non d ame      -7.512   5.092  69.089  0.00  0.00     0.084 H 
ENDBRANCH  58  61
ENDBRANCH  57  58
ENDBRANCH  55  57
ENDBRANCH  52  55
ENDBRANCH  49  52
ENDBRANCH  47  49
BRANCH  47  72
ATOM     72  C24 non d ame      -9.923  10.694  65.316  0.00  0.00    -0.039 C 
ATOM     73  H35 non d ame      -9.579  10.096  64.472  0.00  0.00     0.036 H 
ATOM     74  H36 non d ame     -10.698  10.307  65.978  0.00  0.00     0.036 H 
BRANCH  72  75
ATOM     75  C25 non d ame     -10.459  12.083  64.724  0.00  0.00    -0.001 C 
ATOM     76  C26 non d ame     -11.860  12.508  65.471  0.00  0.00    -0.035 C 
ATOM     77  C27 non d ame     -12.791  12.786  64.528  0.00  0.00     0.085 C 
ATOM     78  H38 non d ame     -12.279  11.649  65.996  0.00  0.00     0.036 H 
ATOM     79  H39 non d ame     -11.733  13.457  65.992  0.00  0.00     0.036 H 
ATOM     80  N5  non d ame     -12.253  12.277  63.212  0.00  0.00    -0.049 N 
ATOM     81  H40 non d ame     -13.670  12.202  64.803  0.00  0.00     0.075 H 
ATOM     82  H41 non d ame     -12.850  13.874  64.489  0.00  0.00     0.075 H 
ATOM     83  C28 non d ame     -10.682  11.994  63.454  0.00  0.00     0.193 C 
ATOM     84  H42 non d ame     -12.715  11.396  63.036  0.00  0.00     0.280 HD
ATOM     85  H43 non d ame     -12.345  13.035  62.552  0.00  0.00     0.280 HD
ATOM     86  H44 non d ame      -9.930  12.685  63.071  0.00  0.00     0.129 H 
ATOM     87  H37 non d ame      -9.675  12.839  64.671  0.00  0.00     0.046 H 
BRANCH  83  88
ATOM     88  O6  non d ame     -10.326  10.713  62.932  0.00  0.00    -0.369 OA
ATOM     89  H45 non d ame     -10.904  10.495  62.198  0.00  0.00     0.212 HD
ENDBRANCH  83  88
ENDBRANCH  72  75
ENDBRANCH  47  72
ENDBRANCH  45  47
ENDBRANCH   1  43
BRANCH   1  90
ATOM     90  C16 non d ame      -6.109  14.604  68.440  0.00  0.00    -0.035 C 
ATOM     91  H21 non d ame      -6.564  14.507  69.426  0.00  0.00     0.037 H 
ATOM     92  H22 non d ame      -5.330  13.908  68.129  0.00  0.00     0.037 H 
BRANCH  90  93
ATOM     93  C17 non d ame      -5.477  16.030  68.384  0.00  0.00    -0.059 C 
ATOM     94  H23 non d ame      -4.436  15.943  68.694  0.00  0.00     0.038 H 
BRANCH  93  95
ATOM     95  C18 non d ame      -5.496  16.629  66.941  0.00  0.00    -0.073 C 
ATOM     96  H24 non d ame      -4.733  16.140  66.335  0.00  0.00     0.028 H 
ATOM     97  H25 non d ame      -6.476  16.464  66.493  0.00  0.00     0.028 H 
ATOM     98  H26 non d ame      -5.294  17.698  66.988  0.00  0.00     0.028 H 
ENDBRANCH  93  95
BRANCH  93  99
ATOM     99  C19 non d ame      -6.168  16.973  69.374  0.00  0.00    -0.073 C 
ATOM    100  H27 non d ame      -7.247  16.921  69.231  0.00  0.00     0.028 H 
ATOM    101  H28 non d ame      -5.921  16.673  70.393  0.00  0.00     0.028 H 
ATOM    102  H29 non d ame      -5.827  17.993  69.202  0.00  0.00     0.028 H 
ENDBRANCH  93  99
ENDBRANCH  90  93
ENDBRANCH   1  90
TORSDOF 26
ENDMDL
MODEL 15
REMARK VINA RESULT:      -6.4      3.225     10.050
REMARK  26 active torsions:
REMARK  status: ('A' for Active; 'I' for Inactive)
REMARK    1  A    between atoms: C2_2  and  C3_3 
REMARK    2  A    between atoms: C4_6  and  C5_7 
REMARK       I    between atoms: C5_7  and  N2_9 
REMARK    3  A    between atoms: N2_9  and  C6_10 
REMARK    4  A    between atoms: C6_10  and  C7_11 
REMARK    5  A    between atoms: C6_10  and  C8_13 
REMARK       I    between atoms: C7_11  and  N3_14 
REMARK    6  A    between atoms: N3_14  and  C9_15 
REMARK    7  A    between atoms: C9_15  and  C10_16 
REMARK    8  A    between atoms: C9_15  and  C11_18 
REMARK       I    between atoms: C10_16  and  N4_21 
REMARK    9  A    between atoms: C11_18  and  C12_19 
REMARK   10  A    between atoms: C11_18  and  C13_20 
REMARK   11  A    between atoms: N4_21  and  C14_22 
REMARK   12  A    between atoms: C14_22  and  C15_23 
REMARK   13  A    between atoms: C14_22  and  C16_25 
REMARK       I    between atoms: C15_23  and  N6_40 
REMARK   14  A    between atoms: C16_25  and  C17_26 
REMARK   15  A    between atoms: C17_26  and  C18_27 
REMARK   16  A    between atoms: C17_26  and  C19_28 
REMARK   17  A    between atoms: C20_29  and  C21_30 
REMARK   18  A    between atoms: C20_29  and  C24_33 
REMARK   19  A    between atoms: C20_29  and  N6_40 
REMARK   20  A    between atoms: C21_30  and  C22_31 
REMARK   21  A    between atoms: C22_31  and  C23_32 
REMARK   22  A    between atoms: C23_32  and  O8_43 
REMARK   23  A    between atoms: C24_33  and  C25_34 
REMARK   24  A    between atoms: C28_38  and  O6_39 
REMARK   25  A    between atoms: C29_42  and  O8_43 
REMARK   26  A    between atoms: C29_42  and  C35_49 
ROOT
ATOM      1  C14 non d ame     -10.246   8.612  69.340  0.00  0.00     0.089 C 
ATOM      2  H20 non d ame     -11.318   8.506  69.178  0.00  0.00     0.087 H 
ENDROOT
BRANCH   1   3
ATOM      3  N4  non d ame      -9.656   7.285  69.254  0.00  0.00    -0.346 N 
ATOM      4  C10 non d ame     -10.520   6.057  69.398  0.00  0.00     0.241 C 
ATOM      5  O4  non d ame     -11.687   6.163  69.585  0.00  0.00    -0.271 OA
ATOM      6  H19 non d ame      -8.660   7.216  69.097  0.00  0.00     0.163 HD
BRANCH   4   7
ATOM      7  C9  non d ame      -9.894   4.691  69.301  0.00  0.00     0.092 C 
ATOM      8  H11 non d ame     -10.552   4.034  68.732  0.00  0.00     0.088 H 
BRANCH   7   9
ATOM      9  N3  non d ame      -8.631   4.782  68.562  0.00  0.00    -0.346 N 
ATOM     10  C7  non d ame      -8.483   4.101  67.299  0.00  0.00     0.240 C 
ATOM     11  O3  non d ame      -9.370   3.473  66.864  0.00  0.00    -0.271 OA
ATOM     12  H10 non d ame      -7.857   5.319  68.926  0.00  0.00     0.163 HD
BRANCH  10  13
ATOM     13  C6  non d ame      -7.136   4.200  66.520  0.00  0.00     0.086 C 
ATOM     14  H6  non d ame      -7.211   3.828  65.498  0.00  0.00     0.086 H 
BRANCH  13  15
ATOM     15  N2  non d ame      -6.748   5.598  66.425  0.00  0.00    -0.343 N 
ATOM     16  C5  non d ame      -6.203   6.111  65.166  0.00  0.00     0.273 C 
ATOM     17  O2  non d ame      -6.078   5.391  64.237  0.00  0.00    -0.266 OA
ATOM     18  H5  non d ame      -6.855   6.206  67.223  0.00  0.00     0.163 HD
BRANCH  16  19
ATOM     19  C4  non d ame      -5.791   7.587  65.050  0.00  0.00     0.154 A 
ATOM     20  C1  non d ame      -5.914   8.600  66.053  0.00  0.00    -0.017 A 
ATOM     21  C2  non d ame      -5.397   9.770  65.454  0.00  0.00     0.077 A 
ATOM     22  H1  non d ame      -6.317   8.502  67.062  0.00  0.00     0.091 H 
ATOM     23  O1  non d ame      -5.021   9.455  64.248  0.00  0.00    -0.218 OA
ATOM     24  N1  non d ame      -5.242   8.186  63.989  0.00  0.00    -0.123 NA
BRANCH  21  25
ATOM     25  C3  non d ame      -5.296  11.145  66.101  0.00  0.00    -0.029 C 
ATOM     26  H2  non d ame      -5.956  11.841  65.582  0.00  0.00     0.036 H 
ATOM     27  H3  non d ame      -5.591  11.076  67.147  0.00  0.00     0.036 H 
ATOM     28  H4  non d ame      -4.268  11.503  66.036  0.00  0.00     0.036 H 
ENDBRANCH  21  25
ENDBRANCH  16  19
ENDBRANCH  13  15
BRANCH  13  29
ATOM     29  C8  non d ame      -6.072   3.418  67.247  0.00  0.00    -0.049 C 
ATOM     30  H7  non d ame      -6.532   2.587  67.780  0.00  0.00     0.030 H 
ATOM     31  H8  non d ame      -5.349   3.032  66.527  0.00  0.00     0.030 H 
ATOM     32  H9  non d ame      -5.564   4.069  67.958  0.00  0.00     0.030 H 
ENDBRANCH  13  29
ENDBRANCH  10  13
ENDBRANCH   7   9
BRANCH   7  33
ATOM     33  C11 non d ame      -9.616   4.144  70.732  0.00  0.00    -0.033 C 
ATOM     34  H12 non d ame     -10.510   4.321  71.330  0.00  0.00     0.042 H 
BRANCH  33  35
ATOM     35  C12 non d ame      -9.361   2.605  70.713  0.00  0.00    -0.071 C 
ATOM     36  H13 non d ame     -10.163   2.098  71.251  0.00  0.00     0.028 H 
ATOM     37  H14 non d ame      -9.336   2.253  69.682  0.00  0.00     0.028 H 
ATOM     38  H15 non d ame      -8.407   2.389  71.194  0.00  0.00     0.028 H 
ENDBRANCH  33  35
BRANCH  33  39
ATOM     39  C13 non d ame      -8.428   4.907  71.401  0.00  0.00    -0.071 C 
ATOM     40  H16 non d ame      -7.505   4.350  71.244  0.00  0.00     0.028 H 
ATOM     41  H17 non d ame      -8.335   5.898  70.956  0.00  0.00     0.028 H 
ATOM     42  H18 non d ame      -8.616   5.005  72.470  0.00  0.00     0.028 H 
ENDBRANCH  33  39
ENDBRANCH   7  33
ENDBRANCH   4   7
ENDBRANCH   1   3
BRANCH   1  43
ATOM     43  C15 non d ame      -9.577   9.521  68.269  0.00  0.00     0.240 C 
ATOM     44  O5  non d ame      -8.444   9.334  67.959  0.00  0.00    -0.271 OA
ATOM     45  N6  non d ame     -10.349  10.621  67.624  0.00  0.00    -0.355 N 
ATOM     46  H46 non d ame     -11.313  10.787  67.877  0.00  0.00     0.162 HD
BRANCH  45  47
ATOM     47  C20 non d ame      -9.699  11.475  66.608  0.00  0.00     0.013 C 
ATOM     48  H30 non d ame      -8.878  10.908  66.169  0.00  0.00     0.072 H 
BRANCH  47  49
ATOM     49  C21 non d ame      -9.166  12.725  67.271  0.00  0.00    -0.038 C 
ATOM     50  H31 non d ame      -9.426  12.632  68.326  0.00  0.00     0.036 H 
ATOM     51  H32 non d ame      -8.119  12.794  66.971  0.00  0.00     0.036 H 
BRANCH  49  52
ATOM     52  C22 non d ame      -9.851  14.012  66.763  0.00  0.00     0.018 C 
ATOM     53  H33 non d ame      -9.051  14.742  66.636  0.00  0.00     0.048 H 
ATOM     54  H34 non d ame     -10.452  13.708  65.906  0.00  0.00     0.048 H 
BRANCH  52  55
ATOM     55  C23 non d ame     -10.842  14.638  67.784  0.00  0.00     0.259 C 
ATOM     56  O7  non d ame     -11.716  15.352  67.414  0.00  0.00    -0.265 OA
BRANCH  55  57
ATOM     57  O8  non d ame     -10.685  14.359  69.169  0.00  0.00    -0.317 OA
BRANCH  57  58
ATOM     58  C29 non d ame     -11.751  13.592  69.735  0.00  0.00     0.052 C 
ATOM     59  H47 non d ame     -12.495  13.492  68.945  0.00  0.00     0.082 H 
ATOM     60  H48 non d ame     -11.283  12.703  70.157  0.00  0.00     0.082 H 
BRANCH  58  61
ATOM     61  C35 non d ame     -12.373  14.417  70.893  0.00  0.00    -0.034 A 
ATOM     62  C30 non d ame     -13.751  14.424  71.081  0.00  0.00    -0.075 A 
ATOM     63  C31 non d ame     -14.310  15.165  72.121  0.00  0.00    -0.082 A 
ATOM     64  H49 non d ame     -14.393  13.850  70.414  0.00  0.00     0.084 H 
ATOM     65  C32 non d ame     -13.484  15.903  72.974  0.00  0.00    -0.083 A 
ATOM     66  H50 non d ame     -15.390  15.168  72.267  0.00  0.00     0.083 H 
ATOM     67  C33 non d ame     -12.109  15.895  72.781  0.00  0.00    -0.082 A 
ATOM     68  H51 non d ame     -13.912  16.485  73.790  0.00  0.00     0.083 H 
ATOM     69  C34 non d ame     -11.547  15.154  71.744  0.00  0.00    -0.075 A 
ATOM     70  H52 non d ame     -11.468  16.473  73.447  0.00  0.00     0.083 H 
ATOM     71  H53 non d ame     -10.465  15.152  71.599  0.00  0.00     0.084 H 
ENDBRANCH  58  61
ENDBRANCH  57  58
ENDBRANCH  55  57
ENDBRANCH  52  55
ENDBRANCH  49  52
ENDBRANCH  47  49
BRANCH  47  72
ATOM     72  C24 non d ame     -10.712  11.861  65.533  0.00  0.00    -0.039 C 
ATOM     73  H35 non d ame     -11.685  11.583  65.937  0.00  0.00     0.036 H 
ATOM     74  H36 non d ame     -10.499  12.903  65.293  0.00  0.00     0.036 H 
BRANCH  72  75
ATOM     75  C25 non d ame     -10.501  11.015  64.188  0.00  0.00    -0.001 C 
ATOM     76  C26 non d ame      -9.331   9.882  64.417  0.00  0.00    -0.035 C 
ATOM     77  C27 non d ame      -8.421   9.987  63.420  0.00  0.00     0.085 C 
ATOM     78  H38 non d ame      -8.756  10.115  65.312  0.00  0.00     0.036 H 
ATOM     79  H39 non d ame      -9.746   8.883  64.280  0.00  0.00     0.036 H 
ATOM     80  N5  non d ame      -8.685  11.295  62.716  0.00  0.00    -0.049 N 
ATOM     81  H40 non d ame      -7.451  10.039  63.914  0.00  0.00     0.075 H 
ATOM     82  H41 non d ame      -8.642   9.166  62.737  0.00  0.00     0.075 H 
ATOM     83  C28 non d ame     -10.146  11.778  63.208  0.00  0.00     0.193 C 
ATOM     84  H42 non d ame      -7.998  11.950  63.061  0.00  0.00     0.280 HD
ATOM     85  H43 non d ame      -8.732  11.086  61.729  0.00  0.00     0.280 HD
ATOM     86  H44 non d ame     -11.012  11.676  62.553  0.00  0.00     0.129 H 
ATOM     87  H37 non d ame     -11.444  10.675  63.762  0.00  0.00     0.046 H 
BRANCH  83  88
ATOM     88  O6  non d ame     -10.109  13.155  63.582  0.00  0.00    -0.369 OA
ATOM     89  H45 non d ame      -9.348  13.314  64.143  0.00  0.00     0.212 HD
ENDBRANCH  83  88
ENDBRANCH  72  75
ENDBRANCH  47  72
ENDBRANCH  45  47
ENDBRANCH   1  43
BRANCH   1  90
ATOM     90  C16 non d ame      -9.989   9.181  70.727  0.00  0.00    -0.035 C 
ATOM     91  H21 non d ame      -9.453   8.399  71.265  0.00  0.00     0.037 H 
ATOM     92  H22 non d ame      -9.516  10.148  70.558  0.00  0.00     0.037 H 
BRANCH  90  93
ATOM     93  C17 non d ame     -11.292   9.462  71.539  0.00  0.00    -0.059 C 
ATOM     94  H23 non d ame     -11.060  10.225  72.283  0.00  0.00     0.038 H 
BRANCH  93  95
ATOM     95  C18 non d ame     -12.444  10.010  70.638  0.00  0.00    -0.073 C 
ATOM     96  H24 non d ame     -13.001  10.773  71.184  0.00  0.00     0.028 H 
ATOM     97  H25 non d ame     -12.020  10.449  69.734  0.00  0.00     0.028 H 
ATOM     98  H26 non d ame     -13.113   9.194  70.367  0.00  0.00     0.028 H 
ENDBRANCH  93  95
BRANCH  93  99
ATOM     99  C19 non d ame     -11.743   8.211  72.299  0.00  0.00    -0.073 C 
ATOM    100  H27 non d ame     -10.919   7.498  72.344  0.00  0.00     0.028 H 
ATOM    101  H28 non d ame     -12.041   8.488  73.310  0.00  0.00     0.028 H 
ATOM    102  H29 non d ame     -12.587   7.757  71.782  0.00  0.00     0.028 H 
ENDBRANCH  93  99
ENDBRANCH  90  93
ENDBRANCH   1  90
TORSDOF 26
ENDMDL
MODEL 16
REMARK VINA RESULT:      -6.4      2.200      4.370
REMARK  26 active torsions:
REMARK  status: ('A' for Active; 'I' for Inactive)
REMARK    1  A    between atoms: C2_2  and  C3_3 
REMARK    2  A    between atoms: C4_6  and  C5_7 
REMARK       I    between atoms: C5_7  and  N2_9 
REMARK    3  A    between atoms: N2_9  and  C6_10 
REMARK    4  A    between atoms: C6_10  and  C7_11 
REMARK    5  A    between atoms: C6_10  and  C8_13 
REMARK       I    between atoms: C7_11  and  N3_14 
REMARK    6  A    between atoms: N3_14  and  C9_15 
REMARK    7  A    between atoms: C9_15  and  C10_16 
REMARK    8  A    between atoms: C9_15  and  C11_18 
REMARK       I    between atoms: C10_16  and  N4_21 
REMARK    9  A    between atoms: C11_18  and  C12_19 
REMARK   10  A    between atoms: C11_18  and  C13_20 
REMARK   11  A    between atoms: N4_21  and  C14_22 
REMARK   12  A    between atoms: C14_22  and  C15_23 
REMARK   13  A    between atoms: C14_22  and  C16_25 
REMARK       I    between atoms: C15_23  and  N6_40 
REMARK   14  A    between atoms: C16_25  and  C17_26 
REMARK   15  A    between atoms: C17_26  and  C18_27 
REMARK   16  A    between atoms: C17_26  and  C19_28 
REMARK   17  A    between atoms: C20_29  and  C21_30 
REMARK   18  A    between atoms: C20_29  and  C24_33 
REMARK   19  A    between atoms: C20_29  and  N6_40 
REMARK   20  A    between atoms: C21_30  and  C22_31 
REMARK   21  A    between atoms: C22_31  and  C23_32 
REMARK   22  A    between atoms: C23_32  and  O8_43 
REMARK   23  A    between atoms: C24_33  and  C25_34 
REMARK   24  A    between atoms: C28_38  and  O6_39 
REMARK   25  A    between atoms: C29_42  and  O8_43 
REMARK   26  A    between atoms: C29_42  and  C35_49 
ROOT
ATOM      1  C14 non d ame      -6.284  12.929  67.922  0.00  0.00     0.089 C 
ATOM      2  H20 non d ame      -5.249  12.925  67.581  0.00  0.00     0.087 H 
ENDROOT
BRANCH   1   3
ATOM      3  N4  non d ame      -6.759  14.304  67.866  0.00  0.00    -0.346 N 
ATOM      4  C10 non d ame      -5.782  15.441  67.702  0.00  0.00     0.241 C 
ATOM      5  O4  non d ame      -4.618  15.225  67.621  0.00  0.00    -0.271 OA
ATOM      6  H19 non d ame      -7.754  14.466  67.940  0.00  0.00     0.163 HD
BRANCH   4   7
ATOM      7  C9  non d ame      -6.291  16.857  67.641  0.00  0.00     0.092 C 
ATOM      8  H11 non d ame      -5.973  17.312  66.703  0.00  0.00     0.088 H 
BRANCH   7   9
ATOM      9  N3  non d ame      -7.757  16.850  67.643  0.00  0.00    -0.346 N 
ATOM     10  C7  non d ame      -8.483  17.372  66.511  0.00  0.00     0.240 C 
ATOM     11  O3  non d ame      -7.902  17.803  65.590  0.00  0.00    -0.271 OA
ATOM     12  H10 non d ame      -8.271  16.483  68.431  0.00  0.00     0.163 HD
BRANCH  10  13
ATOM     13  C6  non d ame     -10.043  17.365  66.521  0.00  0.00     0.086 C 
ATOM     14  H6  non d ame     -10.468  16.815  65.681  0.00  0.00     0.086 H 
BRANCH  13  15
ATOM     15  N2  non d ame     -10.503  16.700  67.729  0.00  0.00    -0.343 N 
ATOM     16  C5  non d ame     -11.152  15.390  67.628  0.00  0.00     0.273 C 
ATOM     17  O2  non d ame     -11.301  14.883  66.571  0.00  0.00    -0.266 OA
ATOM     18  H5  non d ame     -10.374  17.141  68.627  0.00  0.00     0.163 HD
BRANCH  16  19
ATOM     19  C4  non d ame     -11.642  14.674  68.896  0.00  0.00     0.154 A 
ATOM     20  C1  non d ame     -12.256  15.271  70.043  0.00  0.00    -0.017 A 
ATOM     21  C2  non d ame     -12.514  14.193  70.920  0.00  0.00     0.077 A 
ATOM     22  H1  non d ame     -12.480  16.324  70.214  0.00  0.00     0.091 H 
ATOM     23  O1  non d ame     -12.095  13.109  70.334  0.00  0.00    -0.218 OA
ATOM     24  N1  non d ame     -11.581  13.365  69.153  0.00  0.00    -0.123 NA
BRANCH  21  25
ATOM     25  C3  non d ame     -13.164  14.284  72.293  0.00  0.00    -0.029 C 
ATOM     26  H2  non d ame     -13.987  15.000  72.260  0.00  0.00     0.036 H 
ATOM     27  H3  non d ame     -13.546  13.305  72.580  0.00  0.00     0.036 H 
ATOM     28  H4  non d ame     -12.426  14.614  73.025  0.00  0.00     0.036 H 
ENDBRANCH  21  25
ENDBRANCH  16  19
ENDBRANCH  13  15
BRANCH  13  29
ATOM     29  C8  non d ame     -10.555  18.782  66.486  0.00  0.00    -0.049 C 
ATOM     30  H7  non d ame     -10.502  19.213  67.485  0.00  0.00     0.030 H 
ATOM     31  H8  non d ame      -9.943  19.372  65.802  0.00  0.00     0.030 H 
ATOM     32  H9  non d ame     -11.589  18.786  66.143  0.00  0.00     0.030 H 
ENDBRANCH  13  29
ENDBRANCH  10  13
ENDBRANCH   7   9
BRANCH   7  33
ATOM     33  C11 non d ame      -5.777  17.648  68.879  0.00  0.00    -0.033 C 
ATOM     34  H12 non d ame      -6.565  18.340  69.177  0.00  0.00     0.042 H 
BRANCH  33  35
ATOM     35  C12 non d ame      -5.505  16.698  70.087  0.00  0.00    -0.071 C 
ATOM     36  H13 non d ame      -5.059  15.771  69.727  0.00  0.00     0.028 H 
ATOM     37  H14 non d ame      -4.821  17.183  70.784  0.00  0.00     0.028 H 
ATOM     38  H15 non d ame      -6.444  16.479  70.594  0.00  0.00     0.028 H 
ENDBRANCH  33  35
BRANCH  33  39
ATOM     39  C13 non d ame      -4.508  18.485  68.520  0.00  0.00    -0.071 C 
ATOM     40  H16 non d ame      -4.130  18.172  67.547  0.00  0.00     0.028 H 
ATOM     41  H17 non d ame      -4.767  19.543  68.487  0.00  0.00     0.028 H 
ATOM     42  H18 non d ame      -3.740  18.322  69.276  0.00  0.00     0.028 H 
ENDBRANCH  33  39
ENDBRANCH   7  33
ENDBRANCH   4   7
ENDBRANCH   1   3
BRANCH   1  43
ATOM     43  C15 non d ame      -7.202  12.051  67.024  0.00  0.00     0.240 C 
ATOM     44  O5  non d ame      -6.846  10.964  66.698  0.00  0.00    -0.271 OA
ATOM     45  N6  non d ame      -8.529  12.561  66.576  0.00  0.00    -0.355 N 
ATOM     46  H46 non d ame      -8.845  13.481  66.849  0.00  0.00     0.162 HD
BRANCH  45  47
ATOM     47  C20 non d ame      -9.391  11.714  65.723  0.00  0.00     0.013 C 
ATOM     48  H30 non d ame      -8.765  10.941  65.278  0.00  0.00     0.072 H 
BRANCH  47  49
ATOM     49  C21 non d ame     -10.012  12.564  64.638  0.00  0.00    -0.038 C 
ATOM     50  H31 non d ame     -10.910  12.996  65.081  0.00  0.00     0.036 H 
ATOM     51  H32 non d ame      -9.213  13.214  64.280  0.00  0.00     0.036 H 
BRANCH  49  52
ATOM     52  C22 non d ame     -10.479  11.736  63.422  0.00  0.00     0.018 C 
ATOM     53  H33 non d ame     -11.201  11.017  63.812  0.00  0.00     0.048 H 
ATOM     54  H34 non d ame     -10.786  12.463  62.670  0.00  0.00     0.048 H 
BRANCH  52  55
ATOM     55  C23 non d ame      -9.349  10.893  62.768  0.00  0.00     0.259 C 
ATOM     56  O7  non d ame      -8.510  11.418  62.111  0.00  0.00    -0.265 OA
BRANCH  55  57
ATOM     57  O8  non d ame      -9.335   9.483  62.951  0.00  0.00    -0.317 OA
BRANCH  57  58
ATOM     58  C29 non d ame      -8.231   8.824  62.323  0.00  0.00     0.052 C 
ATOM     59  H47 non d ame      -8.667   8.178  61.562  0.00  0.00     0.082 H 
ATOM     60  H48 non d ame      -7.540   9.616  62.035  0.00  0.00     0.082 H 
BRANCH  58  61
ATOM     61  C35 non d ame      -7.539   7.932  63.388  0.00  0.00    -0.034 A 
ATOM     62  C30 non d ame      -7.879   6.588  63.499  0.00  0.00    -0.075 A 
ATOM     63  C31 non d ame      -7.257   5.787  64.455  0.00  0.00    -0.082 A 
ATOM     64  H49 non d ame      -8.633   6.163  62.837  0.00  0.00     0.084 H 
ATOM     65  C32 non d ame      -6.292   6.335  65.303  0.00  0.00    -0.083 A 
ATOM     66  H50 non d ame      -7.526   4.734  64.538  0.00  0.00     0.083 H 
ATOM     67  C33 non d ame      -5.957   7.678  65.192  0.00  0.00    -0.082 A 
ATOM     68  H51 non d ame      -5.801   5.716  66.054  0.00  0.00     0.083 H 
ATOM     69  C34 non d ame      -6.575   8.482  64.236  0.00  0.00    -0.075 A 
ATOM     70  H52 non d ame      -5.206   8.103  65.857  0.00  0.00     0.083 H 
ATOM     71  H53 non d ame      -6.306   9.536  64.153  0.00  0.00     0.084 H 
ENDBRANCH  58  61
ENDBRANCH  57  58
ENDBRANCH  55  57
ENDBRANCH  52  55
ENDBRANCH  49  52
ENDBRANCH  47  49
BRANCH  47  72
ATOM     72  C24 non d ame     -10.493  11.081  66.570  0.00  0.00    -0.039 C 
ATOM     73  H35 non d ame     -10.790  11.851  67.282  0.00  0.00     0.036 H 
ATOM     74  H36 non d ame     -11.219  10.689  65.857  0.00  0.00     0.036 H 
BRANCH  72  75
ATOM     75  C25 non d ame      -9.947   9.837  67.420  0.00  0.00    -0.001 C 
ATOM     76  C26 non d ame      -9.620   8.574  66.418  0.00  0.00    -0.035 C 
ATOM     77  C27 non d ame     -10.238   7.468  66.895  0.00  0.00     0.085 C 
ATOM     78  H38 non d ame     -10.094   8.734  65.450  0.00  0.00     0.036 H 
ATOM     79  H39 non d ame      -8.561   8.319  66.472  0.00  0.00     0.036 H 
ATOM     80  N5  non d ame     -11.220   7.928  67.945  0.00  0.00    -0.049 N 
ATOM     81  H40 non d ame     -10.788   7.054  66.050  0.00  0.00     0.075 H 
ATOM     82  H41 non d ame      -9.454   6.881  67.375  0.00  0.00     0.075 H 
ATOM     83  C28 non d ame     -10.816   9.452  68.294  0.00  0.00     0.193 C 
ATOM     84  H42 non d ame     -12.129   7.929  67.505  0.00  0.00     0.280 HD
ATOM     85  H43 non d ame     -11.056   7.356  68.761  0.00  0.00     0.280 HD
ATOM     86  H44 non d ame     -10.285   9.685  69.218  0.00  0.00     0.129 H 
ATOM     87  H37 non d ame      -9.166  10.128  68.122  0.00  0.00     0.046 H 
BRANCH  83  88
ATOM     88  O6  non d ame     -11.979  10.280  68.301  0.00  0.00    -0.369 OA
ATOM     89  H45 non d ame     -12.583   9.989  67.615  0.00  0.00     0.212 HD
ENDBRANCH  83  88
ENDBRANCH  72  75
ENDBRANCH  47  72
ENDBRANCH  45  47
ENDBRANCH   1  43
BRANCH   1  90
ATOM     90  C16 non d ame      -6.355  12.437  69.359  0.00  0.00    -0.035 C 
ATOM     91  H21 non d ame      -7.078  13.088  69.851  0.00  0.00     0.037 H 
ATOM     92  H22 non d ame      -6.545  11.367  69.289  0.00  0.00     0.037 H 
BRANCH  90  93
ATOM     93  C17 non d ame      -5.014  12.598  70.143  0.00  0.00    -0.059 C 
ATOM     94  H23 non d ame      -4.400  13.319  69.602  0.00  0.00     0.038 H 
BRANCH  93  95
ATOM     95  C18 non d ame      -5.236  13.149  71.587  0.00  0.00    -0.073 C 
ATOM     96  H24 non d ame      -6.263  13.500  71.688  0.00  0.00     0.028 H 
ATOM     97  H25 non d ame      -5.052  12.355  72.311  0.00  0.00     0.028 H 
ATOM     98  H26 non d ame      -4.549  13.974  71.772  0.00  0.00     0.028 H 
ENDBRANCH  93  95
BRANCH  93  99
ATOM     99  C19 non d ame      -4.239  11.278  70.175  0.00  0.00    -0.073 C 
ATOM    100  H27 non d ame      -3.185  11.480  70.368  0.00  0.00     0.028 H 
ATOM    101  H28 non d ame      -4.638  10.642  70.966  0.00  0.00     0.028 H 
ATOM    102  H29 non d ame      -4.342  10.773  69.216  0.00  0.00     0.028 H 
ENDBRANCH  93  99
ENDBRANCH  90  93
ENDBRANCH   1  90
TORSDOF 26
ENDMDL
MODEL 17
REMARK VINA RESULT:      -6.3      2.723     10.252
REMARK  26 active torsions:
REMARK  status: ('A' for Active; 'I' for Inactive)
REMARK    1  A    between atoms: C2_2  and  C3_3 
REMARK    2  A    between atoms: C4_6  and  C5_7 
REMARK       I    between atoms: C5_7  and  N2_9 
REMARK    3  A    between atoms: N2_9  and  C6_10 
REMARK    4  A    between atoms: C6_10  and  C7_11 
REMARK    5  A    between atoms: C6_10  and  C8_13 
REMARK       I    between atoms: C7_11  and  N3_14 
REMARK    6  A    between atoms: N3_14  and  C9_15 
REMARK    7  A    between atoms: C9_15  and  C10_16 
REMARK    8  A    between atoms: C9_15  and  C11_18 
REMARK       I    between atoms: C10_16  and  N4_21 
REMARK    9  A    between atoms: C11_18  and  C12_19 
REMARK   10  A    between atoms: C11_18  and  C13_20 
REMARK   11  A    between atoms: N4_21  and  C14_22 
REMARK   12  A    between atoms: C14_22  and  C15_23 
REMARK   13  A    between atoms: C14_22  and  C16_25 
REMARK       I    between atoms: C15_23  and  N6_40 
REMARK   14  A    between atoms: C16_25  and  C17_26 
REMARK   15  A    between atoms: C17_26  and  C18_27 
REMARK   16  A    between atoms: C17_26  and  C19_28 
REMARK   17  A    between atoms: C20_29  and  C21_30 
REMARK   18  A    between atoms: C20_29  and  C24_33 
REMARK   19  A    between atoms: C20_29  and  N6_40 
REMARK   20  A    between atoms: C21_30  and  C22_31 
REMARK   21  A    between atoms: C22_31  and  C23_32 
REMARK   22  A    between atoms: C23_32  and  O8_43 
REMARK   23  A    between atoms: C24_33  and  C25_34 
REMARK   24  A    between atoms: C28_38  and  O6_39 
REMARK   25  A    between atoms: C29_42  and  O8_43 
REMARK   26  A    between atoms: C29_42  and  C35_49 
ROOT
ATOM      1  C14 non d ame     -10.299   8.890  68.748  0.00  0.00     0.089 C 
ATOM      2  H20 non d ame     -11.325   8.845  68.382  0.00  0.00     0.087 H 
ENDROOT
BRANCH   1   3
ATOM      3  N4  non d ame      -9.513   7.946  67.968  0.00  0.00    -0.346 N 
ATOM      4  C10 non d ame     -10.197   6.931  67.087  0.00  0.00     0.241 C 
ATOM      5  O4  non d ame     -11.381   6.890  67.025  0.00  0.00    -0.271 OA
ATOM      6  H19 non d ame      -8.506   7.996  68.036  0.00  0.00     0.163 HD
BRANCH   4   7
ATOM      7  C9  non d ame      -9.368   5.965  66.282  0.00  0.00     0.092 C 
ATOM      8  H11 non d ame      -9.955   5.606  65.437  0.00  0.00     0.088 H 
BRANCH   7   9
ATOM      9  N3  non d ame      -8.201   6.662  65.732  0.00  0.00    -0.346 N 
ATOM     10  C7  non d ame      -7.807   6.441  64.363  0.00  0.00     0.240 C 
ATOM     11  O3  non d ame      -8.417   5.704  63.689  0.00  0.00    -0.271 OA
ATOM     12  H10 non d ame      -7.664   7.300  66.303  0.00  0.00     0.163 HD
BRANCH  10  13
ATOM     13  C6  non d ame      -6.563   7.184  63.786  0.00  0.00     0.086 C 
ATOM     14  H6  non d ame      -6.780   7.716  62.859  0.00  0.00     0.086 H 
BRANCH  13  15
ATOM     15  N2  non d ame      -6.123   8.183  64.745  0.00  0.00    -0.343 N 
ATOM     16  C5  non d ame      -6.100   9.595  64.356  0.00  0.00     0.273 C 
ATOM     17  O2  non d ame      -6.435   9.916  63.269  0.00  0.00    -0.266 OA
ATOM     18  H5  non d ame      -5.837   7.901  65.671  0.00  0.00     0.163 HD
BRANCH  16  19
ATOM     19  C4  non d ame      -5.640  10.663  65.361  0.00  0.00     0.154 A 
ATOM     20  C1  non d ame      -6.353  11.133  66.510  0.00  0.00    -0.017 A 
ATOM     21  C2  non d ame      -5.506  12.103  67.091  0.00  0.00     0.077 A 
ATOM     22  H1  non d ame      -7.334  10.819  66.867  0.00  0.00     0.091 H 
ATOM     23  O1  non d ame      -4.435  12.173  66.356  0.00  0.00    -0.218 OA
ATOM     24  N1  non d ame      -4.491  11.343  65.339  0.00  0.00    -0.123 NA
BRANCH  21  25
ATOM     25  C3  non d ame      -5.794  12.914  68.347  0.00  0.00    -0.029 C 
ATOM     26  H2  non d ame      -6.775  13.383  68.262  0.00  0.00     0.036 H 
ATOM     27  H3  non d ame      -5.781  12.255  69.215  0.00  0.00     0.036 H 
ATOM     28  H4  non d ame      -5.032  13.685  68.465  0.00  0.00     0.036 H 
ENDBRANCH  21  25
ENDBRANCH  16  19
ENDBRANCH  13  15
BRANCH  13  29
ATOM     29  C8  non d ame      -5.456   6.193  63.530  0.00  0.00    -0.049 C 
ATOM     30  H7  non d ame      -4.877   6.050  64.443  0.00  0.00     0.030 H 
ATOM     31  H8  non d ame      -5.886   5.239  63.220  0.00  0.00     0.030 H 
ATOM     32  H9  non d ame      -4.804   6.570  62.743  0.00  0.00     0.030 H 
ENDBRANCH  13  29
ENDBRANCH  10  13
ENDBRANCH   7   9
BRANCH   7  33
ATOM     33  C11 non d ame      -8.889   4.801  67.199  0.00  0.00    -0.033 C 
ATOM     34  H12 non d ame      -9.356   4.939  68.174  0.00  0.00     0.042 H 
BRANCH  33  35
ATOM     35  C12 non d ame      -9.353   3.417  66.648  0.00  0.00    -0.071 C 
ATOM     36  H13 non d ame      -8.937   3.264  65.652  0.00  0.00     0.028 H 
ATOM     37  H14 non d ame      -9.004   2.626  67.312  0.00  0.00     0.028 H 
ATOM     38  H15 non d ame     -10.441   3.393  66.596  0.00  0.00     0.028 H 
ENDBRANCH  33  35
BRANCH  33  39
ATOM     39  C13 non d ame      -7.340   4.844  67.393  0.00  0.00    -0.071 C 
ATOM     40  H16 non d ame      -6.964   3.831  67.538  0.00  0.00     0.028 H 
ATOM     41  H17 non d ame      -6.874   5.283  66.511  0.00  0.00     0.028 H 
ATOM     42  H18 non d ame      -7.101   5.448  68.269  0.00  0.00     0.028 H 
ENDBRANCH  33  39
ENDBRANCH   7  33
ENDBRANCH   4   7
ENDBRANCH   1   3
BRANCH   1  43
ATOM     43  C15 non d ame      -9.678  10.307  68.584  0.00  0.00     0.240 C 
ATOM     44  O5  non d ame      -8.613  10.544  69.058  0.00  0.00    -0.271 OA
ATOM     45  N6  non d ame     -10.406  11.366  67.829  0.00  0.00    -0.355 N 
ATOM     46  H46 non d ame     -11.308  11.176  67.419  0.00  0.00     0.162 HD
BRANCH  45  47
ATOM     47  C20 non d ame      -9.801  12.708  67.681  0.00  0.00     0.013 C 
ATOM     48  H30 non d ame      -8.764  12.646  68.013  0.00  0.00     0.072 H 
BRANCH  47  49
ATOM     49  C21 non d ame     -10.559  13.696  68.539  0.00  0.00    -0.038 C 
ATOM     50  H31 non d ame     -11.508  13.862  68.028  0.00  0.00     0.036 H 
ATOM     51  H32 non d ame     -10.547  13.279  69.547  0.00  0.00     0.036 H 
BRANCH  49  52
ATOM     52  C22 non d ame      -9.863  15.071  68.627  0.00  0.00     0.018 C 
ATOM     53  H33 non d ame      -9.527  15.166  69.660  0.00  0.00     0.048 H 
ATOM     54  H34 non d ame      -9.136  15.087  67.814  0.00  0.00     0.048 H 
BRANCH  52  55
ATOM     55  C23 non d ame     -10.816  16.272  68.375  0.00  0.00     0.259 C 
ATOM     56  O7  non d ame     -11.901  16.291  68.857  0.00  0.00    -0.265 OA
BRANCH  55  57
ATOM     57  O8  non d ame     -10.382  17.344  67.547  0.00  0.00    -0.317 OA
BRANCH  57  58
ATOM     58  C29 non d ame     -10.102  18.553  68.258  0.00  0.00     0.052 C 
ATOM     59  H47 non d ame     -10.913  19.237  68.011  0.00  0.00     0.082 H 
ATOM     60  H48 non d ame      -9.938  18.255  69.294  0.00  0.00     0.082 H 
BRANCH  58  61
ATOM     61  C35 non d ame      -8.778  19.140  67.701  0.00  0.00    -0.034 A 
ATOM     62  C30 non d ame      -7.782  19.563  68.575  0.00  0.00    -0.075 A 
ATOM     63  C31 non d ame      -6.592  20.090  68.075  0.00  0.00    -0.082 A 
ATOM     64  H49 non d ame      -7.933  19.482  69.651  0.00  0.00     0.084 H 
ATOM     65  C32 non d ame      -6.401  20.196  66.695  0.00  0.00    -0.083 A 
ATOM     66  H50 non d ame      -5.813  20.420  68.762  0.00  0.00     0.083 H 
ATOM     67  C33 non d ame      -7.399  19.775  65.826  0.00  0.00    -0.082 A 
ATOM     68  H51 non d ame      -5.474  20.607  66.295  0.00  0.00     0.083 H 
ATOM     69  C34 non d ame      -8.589  19.245  66.322  0.00  0.00    -0.075 A 
ATOM     70  H52 non d ame      -7.249  19.861  64.749  0.00  0.00     0.083 H 
ATOM     71  H53 non d ame      -9.368  18.916  65.633  0.00  0.00     0.084 H 
ENDBRANCH  58  61
ENDBRANCH  57  58
ENDBRANCH  55  57
ENDBRANCH  52  55
ENDBRANCH  49  52
ENDBRANCH  47  49
BRANCH  47  72
ATOM     72  C24 non d ame      -9.866  13.145  66.220  0.00  0.00    -0.039 C 
ATOM     73  H35 non d ame      -9.428  14.142  66.195  0.00  0.00     0.036 H 
ATOM     74  H36 non d ame      -9.407  12.334  65.653  0.00  0.00     0.036 H 
BRANCH  72  75
ATOM     75  C25 non d ame     -11.379  13.280  65.709  0.00  0.00    -0.001 C 
ATOM     76  C26 non d ame     -11.731  12.058  64.668  0.00  0.00    -0.035 C 
ATOM     77  C27 non d ame     -12.256  12.585  63.536  0.00  0.00     0.085 C 
ATOM     78  H38 non d ame     -10.811  11.584  64.324  0.00  0.00     0.036 H 
ATOM     79  H39 non d ame     -12.542  11.448  65.066  0.00  0.00     0.036 H 
ATOM     80  N5  non d ame     -11.994  14.071  63.578  0.00  0.00    -0.049 N 
ATOM     81  H40 non d ame     -11.686  12.146  62.717  0.00  0.00     0.075 H 
ATOM     82  H41 non d ame     -13.330  12.412  63.607  0.00  0.00     0.075 H 
ATOM     83  C28 non d ame     -11.567  14.404  65.100  0.00  0.00     0.193 C 
ATOM     84  H42 non d ame     -11.199  14.239  62.978  0.00  0.00     0.280 HD
ATOM     85  H43 non d ame     -12.876  14.523  63.386  0.00  0.00     0.280 HD
ATOM     86  H44 non d ame     -12.272  14.883  65.780  0.00  0.00     0.129 H 
ATOM     87  H37 non d ame     -12.077  13.451  66.528  0.00  0.00     0.046 H 
BRANCH  83  88
ATOM     88  O6  non d ame     -10.401  15.228  65.115  0.00  0.00    -0.369 OA
ATOM     89  H45 non d ame     -10.626  16.106  64.801  0.00  0.00     0.212 HD
ENDBRANCH  83  88
ENDBRANCH  72  75
ENDBRANCH  47  72
ENDBRANCH  45  47
ENDBRANCH   1  43
BRANCH   1  90
ATOM     90  C16 non d ame     -10.257   8.480  70.212  0.00  0.00    -0.035 C 
ATOM     91  H21 non d ame      -9.422   7.784  70.293  0.00  0.00     0.037 H 
ATOM     92  H22 non d ame     -10.244   9.414  70.773  0.00  0.00     0.037 H 
BRANCH  90  93
ATOM     93  C17 non d ame     -11.527   7.701  70.681  0.00  0.00    -0.059 C 
ATOM     94  H23 non d ame     -12.328   7.920  69.976  0.00  0.00     0.038 H 
BRANCH  93  95
ATOM     95  C18 non d ame     -11.304   6.155  70.683  0.00  0.00    -0.073 C 
ATOM     96  H24 non d ame     -10.294   5.935  71.031  0.00  0.00     0.028 H 
ATOM     97  H25 non d ame     -12.027   5.685  71.349  0.00  0.00     0.028 H 
ATOM     98  H26 non d ame     -11.433   5.767  69.673  0.00  0.00     0.028 H 
ENDBRANCH  93  95
BRANCH  93  99
ATOM     99  C19 non d ame     -11.989   8.187  72.058  0.00  0.00    -0.073 C 
ATOM    100  H27 non d ame     -13.072   8.307  72.055  0.00  0.00     0.028 H 
ATOM    101  H28 non d ame     -11.705   7.456  72.815  0.00  0.00     0.028 H 
ATOM    102  H29 non d ame     -11.518   9.144  72.281  0.00  0.00     0.028 H 
ENDBRANCH  93  99
ENDBRANCH  90  93
ENDBRANCH   1  90
TORSDOF 26
ENDMDL
MODEL 18
REMARK VINA RESULT:      -6.3      2.579      6.714
REMARK  26 active torsions:
REMARK  status: ('A' for Active; 'I' for Inactive)
REMARK    1  A    between atoms: C2_2  and  C3_3 
REMARK    2  A    between atoms: C4_6  and  C5_7 
REMARK       I    between atoms: C5_7  and  N2_9 
REMARK    3  A    between atoms: N2_9  and  C6_10 
REMARK    4  A    between atoms: C6_10  and  C7_11 
REMARK    5  A    between atoms: C6_10  and  C8_13 
REMARK       I    between atoms: C7_11  and  N3_14 
REMARK    6  A    between atoms: N3_14  and  C9_15 
REMARK    7  A    between atoms: C9_15  and  C10_16 
REMARK    8  A    between atoms: C9_15  and  C11_18 
REMARK       I    between atoms: C10_16  and  N4_21 
REMARK    9  A    between atoms: C11_18  and  C12_19 
REMARK   10  A    between atoms: C11_18  and  C13_20 
REMARK   11  A    between atoms: N4_21  and  C14_22 
REMARK   12  A    between atoms: C14_22  and  C15_23 
REMARK   13  A    between atoms: C14_22  and  C16_25 
REMARK       I    between atoms: C15_23  and  N6_40 
REMARK   14  A    between atoms: C16_25  and  C17_26 
REMARK   15  A    between atoms: C17_26  and  C18_27 
REMARK   16  A    between atoms: C17_26  and  C19_28 
REMARK   17  A    between atoms: C20_29  and  C21_30 
REMARK   18  A    between atoms: C20_29  and  C24_33 
REMARK   19  A    between atoms: C20_29  and  N6_40 
REMARK   20  A    between atoms: C21_30  and  C22_31 
REMARK   21  A    between atoms: C22_31  and  C23_32 
REMARK   22  A    between atoms: C23_32  and  O8_43 
REMARK   23  A    between atoms: C24_33  and  C25_34 
REMARK   24  A    between atoms: C28_38  and  O6_39 
REMARK   25  A    between atoms: C29_42  and  O8_43 
REMARK   26  A    between atoms: C29_42  and  C35_49 
ROOT
ATOM      1  C14 non d ame      -6.666  10.497  67.304  0.00  0.00     0.089 C 
ATOM      2  H20 non d ame      -5.867  10.657  68.029  0.00  0.00     0.087 H 
ENDROOT
BRANCH   1   3
ATOM      3  N4  non d ame      -7.098   9.113  67.425  0.00  0.00    -0.346 N 
ATOM      4  C10 non d ame      -6.264   8.119  68.194  0.00  0.00     0.241 C 
ATOM      5  O4  non d ame      -5.247   8.457  68.706  0.00  0.00    -0.271 OA
ATOM      6  H19 non d ame      -7.964   8.845  66.980  0.00  0.00     0.163 HD
BRANCH   4   7
ATOM      7  C9  non d ame      -6.728   6.692  68.313  0.00  0.00     0.092 C 
ATOM      8  H11 non d ame      -6.534   6.334  69.325  0.00  0.00     0.088 H 
BRANCH   7   9
ATOM      9  N3  non d ame      -8.178   6.630  68.105  0.00  0.00    -0.346 N 
ATOM     10  C7  non d ame      -9.035   6.108  69.141  0.00  0.00     0.240 C 
ATOM     11  O3  non d ame      -8.574   5.732  70.149  0.00  0.00    -0.271 OA
ATOM     12  H10 non d ame      -8.590   6.949  67.240  0.00  0.00     0.163 HD
BRANCH  10  13
ATOM     13  C6  non d ame     -10.576   6.042  68.911  0.00  0.00     0.086 C 
ATOM     14  H6  non d ame     -11.058   5.263  69.501  0.00  0.00     0.086 H 
BRANCH  13  15
ATOM     15  N2  non d ame     -11.168   7.303  69.325  0.00  0.00    -0.343 N 
ATOM     16  C5  non d ame     -11.610   7.472  70.712  0.00  0.00     0.273 C 
ATOM     17  O2  non d ame     -11.486   6.587  71.485  0.00  0.00    -0.266 OA
ATOM     18  H5  non d ame     -11.273   8.054  68.658  0.00  0.00     0.163 HD
BRANCH  16  19
ATOM     19  C4  non d ame     -12.236   8.800  71.164  0.00  0.00     0.154 A 
ATOM     20  C1  non d ame     -11.900  10.114  70.706  0.00  0.00    -0.017 A 
ATOM     21  C2  non d ame     -12.755  10.979  71.425  0.00  0.00     0.077 A 
ATOM     22  H1  non d ame     -11.152  10.397  69.965  0.00  0.00     0.091 H 
ATOM     23  O1  non d ame     -13.492  10.239  72.201  0.00  0.00    -0.218 OA
ATOM     24  N1  non d ame     -13.206   8.964  72.067  0.00  0.00    -0.123 NA
BRANCH  21  25
ATOM     25  C3  non d ame     -12.806  12.497  71.310  0.00  0.00    -0.029 C 
ATOM     26  H2  non d ame     -13.671  12.788  70.714  0.00  0.00     0.036 H 
ATOM     27  H3  non d ame     -12.887  12.933  72.306  0.00  0.00     0.036 H 
ATOM     28  H4  non d ame     -11.896  12.856  70.830  0.00  0.00     0.036 H 
ENDBRANCH  21  25
ENDBRANCH  16  19
ENDBRANCH  13  15
BRANCH  13  29
ATOM     29  C8  non d ame     -10.860   5.794  67.452  0.00  0.00    -0.049 C 
ATOM     30  H7  non d ame     -10.625   6.690  66.877  0.00  0.00     0.030 H 
ATOM     31  H8  non d ame     -10.245   4.964  67.098  0.00  0.00     0.030 H 
ATOM     32  H9  non d ame     -11.913   5.546  67.323  0.00  0.00     0.030 H 
ENDBRANCH  13  29
ENDBRANCH  10  13
ENDBRANCH   7   9
BRANCH   7  33
ATOM     33  C11 non d ame      -6.014   5.822  67.238  0.00  0.00    -0.033 C 
ATOM     34  H12 non d ame      -5.433   5.063  67.762  0.00  0.00     0.042 H 
BRANCH  33  35
ATOM     35  C12 non d ame      -7.045   5.080  66.331  0.00  0.00    -0.071 C 
ATOM     36  H13 non d ame      -6.665   5.038  65.310  0.00  0.00     0.028 H 
ATOM     37  H14 non d ame      -7.194   4.067  66.704  0.00  0.00     0.028 H 
ATOM     38  H15 non d ame      -7.993   5.616  66.346  0.00  0.00     0.028 H 
ENDBRANCH  33  35
BRANCH  33  39
ATOM     39  C13 non d ame      -5.028   6.684  66.387  0.00  0.00    -0.071 C 
ATOM     40  H16 non d ame      -5.291   7.737  66.481  0.00  0.00     0.028 H 
ATOM     41  H17 non d ame      -4.009   6.530  66.743  0.00  0.00     0.028 H 
ATOM     42  H18 non d ame      -5.096   6.385  65.341  0.00  0.00     0.028 H 
ENDBRANCH  33  39
ENDBRANCH   7  33
ENDBRANCH   4   7
ENDBRANCH   1   3
BRANCH   1  43
ATOM     43  C15 non d ame      -7.889  11.422  67.565  0.00  0.00     0.240 C 
ATOM     44  O5  non d ame      -8.460  11.369  68.608  0.00  0.00    -0.271 OA
ATOM     45  N6  non d ame      -8.346  12.381  66.519  0.00  0.00    -0.355 N 
ATOM     46  H46 non d ame      -7.868  12.438  65.632  0.00  0.00     0.162 HD
BRANCH  45  47
ATOM     47  C20 non d ame      -9.510  13.254  66.783  0.00  0.00     0.013 C 
ATOM     48  H30 non d ame      -9.671  13.281  67.861  0.00  0.00     0.072 H 
BRANCH  47  49
ATOM     49  C21 non d ame     -10.729  12.684  66.093  0.00  0.00    -0.038 C 
ATOM     50  H31 non d ame     -10.653  11.602  66.204  0.00  0.00     0.036 H 
ATOM     51  H32 non d ame     -11.582  13.218  66.515  0.00  0.00     0.036 H 
BRANCH  49  52
ATOM     52  C22 non d ame     -10.746  12.968  64.575  0.00  0.00     0.018 C 
ATOM     53  H33 non d ame     -11.391  13.837  64.444  0.00  0.00     0.048 H 
ATOM     54  H34 non d ame      -9.700  13.014  64.272  0.00  0.00     0.048 H 
BRANCH  52  55
ATOM     55  C23 non d ame     -11.387  11.829  63.733  0.00  0.00     0.259 C 
ATOM     56  O7  non d ame     -12.559  11.810  63.540  0.00  0.00    -0.265 OA
BRANCH  55  57
ATOM     57  O8  non d ame     -10.559  10.800  63.207  0.00  0.00    -0.317 OA
BRANCH  57  58
ATOM     58  C29 non d ame      -9.253  11.241  62.823  0.00  0.00     0.052 C 
ATOM     59  H47 non d ame      -9.324  11.486  61.764  0.00  0.00     0.082 H 
ATOM     60  H48 non d ame      -8.979  12.012  63.543  0.00  0.00     0.082 H 
BRANCH  58  61
ATOM     61  C35 non d ame      -8.277  10.047  62.987  0.00  0.00    -0.034 A 
ATOM     62  C30 non d ame      -8.613   8.981  63.815  0.00  0.00    -0.075 A 
ATOM     63  C31 non d ame      -7.736   7.908  63.963  0.00  0.00    -0.082 A 
ATOM     64  H49 non d ame      -9.564   8.986  64.347  0.00  0.00     0.084 H 
ATOM     65  C32 non d ame      -6.517   7.904  63.281  0.00  0.00    -0.083 A 
ATOM     66  H50 non d ame      -8.004   7.073  64.611  0.00  0.00     0.083 H 
ATOM     67  C33 non d ame      -6.183   8.972  62.458  0.00  0.00    -0.082 A 
ATOM     68  H51 non d ame      -5.825   7.069  63.391  0.00  0.00     0.083 H 
ATOM     69  C34 non d ame      -7.058  10.045  62.306  0.00  0.00    -0.075 A 
ATOM     70  H52 non d ame      -5.229   8.967  61.929  0.00  0.00     0.083 H 
ATOM     71  H53 non d ame      -6.789  10.880  61.657  0.00  0.00     0.084 H 
ENDBRANCH  58  61
ENDBRANCH  57  58
ENDBRANCH  55  57
ENDBRANCH  52  55
ENDBRANCH  49  52
ENDBRANCH  47  49
BRANCH  47  72
ATOM     72  C24 non d ame      -9.233  14.658  66.252  0.00  0.00    -0.039 C 
ATOM     73  H35 non d ame      -8.247  14.605  65.790  0.00  0.00     0.036 H 
ATOM     74  H36 non d ame     -10.103  14.918  65.649  0.00  0.00     0.036 H 
BRANCH  72  75
ATOM     75  C25 non d ame      -9.142  15.732  67.438  0.00  0.00    -0.001 C 
ATOM     76  C26 non d ame     -10.016  15.216  68.731  0.00  0.00    -0.035 C 
ATOM     77  C27 non d ame     -10.855  16.208  69.115  0.00  0.00     0.085 C 
ATOM     78  H38 non d ame     -10.691  14.415  68.429  0.00  0.00     0.036 H 
ATOM     79  H39 non d ame      -9.365  15.083  69.595  0.00  0.00     0.036 H 
ATOM     80  N5  non d ame     -10.865  17.232  68.006  0.00  0.00    -0.049 N 
ATOM     81  H40 non d ame     -11.840  15.747  69.183  0.00  0.00     0.075 H 
ATOM     82  H41 non d ame     -10.396  16.650  70.000  0.00  0.00     0.075 H 
ATOM     83  C28 non d ame      -9.601  16.880  67.064  0.00  0.00     0.193 C 
ATOM     84  H42 non d ame     -11.712  17.073  67.478  0.00  0.00     0.280 HD
ATOM     85  H43 non d ame     -10.702  18.128  68.441  0.00  0.00     0.280 HD
ATOM     86  H44 non d ame      -8.693  17.482  67.109  0.00  0.00     0.129 H 
ATOM     87  H37 non d ame      -8.117  16.051  67.628  0.00  0.00     0.046 H 
BRANCH  83  88
ATOM     88  O6  non d ame      -9.994  16.883  65.691  0.00  0.00    -0.369 OA
ATOM     89  H45 non d ame      -9.450  17.506  65.204  0.00  0.00     0.212 HD
ENDBRANCH  83  88
ENDBRANCH  72  75
ENDBRANCH  47  72
ENDBRANCH  45  47
ENDBRANCH   1  43
BRANCH   1  90
ATOM     90  C16 non d ame      -6.138  10.733  65.897  0.00  0.00    -0.035 C 
ATOM     91  H21 non d ame      -6.195   9.763  65.402  0.00  0.00     0.037 H 
ATOM     92  H22 non d ame      -6.711  11.575  65.512  0.00  0.00     0.037 H 
BRANCH  90  93
ATOM     93  C17 non d ame      -4.637  11.162  65.855  0.00  0.00    -0.059 C 
ATOM     94  H23 non d ame      -4.574  12.087  65.283  0.00  0.00     0.038 H 
BRANCH  93  95
ATOM     95  C18 non d ame      -4.063  11.443  67.280  0.00  0.00    -0.073 C 
ATOM     96  H24 non d ame      -4.565  12.311  67.709  0.00  0.00     0.028 H 
ATOM     97  H25 non d ame      -4.232  10.575  67.918  0.00  0.00     0.028 H 
ATOM     98  H26 non d ame      -2.993  11.638  67.209  0.00  0.00     0.028 H 
ENDBRANCH  93  95
BRANCH  93  99
ATOM     99  C19 non d ame      -3.791  10.117  65.123  0.00  0.00    -0.073 C 
ATOM    100  H27 non d ame      -4.433   9.304  64.783  0.00  0.00     0.028 H 
ATOM    101  H28 non d ame      -3.305  10.580  64.264  0.00  0.00     0.028 H 
ATOM    102  H29 non d ame      -3.034   9.723  65.800  0.00  0.00     0.028 H 
ENDBRANCH  93  99
ENDBRANCH  90  93
ENDBRANCH   1  90
TORSDOF 26
ENDMDL
MODEL 19
REMARK VINA RESULT:      -6.3      2.435      9.047
REMARK  26 active torsions:
REMARK  status: ('A' for Active; 'I' for Inactive)
REMARK    1  A    between atoms: C2_2  and  C3_3 
REMARK    2  A    between atoms: C4_6  and  C5_7 
REMARK       I    between atoms: C5_7  and  N2_9 
REMARK    3  A    between atoms: N2_9  and  C6_10 
REMARK    4  A    between atoms: C6_10  and  C7_11 
REMARK    5  A    between atoms: C6_10  and  C8_13 
REMARK       I    between atoms: C7_11  and  N3_14 
REMARK    6  A    between atoms: N3_14  and  C9_15 
REMARK    7  A    between atoms: C9_15  and  C10_16 
REMARK    8  A    between atoms: C9_15  and  C11_18 
REMARK       I    between atoms: C10_16  and  N4_21 
REMARK    9  A    between atoms: C11_18  and  C12_19 
REMARK   10  A    between atoms: C11_18  and  C13_20 
REMARK   11  A    between atoms: N4_21  and  C14_22 
REMARK   12  A    between atoms: C14_22  and  C15_23 
REMARK   13  A    between atoms: C14_22  and  C16_25 
REMARK       I    between atoms: C15_23  and  N6_40 
REMARK   14  A    between atoms: C16_25  and  C17_26 
REMARK   15  A    between atoms: C17_26  and  C18_27 
REMARK   16  A    between atoms: C17_26  and  C19_28 
REMARK   17  A    between atoms: C20_29  and  C21_30 
REMARK   18  A    between atoms: C20_29  and  C24_33 
REMARK   19  A    between atoms: C20_29  and  N6_40 
REMARK   20  A    between atoms: C21_30  and  C22_31 
REMARK   21  A    between atoms: C22_31  and  C23_32 
REMARK   22  A    between atoms: C23_32  and  O8_43 
REMARK   23  A    between atoms: C24_33  and  C25_34 
REMARK   24  A    between atoms: C28_38  and  O6_39 
REMARK   25  A    between atoms: C29_42  and  O8_43 
REMARK   26  A    between atoms: C29_42  and  C35_49 
ROOT
ATOM      1  C14 non d ame      -9.340  11.362  65.735  0.00  0.00     0.089 C 
ATOM      2  H20 non d ame      -8.988  11.629  64.739  0.00  0.00     0.087 H 
ENDROOT
BRANCH   1   3
ATOM      3  N4  non d ame      -8.676  10.126  66.118  0.00  0.00    -0.346 N 
ATOM      4  C10 non d ame      -7.947   9.301  65.088  0.00  0.00     0.241 C 
ATOM      5  O4  non d ame      -7.910   9.653  63.954  0.00  0.00    -0.271 OA
ATOM      6  H19 non d ame      -8.722   9.842  67.088  0.00  0.00     0.163 HD
BRANCH   4   7
ATOM      7  C9  non d ame      -7.260   8.027  65.503  0.00  0.00     0.092 C 
ATOM      8  H11 non d ame      -6.181   8.182  65.496  0.00  0.00     0.088 H 
BRANCH   7   9
ATOM      9  N3  non d ame      -7.640   7.693  66.879  0.00  0.00    -0.346 N 
ATOM     10  C7  non d ame      -6.630   7.598  67.903  0.00  0.00     0.240 C 
ATOM     11  O3  non d ame      -5.506   7.785  67.638  0.00  0.00    -0.271 OA
ATOM     12  H10 non d ame      -8.606   7.526  67.122  0.00  0.00     0.163 HD
BRANCH  10  13
ATOM     13  C6  non d ame      -7.041   7.238  69.365  0.00  0.00     0.086 C 
ATOM     14  H6  non d ame      -6.428   7.743  70.112  0.00  0.00     0.086 H 
BRANCH  13  15
ATOM     15  N2  non d ame      -8.410   7.671  69.589  0.00  0.00    -0.343 N 
ATOM     16  C5  non d ame      -8.663   8.913  70.325  0.00  0.00     0.273 C 
ATOM     17  O2  non d ame      -7.758   9.554  70.733  0.00  0.00    -0.266 OA
ATOM     18  H5  non d ame      -9.178   7.116  69.239  0.00  0.00     0.163 HD
BRANCH  16  19
ATOM     19  C4  non d ame     -10.105   9.384  70.567  0.00  0.00     0.154 A 
ATOM     20  C1  non d ame     -11.010   8.914  71.572  0.00  0.00    -0.017 A 
ATOM     21  C2  non d ame     -12.194   9.659  71.371  0.00  0.00     0.077 A 
ATOM     22  H1  non d ame     -10.836   8.150  72.330  0.00  0.00     0.091 H 
ATOM     23  O1  non d ame     -11.982  10.461  70.368  0.00  0.00    -0.218 OA
ATOM     24  N1  non d ame     -10.770  10.318  69.882  0.00  0.00    -0.123 NA
BRANCH  21  25
ATOM     25  C3  non d ame     -13.478   9.546  72.181  0.00  0.00    -0.029 C 
ATOM     26  H2  non d ame     -14.270  10.115  71.691  0.00  0.00     0.036 H 
ATOM     27  H3  non d ame     -13.773   8.499  72.250  0.00  0.00     0.036 H 
ATOM     28  H4  non d ame     -13.313   9.943  73.183  0.00  0.00     0.036 H 
ENDBRANCH  21  25
ENDBRANCH  16  19
ENDBRANCH  13  15
BRANCH  13  29
ATOM     29  C8  non d ame      -6.931   5.749  69.570  0.00  0.00    -0.049 C 
ATOM     30  H7  non d ame      -6.895   5.530  70.637  0.00  0.00     0.030 H 
ATOM     31  H8  non d ame      -7.798   5.257  69.127  0.00  0.00     0.030 H 
ATOM     32  H9  non d ame      -6.022   5.383  69.093  0.00  0.00     0.030 H 
ENDBRANCH  13  29
ENDBRANCH  10  13
ENDBRANCH   7   9
BRANCH   7  33
ATOM     33  C11 non d ame      -7.692   6.872  64.553  0.00  0.00    -0.033 C 
ATOM     34  H12 non d ame      -8.378   7.291  63.816  0.00  0.00     0.042 H 
BRANCH  33  35
ATOM     35  C12 non d ame      -6.471   6.288  63.777  0.00  0.00    -0.071 C 
ATOM     36  H13 non d ame      -5.689   6.011  64.485  0.00  0.00     0.028 H 
ATOM     37  H14 non d ame      -6.783   5.405  63.218  0.00  0.00     0.028 H 
ATOM     38  H15 non d ame      -6.088   7.038  63.085  0.00  0.00     0.028 H 
ENDBRANCH  33  35
BRANCH  33  39
ATOM     39  C13 non d ame      -8.450   5.755  65.339  0.00  0.00    -0.071 C 
ATOM     40  H16 non d ame      -8.082   4.778  65.029  0.00  0.00     0.028 H 
ATOM     41  H17 non d ame      -8.282   5.884  66.409  0.00  0.00     0.028 H 
ATOM     42  H18 non d ame      -9.517   5.824  65.129  0.00  0.00     0.028 H 
ENDBRANCH  33  39
ENDBRANCH   7  33
ENDBRANCH   4   7
ENDBRANCH   1   3
BRANCH   1  43
ATOM     43  C15 non d ame      -9.001  12.454  66.790  0.00  0.00     0.240 C 
ATOM     44  O5  non d ame      -8.578  12.136  67.855  0.00  0.00    -0.271 OA
ATOM     45  N6  non d ame      -9.196  13.897  66.471  0.00  0.00    -0.355 N 
ATOM     46  H46 non d ame      -9.551  14.180  65.569  0.00  0.00     0.162 HD
BRANCH  45  47
ATOM     47  C20 non d ame      -8.868  14.922  67.485  0.00  0.00     0.013 C 
ATOM     48  H30 non d ame      -9.185  15.890  67.097  0.00  0.00     0.072 H 
BRANCH  47  49
ATOM     49  C21 non d ame      -7.376  14.927  67.727  0.00  0.00    -0.038 C 
ATOM     50  H31 non d ame      -7.032  13.926  67.468  0.00  0.00     0.036 H 
ATOM     51  H32 non d ame      -6.993  15.793  67.186  0.00  0.00     0.036 H 
BRANCH  49  52
ATOM     52  C22 non d ame      -7.010  15.145  69.211  0.00  0.00     0.018 C 
ATOM     53  H33 non d ame      -7.953  15.341  69.723  0.00  0.00     0.048 H 
ATOM     54  H34 non d ame      -6.404  14.284  69.495  0.00  0.00     0.048 H 
BRANCH  52  55
ATOM     55  C23 non d ame      -6.121  16.395  69.460  0.00  0.00     0.259 C 
ATOM     56  O7  non d ame      -5.345  16.414  70.359  0.00  0.00    -0.265 OA
BRANCH  55  57
ATOM     57  O8  non d ame      -6.255  17.526  68.608  0.00  0.00    -0.317 OA
BRANCH  57  58
ATOM     58  C29 non d ame      -7.010  18.600  69.178  0.00  0.00     0.052 C 
ATOM     59  H47 non d ame      -7.469  18.193  70.078  0.00  0.00     0.082 H 
ATOM     60  H48 non d ame      -6.318  19.440  69.250  0.00  0.00     0.082 H 
BRANCH  58  61
ATOM     61  C35 non d ame      -8.136  18.976  68.179  0.00  0.00    -0.034 A 
ATOM     62  C30 non d ame      -7.818  19.324  66.870  0.00  0.00    -0.075 A 
ATOM     63  C31 non d ame      -8.830  19.662  65.972  0.00  0.00    -0.082 A 
ATOM     64  H49 non d ame      -6.778  19.331  66.547  0.00  0.00     0.084 H 
ATOM     65  C32 non d ame     -10.164  19.654  66.389  0.00  0.00    -0.083 A 
ATOM     66  H50 non d ame      -8.578  19.933  64.947  0.00  0.00     0.083 H 
ATOM     67  C33 non d ame     -10.476  19.310  67.697  0.00  0.00    -0.082 A 
ATOM     68  H51 non d ame     -10.961  19.918  65.694  0.00  0.00     0.083 H 
ATOM     69  C34 non d ame      -9.468  18.969  68.597  0.00  0.00    -0.075 A 
ATOM     70  H52 non d ame     -11.518  19.307  68.020  0.00  0.00     0.083 H 
ATOM     71  H53 non d ame      -9.721  18.698  69.623  0.00  0.00     0.084 H 
ENDBRANCH  58  61
ENDBRANCH  57  58
ENDBRANCH  55  57
ENDBRANCH  52  55
ENDBRANCH  49  52
ENDBRANCH  47  49
BRANCH  47  72
ATOM     72  C24 non d ame      -9.596  14.609  68.790  0.00  0.00    -0.039 C 
ATOM     73  H35 non d ame      -9.719  13.526  68.802  0.00  0.00     0.036 H 
ATOM     74  H36 non d ame      -9.015  15.099  69.572  0.00  0.00     0.036 H 
BRANCH  72  75
ATOM     75  C25 non d ame     -11.063  15.252  68.820  0.00  0.00    -0.001 C 
ATOM     76  C26 non d ame     -11.241  16.183  70.164  0.00  0.00    -0.035 C 
ATOM     77  C27 non d ame     -12.374  15.812  70.805  0.00  0.00     0.085 C 
ATOM     78  H38 non d ame     -10.455  15.953  70.883  0.00  0.00     0.036 H 
ATOM     79  H39 non d ame     -11.434  17.217  69.879  0.00  0.00     0.036 H 
ATOM     80  N5  non d ame     -12.814  14.500  70.203  0.00  0.00    -0.049 N 
ATOM     81  H40 non d ame     -12.082  15.647  71.842  0.00  0.00     0.075 H 
ATOM     82  H41 non d ame     -13.110  16.578  70.561  0.00  0.00     0.075 H 
ATOM     83  C28 non d ame     -11.974  14.336  68.833  0.00  0.00     0.193 C 
ATOM     84  H42 non d ame     -12.523  13.778  70.846  0.00  0.00     0.280 HD
ATOM     85  H43 non d ame     -13.791  14.604  69.970  0.00  0.00     0.280 HD
ATOM     86  H44 non d ame     -12.449  14.514  67.868  0.00  0.00     0.129 H 
ATOM     87  H37 non d ame     -11.336  15.702  67.865  0.00  0.00     0.046 H 
BRANCH  83  88
ATOM     88  O6  non d ame     -11.420  13.023  68.750  0.00  0.00    -0.369 OA
ATOM     89  H45 non d ame     -11.179  12.721  69.628  0.00  0.00     0.212 HD
ENDBRANCH  83  88
ENDBRANCH  72  75
ENDBRANCH  47  72
ENDBRANCH  45  47
ENDBRANCH   1  43
BRANCH   1  90
ATOM     90  C16 non d ame     -10.843  11.131  65.704  0.00  0.00    -0.035 C 
ATOM     91  H21 non d ame     -10.966  10.053  65.598  0.00  0.00     0.037 H 
ATOM     92  H22 non d ame     -11.232  11.639  66.586  0.00  0.00     0.037 H 
BRANCH  90  93
ATOM     93  C17 non d ame     -11.551  11.778  64.472  0.00  0.00    -0.059 C 
ATOM     94  H23 non d ame     -12.254  11.047  64.072  0.00  0.00     0.038 H 
BRANCH  93  95
ATOM     95  C18 non d ame     -12.362  13.055  64.860  0.00  0.00    -0.073 C 
ATOM     96  H24 non d ame     -12.914  12.868  65.782  0.00  0.00     0.028 H 
ATOM     97  H25 non d ame     -11.676  13.889  65.012  0.00  0.00     0.028 H 
ATOM     98  H26 non d ame     -13.061  13.300  64.061  0.00  0.00     0.028 H 
ENDBRANCH  93  95
BRANCH  93  99
ATOM     99  C19 non d ame     -10.542  12.090  63.363  0.00  0.00    -0.073 C 
ATOM    100  H27 non d ame     -10.136  11.158  62.970  0.00  0.00     0.028 H 
ATOM    101  H28 non d ame     -11.039  12.637  62.563  0.00  0.00     0.028 H 
ATOM    102  H29 non d ame      -9.732  12.695  63.769  0.00  0.00     0.028 H 
ENDBRANCH  93  99
ENDBRANCH  90  93
ENDBRANCH   1  90
TORSDOF 26
ENDMDL
MODEL 20
REMARK VINA RESULT:      -6.2      2.693      9.648
REMARK  26 active torsions:
REMARK  status: ('A' for Active; 'I' for Inactive)
REMARK    1  A    between atoms: C2_2  and  C3_3 
REMARK    2  A    between atoms: C4_6  and  C5_7 
REMARK       I    between atoms: C5_7  and  N2_9 
REMARK    3  A    between atoms: N2_9  and  C6_10 
REMARK    4  A    between atoms: C6_10  and  C7_11 
REMARK    5  A    between atoms: C6_10  and  C8_13 
REMARK       I    between atoms: C7_11  and  N3_14 
REMARK    6  A    between atoms: N3_14  and  C9_15 
REMARK    7  A    between atoms: C9_15  and  C10_16 
REMARK    8  A    between atoms: C9_15  and  C11_18 
REMARK       I    between atoms: C10_16  and  N4_21 
REMARK    9  A    between atoms: C11_18  and  C12_19 
REMARK   10  A    between atoms: C11_18  and  C13_20 
REMARK   11  A    between atoms: N4_21  and  C14_22 
REMARK   12  A    between atoms: C14_22  and  C15_23 
REMARK   13  A    between atoms: C14_22  and  C16_25 
REMARK       I    between atoms: C15_23  and  N6_40 
REMARK   14  A    between atoms: C16_25  and  C17_26 
REMARK   15  A    between atoms: C17_26  and  C18_27 
REMARK   16  A    between atoms: C17_26  and  C19_28 
REMARK   17  A    between atoms: C20_29  and  C21_30 
REMARK   18  A    between atoms: C20_29  and  C24_33 
REMARK   19  A    between atoms: C20_29  and  N6_40 
REMARK   20  A    between atoms: C21_30  and  C22_31 
REMARK   21  A    between atoms: C22_31  and  C23_32 
REMARK   22  A    between atoms: C23_32  and  O8_43 
REMARK   23  A    between atoms: C24_33  and  C25_34 
REMARK   24  A    between atoms: C28_38  and  O6_39 
REMARK   25  A    between atoms: C29_42  and  O8_43 
REMARK   26  A    between atoms: C29_42  and  C35_49 
ROOT
ATOM      1  C14 non d ame     -10.936  10.123  68.507  0.00  0.00     0.089 C 
ATOM      2  H20 non d ame     -11.669   9.317  68.523  0.00  0.00     0.087 H 
ENDROOT
BRANCH   1   3
ATOM      3  N4  non d ame      -9.784   9.653  67.753  0.00  0.00    -0.346 N 
ATOM      4  C10 non d ame      -9.877   8.398  66.923  0.00  0.00     0.241 C 
ATOM      5  O4  non d ame     -10.890   7.781  66.879  0.00  0.00    -0.271 OA
ATOM      6  H19 non d ame      -8.930  10.192  67.806  0.00  0.00     0.163 HD
BRANCH   4   7
ATOM      7  C9  non d ame      -8.676   7.929  66.145  0.00  0.00     0.092 C 
ATOM      8  H11 non d ame      -8.874   8.038  65.078  0.00  0.00     0.088 H 
BRANCH   7   9
ATOM      9  N3  non d ame      -7.526   8.782  66.459  0.00  0.00    -0.346 N 
ATOM     10  C7  non d ame      -7.064   9.753  65.498  0.00  0.00     0.240 C 
ATOM     11  O3  non d ame      -7.605   9.861  64.466  0.00  0.00    -0.271 OA
ATOM     12  H10 non d ame      -7.048   8.699  67.345  0.00  0.00     0.163 HD
BRANCH  10  13
ATOM     13  C6  non d ame      -5.837  10.655  65.838  0.00  0.00     0.086 C 
ATOM     14  H6  non d ame      -5.917  11.655  65.411  0.00  0.00     0.086 H 
BRANCH  13  15
ATOM     15  N2  non d ame      -5.761  10.823  67.280  0.00  0.00    -0.343 N 
ATOM     16  C5  non d ame      -5.289  12.094  67.833  0.00  0.00     0.273 C 
ATOM     17  O2  non d ame      -4.971  12.974  67.111  0.00  0.00    -0.266 OA
ATOM     18  H5  non d ame      -6.032  10.066  67.890  0.00  0.00     0.163 HD
BRANCH  16  19
ATOM     19  C4  non d ame      -5.205  12.287  69.356  0.00  0.00     0.154 A 
ATOM     20  C1  non d ame      -5.356  13.511  70.082  0.00  0.00    -0.017 A 
ATOM     21  C2  non d ame      -5.191  13.153  71.438  0.00  0.00     0.077 A 
ATOM     22  H1  non d ame      -5.554  14.508  69.685  0.00  0.00     0.091 H 
ATOM     23  O1  non d ame      -4.974  11.870  71.476  0.00  0.00    -0.218 OA
ATOM     24  N1  non d ame      -4.976  11.343  70.273  0.00  0.00    -0.123 NA
BRANCH  21  25
ATOM     25  C3  non d ame      -5.259  14.092  72.634  0.00  0.00    -0.029 C 
ATOM     26  H2  non d ame      -5.057  13.534  73.549  0.00  0.00     0.036 H 
ATOM     27  H3  non d ame      -4.516  14.881  72.518  0.00  0.00     0.036 H 
ATOM     28  H4  non d ame      -6.253  14.537  72.692  0.00  0.00     0.036 H 
ENDBRANCH  21  25
ENDBRANCH  16  19
ENDBRANCH  13  15
BRANCH  13  29
ATOM     29  C8  non d ame      -4.576  10.007  65.327  0.00  0.00    -0.049 C 
ATOM     30  H7  non d ame      -4.054   9.524  66.153  0.00  0.00     0.030 H 
ATOM     31  H8  non d ame      -4.830   9.262  64.572  0.00  0.00     0.030 H 
ATOM     32  H9  non d ame      -3.931  10.765  64.885  0.00  0.00     0.030 H 
ENDBRANCH  13  29
ENDBRANCH  10  13
ENDBRANCH   7   9
BRANCH   7  33
ATOM     33  C11 non d ame      -8.348   6.457  66.532  0.00  0.00    -0.033 C 
ATOM     34  H12 non d ame      -9.092   6.136  67.262  0.00  0.00     0.042 H 
BRANCH  33  35
ATOM     35  C12 non d ame      -8.460   5.507  65.299  0.00  0.00    -0.071 C 
ATOM     36  H13 non d ame      -7.754   5.822  64.532  0.00  0.00     0.028 H 
ATOM     37  H14 non d ame      -8.232   4.486  65.605  0.00  0.00     0.028 H 
ATOM     38  H15 non d ame      -9.474   5.548  64.901  0.00  0.00     0.028 H 
ENDBRANCH  33  35
BRANCH  33  39
ATOM     39  C13 non d ame      -6.940   6.355  67.200  0.00  0.00    -0.071 C 
ATOM     40  H16 non d ame      -6.807   5.357  67.617  0.00  0.00     0.028 H 
ATOM     41  H17 non d ame      -6.168   6.543  66.453  0.00  0.00     0.028 H 
ATOM     42  H18 non d ame      -6.862   7.095  67.996  0.00  0.00     0.028 H 
ENDBRANCH  33  39
ENDBRANCH   7  33
ENDBRANCH   4   7
ENDBRANCH   1   3
BRANCH   1  43
ATOM     43  C15 non d ame     -11.488  11.405  67.820  0.00  0.00     0.240 C 
ATOM     44  O5  non d ame     -11.974  11.333  66.737  0.00  0.00    -0.271 OA
ATOM     45  N6  non d ame     -11.420  12.722  68.515  0.00  0.00    -0.355 N 
ATOM     46  H46 non d ame     -11.013  12.795  69.436  0.00  0.00     0.162 HD
BRANCH  45  47
ATOM     47  C20 non d ame     -11.950  13.931  67.849  0.00  0.00     0.013 C 
ATOM     48  H30 non d ame     -12.814  13.634  67.254  0.00  0.00     0.072 H 
BRANCH  47  49
ATOM     49  C21 non d ame     -10.883  14.517  66.952  0.00  0.00    -0.038 C 
ATOM     50  H31 non d ame     -10.647  15.494  67.374  0.00  0.00     0.036 H 
ATOM     51  H32 non d ame     -10.108  13.753  66.879  0.00  0.00     0.036 H 
BRANCH  49  52
ATOM     52  C22 non d ame     -11.381  14.771  65.513  0.00  0.00     0.018 C 
ATOM     53  H33 non d ame     -10.851  14.054  64.885  0.00  0.00     0.048 H 
ATOM     54  H34 non d ame     -12.470  14.745  65.569  0.00  0.00     0.048 H 
BRANCH  52  55
ATOM     55  C23 non d ame     -11.013  16.176  64.962  0.00  0.00     0.259 C 
ATOM     56  O7  non d ame     -11.609  16.639  64.045  0.00  0.00    -0.265 OA
BRANCH  55  57
ATOM     57  O8  non d ame      -9.943  16.900  65.557  0.00  0.00    -0.317 OA
BRANCH  57  58
ATOM     58  C29 non d ame     -10.358  18.056  66.291  0.00  0.00     0.052 C 
ATOM     59  H47 non d ame     -10.737  18.757  65.549  0.00  0.00     0.082 H 
ATOM     60  H48 non d ame     -11.017  17.685  67.077  0.00  0.00     0.082 H 
BRANCH  58  61
ATOM     61  C35 non d ame      -9.102  18.676  66.958  0.00  0.00    -0.034 A 
ATOM     62  C30 non d ame      -9.059  18.850  68.337  0.00  0.00    -0.075 A 
ATOM     63  C31 non d ame      -7.930  19.408  68.936  0.00  0.00    -0.082 A 
ATOM     64  H49 non d ame      -9.909  18.550  68.948  0.00  0.00     0.084 H 
ATOM     65  C32 non d ame      -6.842  19.794  68.149  0.00  0.00    -0.083 A 
ATOM     66  H50 non d ame      -7.899  19.542  70.017  0.00  0.00     0.083 H 
ATOM     67  C33 non d ame      -6.890  19.622  66.772  0.00  0.00    -0.082 A 
ATOM     68  H51 non d ame      -5.956  20.231  68.609  0.00  0.00     0.083 H 
ATOM     69  C34 non d ame      -8.016  19.063  66.170  0.00  0.00    -0.075 A 
ATOM     70  H52 non d ame      -6.040  19.927  66.160  0.00  0.00     0.083 H 
ATOM     71  H53 non d ame      -8.045  18.929  65.087  0.00  0.00     0.084 H 
ENDBRANCH  58  61
ENDBRANCH  57  58
ENDBRANCH  55  57
ENDBRANCH  52  55
ENDBRANCH  49  52
ENDBRANCH  47  49
BRANCH  47  72
ATOM     72  C24 non d ame     -12.357  14.962  68.898  0.00  0.00    -0.039 C 
ATOM     73  H35 non d ame     -11.841  15.880  68.620  0.00  0.00     0.036 H 
ATOM     74  H36 non d ame     -13.447  14.936  68.924  0.00  0.00     0.036 H 
BRANCH  72  75
ATOM     75  C25 non d ame     -11.842  14.555  70.360  0.00  0.00    -0.001 C 
ATOM     76  C26 non d ame     -13.118  14.134  71.308  0.00  0.00    -0.035 C 
ATOM     77  C27 non d ame     -13.050  14.832  72.466  0.00  0.00     0.085 C 
ATOM     78  H38 non d ame     -14.048  14.480  70.857  0.00  0.00     0.036 H 
ATOM     79  H39 non d ame     -13.020  13.097  71.628  0.00  0.00     0.036 H 
ATOM     80  N5  non d ame     -12.031  15.927  72.264  0.00  0.00    -0.049 N 
ATOM     81  H40 non d ame     -14.035  15.282  72.594  0.00  0.00     0.075 H 
ATOM     82  H41 non d ame     -12.671  14.128  73.208  0.00  0.00     0.075 H 
ATOM     83  C28 non d ame     -11.218  15.535  70.925  0.00  0.00     0.193 C 
ATOM     84  H42 non d ame     -12.552  16.774  72.086  0.00  0.00     0.280 HD
ATOM     85  H43 non d ame     -11.399  15.879  73.049  0.00  0.00     0.280 HD
ATOM     86  H44 non d ame     -10.212  15.119  70.990  0.00  0.00     0.129 H 
ATOM     87  H37 non d ame     -11.002  13.862  70.323  0.00  0.00     0.046 H 
BRANCH  83  88
ATOM     88  O6  non d ame     -11.107  16.671  70.066  0.00  0.00    -0.369 OA
ATOM     89  H45 non d ame     -10.291  16.614  69.565  0.00  0.00     0.212 HD
ENDBRANCH  83  88
ENDBRANCH  72  75
ENDBRANCH  47  72
ENDBRANCH  45  47
ENDBRANCH   1  43
BRANCH   1  90
ATOM     90  C16 non d ame     -10.501  10.452  69.927  0.00  0.00    -0.035 C 
ATOM     91  H21 non d ame      -9.483  10.071  70.011  0.00  0.00     0.037 H 
ATOM     92  H22 non d ame     -10.696  11.516  70.049  0.00  0.00     0.037 H 
BRANCH  90  93
ATOM     93  C17 non d ame     -11.337   9.719  71.023  0.00  0.00    -0.059 C 
ATOM     94  H23 non d ame     -10.800   9.814  71.967  0.00  0.00     0.038 H 
BRANCH  93  95
ATOM     95  C18 non d ame     -12.750  10.356  71.212  0.00  0.00    -0.073 C 
ATOM     96  H24 non d ame     -12.989  10.973  70.345  0.00  0.00     0.028 H 
ATOM     97  H25 non d ame     -13.495   9.567  71.311  0.00  0.00     0.028 H 
ATOM     98  H26 non d ame     -12.754  10.973  72.110  0.00  0.00     0.028 H 
ENDBRANCH  93  95
BRANCH  93  99
ATOM     99  C19 non d ame     -11.450   8.223  70.716  0.00  0.00    -0.073 C 
ATOM    100  H27 non d ame     -10.485   7.745  70.882  0.00  0.00     0.028 H 
ATOM    101  H28 non d ame     -12.197   7.773  71.370  0.00  0.00     0.028 H 
ATOM    102  H29 non d ame     -11.748   8.088  69.676  0.00  0.00     0.028 H 
ENDBRANCH  93  99
ENDBRANCH  90  93
ENDBRANCH   1  90
TORSDOF 26
ENDMDL
