MODEL 1
REMARK VINA RESULT:      -7.1      0.000      0.000
REMARK  26 active torsions:
REMARK  status: ('A' for Active; 'I' for Inactive)
REMARK    1  A    between atoms: C2_2  and  C3_3 
REMARK    2  A    between atoms: C4_6  and  C5_7 
REMARK       I    between atoms: C5_7  and  N2_9 
REMARK    3  A    between atoms: N2_9  and  C6_10 
REMARK    4  A    between atoms: C6_10  and  C7_11 
REMARK    5  A    between atoms: C6_10  and  C8_13 
REMARK       I    between atoms: C7_11  and  N3_14 
REMARK    6  A    between atoms: N3_14  and  C9_15 
REMARK    7  A    between atoms: C9_15  and  C10_16 
REMARK    8  A    between atoms: C9_15  and  C11_18 
REMARK       I    between atoms: C10_16  and  N4_21 
REMARK    9  A    between atoms: C11_18  and  C12_19 
REMARK   10  A    between atoms: C11_18  and  C13_20 
REMARK   11  A    between atoms: N4_21  and  C14_22 
REMARK   12  A    between atoms: C14_22  and  C15_23 
REMARK   13  A    between atoms: C14_22  and  C16_25 
REMARK       I    between atoms: C15_23  and  N6_40 
REMARK   14  A    between atoms: C16_25  and  C17_26 
REMARK   15  A    between atoms: C17_26  and  C18_27 
REMARK   16  A    between atoms: C17_26  and  C19_28 
REMARK   17  A    between atoms: C20_29  and  C21_30 
REMARK   18  A    between atoms: C20_29  and  C24_33 
REMARK   19  A    between atoms: C20_29  and  N6_40 
REMARK   20  A    between atoms: C21_30  and  C22_31 
REMARK   21  A    between atoms: C22_31  and  C23_32 
REMARK   22  A    between atoms: C23_32  and  O8_43 
REMARK   23  A    between atoms: C24_33  and  C25_34 
REMARK   24  A    between atoms: C28_38  and  O6_39 
REMARK   25  A    between atoms: C29_42  and  O8_43 
REMARK   26  A    between atoms: C29_42  and  C35_49 
ROOT
ATOM      1  C14 non d ame      -6.597  16.132  67.738  0.00  0.00     0.089 C 
ATOM      2  H20 non d ame      -6.030  16.678  66.984  0.00  0.00     0.087 H 
ENDROOT
BRANCH   1   3
ATOM      3  N4  non d ame      -8.010  16.294  67.427  0.00  0.00    -0.346 N 
ATOM      4  C10 non d ame      -8.453  17.310  66.405  0.00  0.00     0.241 C 
ATOM      5  O4  non d ame      -7.654  17.988  65.847  0.00  0.00    -0.271 OA
ATOM      6  H19 non d ame      -8.674  15.708  67.915  0.00  0.00     0.163 HD
BRANCH   4   7
ATOM      7  C9  non d ame      -9.918  17.460  66.091  0.00  0.00     0.092 C 
ATOM      8  H11 non d ame     -10.030  17.972  65.135  0.00  0.00     0.088 H 
BRANCH   7   9
ATOM      9  N3  non d ame     -10.526  16.134  65.945  0.00  0.00    -0.346 N 
ATOM     10  C7  non d ame     -11.291  15.817  64.765  0.00  0.00     0.240 C 
ATOM     11  O3  non d ame     -11.430  16.618  63.923  0.00  0.00    -0.271 OA
ATOM     12  H10 non d ame     -10.416  15.433  66.664  0.00  0.00     0.163 HD
BRANCH  10  13
ATOM     13  C6  non d ame     -11.938  14.405  64.617  0.00  0.00     0.086 C 
ATOM     14  H6  non d ame     -12.627  14.342  63.775  0.00  0.00     0.086 H 
BRANCH  13  15
ATOM     15  N2  non d ame     -10.888  13.430  64.368  0.00  0.00    -0.343 N 
ATOM     16  C5  non d ame     -11.207  12.195  63.648  0.00  0.00     0.273 C 
ATOM     17  O2  non d ame     -12.311  11.995  63.275  0.00  0.00    -0.266 OA
ATOM     18  H5  non d ame      -9.949  13.608  64.692  0.00  0.00     0.163 HD
BRANCH  16  19
ATOM     19  C4  non d ame     -10.108  11.156  63.376  0.00  0.00     0.154 A 
ATOM     20  C1  non d ame      -9.709  10.077  64.227  0.00  0.00    -0.017 A 
ATOM     21  C2  non d ame      -8.670   9.426  63.526  0.00  0.00     0.077 A 
ATOM     22  H1  non d ame     -10.111   9.808  65.205  0.00  0.00     0.091 H 
ATOM     23  O1  non d ame      -8.501  10.063  62.403  0.00  0.00    -0.218 OA
ATOM     24  N1  non d ame      -9.329  11.077  62.294  0.00  0.00    -0.123 NA
BRANCH  21  25
ATOM     25  C3  non d ame      -7.894   8.203  63.995  0.00  0.00    -0.029 C 
ATOM     26  H2  non d ame      -6.844   8.466  64.127  0.00  0.00     0.036 H 
ATOM     27  H3  non d ame      -8.303   7.855  64.944  0.00  0.00     0.036 H 
ATOM     28  H4  non d ame      -7.979   7.410  63.251  0.00  0.00     0.036 H 
ENDBRANCH  21  25
ENDBRANCH  16  19
ENDBRANCH  13  15
BRANCH  13  29
ATOM     29  C8  non d ame     -12.679  14.053  65.881  0.00  0.00    -0.049 C 
ATOM     30  H7  non d ame     -12.691  12.970  66.007  0.00  0.00     0.030 H 
ATOM     31  H8  non d ame     -12.180  14.513  66.735  0.00  0.00     0.030 H 
ATOM     32  H9  non d ame     -13.702  14.421  65.817  0.00  0.00     0.030 H 
ENDBRANCH  13  29
ENDBRANCH  10  13
ENDBRANCH   7   9
BRANCH   7  33
ATOM     33  C11 non d ame     -10.622  18.225  67.251  0.00  0.00    -0.033 C 
ATOM     34  H12 non d ame     -11.696  18.172  67.075  0.00  0.00     0.042 H 
BRANCH  33  35
ATOM     35  C12 non d ame     -10.338  17.552  68.630  0.00  0.00    -0.071 C 
ATOM     36  H13 non d ame     -11.281  17.373  69.147  0.00  0.00     0.028 H 
ATOM     37  H14 non d ame      -9.825  16.603  68.473  0.00  0.00     0.028 H 
ATOM     38  H15 non d ame      -9.711  18.209  69.232  0.00  0.00     0.028 H 
ENDBRANCH  33  35
BRANCH  33  39
ATOM     39  C13 non d ame     -10.207  19.731  67.259  0.00  0.00    -0.071 C 
ATOM     40  H16 non d ame     -11.095  20.352  67.370  0.00  0.00     0.028 H 
ATOM     41  H17 non d ame      -9.526  19.916  68.090  0.00  0.00     0.028 H 
ATOM     42  H18 non d ame      -9.708  19.974  66.321  0.00  0.00     0.028 H 
ENDBRANCH  33  39
ENDBRANCH   7  33
ENDBRANCH   4   7
ENDBRANCH   1   3
BRANCH   1  43
ATOM     43  C15 non d ame      -6.262  14.613  67.741  0.00  0.00     0.240 C 
ATOM     44  O5  non d ame      -5.160  14.250  67.475  0.00  0.00    -0.271 OA
ATOM     45  N6  non d ame      -7.309  13.610  68.084  0.00  0.00    -0.355 N 
ATOM     46  H46 non d ame      -8.247  13.906  68.316  0.00  0.00     0.162 HD
BRANCH  45  47
ATOM     47  C20 non d ame      -6.974  12.170  68.083  0.00  0.00     0.013 C 
ATOM     48  H30 non d ame      -6.046  12.042  67.525  0.00  0.00     0.072 H 
BRANCH  47  49
ATOM     49  C21 non d ame      -8.088  11.397  67.415  0.00  0.00    -0.038 C 
ATOM     50  H31 non d ame      -8.629  12.124  66.809  0.00  0.00     0.036 H 
ATOM     51  H32 non d ame      -7.608  10.540  66.941  0.00  0.00     0.036 H 
BRANCH  49  52
ATOM     52  C22 non d ame      -9.107  10.822  68.423  0.00  0.00     0.018 C 
ATOM     53  H33 non d ame      -9.040   9.738  68.327  0.00  0.00     0.048 H 
ATOM     54  H34 non d ame      -8.881  11.300  69.377  0.00  0.00     0.048 H 
BRANCH  52  55
ATOM     55  C23 non d ame     -10.582  11.189  68.099  0.00  0.00     0.259 C 
ATOM     56  O7  non d ame     -11.186  10.584  67.274  0.00  0.00    -0.265 OA
BRANCH  55  57
ATOM     57  O8  non d ame     -11.201  12.267  68.791  0.00  0.00    -0.317 OA
BRANCH  57  58
ATOM     58  C29 non d ame     -11.904  11.874  69.973  0.00  0.00     0.052 C 
ATOM     59  H47 non d ame     -12.760  11.295  69.630  0.00  0.00     0.082 H 
ATOM     60  H48 non d ame     -11.157  11.411  70.619  0.00  0.00     0.082 H 
BRANCH  58  61
ATOM     61  C35 non d ame     -12.425  13.159  70.670  0.00  0.00    -0.034 A 
ATOM     62  C30 non d ame     -12.140  14.408  70.129  0.00  0.00    -0.075 A 
ATOM     63  C31 non d ame     -12.609  15.563  70.754  0.00  0.00    -0.082 A 
ATOM     64  H49 non d ame     -11.551  14.483  69.216  0.00  0.00     0.084 H 
ATOM     65  C32 non d ame     -13.363  15.464  71.926  0.00  0.00    -0.083 A 
ATOM     66  H50 non d ame     -12.385  16.540  70.327  0.00  0.00     0.083 H 
ATOM     67  C33 non d ame     -13.642  14.215  72.465  0.00  0.00    -0.082 A 
ATOM     68  H51 non d ame     -13.733  16.362  72.422  0.00  0.00     0.083 H 
ATOM     69  C34 non d ame     -13.178  13.059  71.841  0.00  0.00    -0.075 A 
ATOM     70  H52 non d ame     -14.229  14.142  73.381  0.00  0.00     0.083 H 
ATOM     71  H53 non d ame     -13.402  12.081  72.270  0.00  0.00     0.084 H 
ENDBRANCH  58  61
ENDBRANCH  57  58
ENDBRANCH  55  57
ENDBRANCH  52  55
ENDBRANCH  49  52
ENDBRANCH  47  49
BRANCH  47  72
ATOM     72  C24 non d ame      -6.802  11.679  69.519  0.00  0.00    -0.039 C 
ATOM     73  H35 non d ame      -7.349  12.391  70.137  0.00  0.00     0.036 H 
ATOM     74  H36 non d ame      -7.097  10.630  69.505  0.00  0.00     0.036 H 
BRANCH  72  75
ATOM     75  C25 non d ame      -5.269  11.732  69.983  0.00  0.00    -0.001 C 
ATOM     76  C26 non d ame      -4.838  10.296  70.659  0.00  0.00    -0.035 C 
ATOM     77  C27 non d ame      -4.269  10.534  71.865  0.00  0.00     0.085 C 
ATOM     78  H38 non d ame      -5.729   9.719  70.908  0.00  0.00     0.036 H 
ATOM     79  H39 non d ame      -4.034   9.837  70.083  0.00  0.00     0.036 H 
ATOM     80  N5  non d ame      -4.566  11.971  72.217  0.00  0.00    -0.049 N 
ATOM     81  H40 non d ame      -4.789   9.881  72.567  0.00  0.00     0.075 H 
ATOM     82  H41 non d ame      -3.197  10.422  71.707  0.00  0.00     0.075 H 
ATOM     83  C28 non d ame      -5.076  12.668  70.852  0.00  0.00     0.193 C 
ATOM     84  H42 non d ame      -5.334  11.952  72.874  0.00  0.00     0.280 HD
ATOM     85  H43 non d ame      -3.686  12.389  72.482  0.00  0.00     0.280 HD
ATOM     86  H44 non d ame      -4.417  13.329  70.289  0.00  0.00     0.129 H 
ATOM     87  H37 non d ame      -4.616  12.130  69.207  0.00  0.00     0.046 H 
BRANCH  83  88
ATOM     88  O6  non d ame      -6.260  13.427  71.099  0.00  0.00    -0.369 OA
ATOM     89  H45 non d ame      -6.028  14.247  71.541  0.00  0.00     0.212 HD
ENDBRANCH  83  88
ENDBRANCH  72  75
ENDBRANCH  47  72
ENDBRANCH  45  47
ENDBRANCH   1  43
BRANCH   1  90
ATOM     90  C16 non d ame      -6.321  16.719  69.114  0.00  0.00    -0.035 C 
ATOM     91  H21 non d ame      -7.298  16.814  69.588  0.00  0.00     0.037 H 
ATOM     92  H22 non d ame      -5.562  16.074  69.555  0.00  0.00     0.037 H 
BRANCH  90  93
ATOM     93  C17 non d ame      -5.710  18.155  69.071  0.00  0.00    -0.059 C 
ATOM     94  H23 non d ame      -5.115  18.289  69.974  0.00  0.00     0.038 H 
BRANCH  93  95
ATOM     95  C18 non d ame      -4.767  18.360  67.843  0.00  0.00    -0.073 C 
ATOM     96  H24 non d ame      -5.364  18.413  66.932  0.00  0.00     0.028 H 
ATOM     97  H25 non d ame      -4.208  19.287  67.965  0.00  0.00     0.028 H 
ATOM     98  H26 non d ame      -4.073  17.523  67.774  0.00  0.00     0.028 H 
ENDBRANCH  93  95
BRANCH  93  99
ATOM     99  C19 non d ame      -6.813  19.218  69.094  0.00  0.00    -0.073 C 
ATOM    100  H27 non d ame      -6.918  19.654  68.101  0.00  0.00     0.028 H 
ATOM    101  H28 non d ame      -7.755  18.758  69.391  0.00  0.00     0.028 H 
ATOM    102  H29 non d ame      -6.549  19.999  69.807  0.00  0.00     0.028 H 
ENDBRANCH  93  99
ENDBRANCH  90  93
ENDBRANCH   1  90
TORSDOF 26
ENDMDL
MODEL 2
REMARK VINA RESULT:      -6.9      2.245      6.433
REMARK  26 active torsions:
REMARK  status: ('A' for Active; 'I' for Inactive)
REMARK    1  A    between atoms: C2_2  and  C3_3 
REMARK    2  A    between atoms: C4_6  and  C5_7 
REMARK       I    between atoms: C5_7  and  N2_9 
REMARK    3  A    between atoms: N2_9  and  C6_10 
REMARK    4  A    between atoms: C6_10  and  C7_11 
REMARK    5  A    between atoms: C6_10  and  C8_13 
REMARK       I    between atoms: C7_11  and  N3_14 
REMARK    6  A    between atoms: N3_14  and  C9_15 
REMARK    7  A    between atoms: C9_15  and  C10_16 
REMARK    8  A    between atoms: C9_15  and  C11_18 
REMARK       I    between atoms: C10_16  and  N4_21 
REMARK    9  A    between atoms: C11_18  and  C12_19 
REMARK   10  A    between atoms: C11_18  and  C13_20 
REMARK   11  A    between atoms: N4_21  and  C14_22 
REMARK   12  A    between atoms: C14_22  and  C15_23 
REMARK   13  A    between atoms: C14_22  and  C16_25 
REMARK       I    between atoms: C15_23  and  N6_40 
REMARK   14  A    between atoms: C16_25  and  C17_26 
REMARK   15  A    between atoms: C17_26  and  C18_27 
REMARK   16  A    between atoms: C17_26  and  C19_28 
REMARK   17  A    between atoms: C20_29  and  C21_30 
REMARK   18  A    between atoms: C20_29  and  C24_33 
REMARK   19  A    between atoms: C20_29  and  N6_40 
REMARK   20  A    between atoms: C21_30  and  C22_31 
REMARK   21  A    between atoms: C22_31  and  C23_32 
REMARK   22  A    between atoms: C23_32  and  O8_43 
REMARK   23  A    between atoms: C24_33  and  C25_34 
REMARK   24  A    between atoms: C28_38  and  O6_39 
REMARK   25  A    between atoms: C29_42  and  O8_43 
REMARK   26  A    between atoms: C29_42  and  C35_49 
ROOT
ATOM      1  C14 non d ame      -7.100  13.049  68.080  0.00  0.00     0.089 C 
ATOM      2  H20 non d ame      -6.401  12.880  67.261  0.00  0.00     0.087 H 
ENDROOT
BRANCH   1   3
ATOM      3  N4  non d ame      -7.324  14.484  68.177  0.00  0.00    -0.346 N 
ATOM      4  C10 non d ame      -6.274  15.453  67.694  0.00  0.00     0.241 C 
ATOM      5  O4  non d ame      -5.255  15.053  67.234  0.00  0.00    -0.271 OA
ATOM      6  H19 non d ame      -8.197  14.803  68.574  0.00  0.00     0.163 HD
BRANCH   4   7
ATOM      7  C9  non d ame      -6.524  16.934  67.797  0.00  0.00     0.092 C 
ATOM      8  H11 non d ame      -6.289  17.405  66.842  0.00  0.00     0.088 H 
BRANCH   7   9
ATOM      9  N3  non d ame      -7.947  17.173  68.057  0.00  0.00    -0.346 N 
ATOM     10  C7  non d ame      -8.820  17.573  66.981  0.00  0.00     0.240 C 
ATOM     11  O3  non d ame      -8.394  17.709  65.899  0.00  0.00    -0.271 OA
ATOM     12  H10 non d ame      -8.329  17.061  68.985  0.00  0.00     0.163 HD
BRANCH  10  13
ATOM     13  C6  non d ame     -10.332  17.828  67.265  0.00  0.00     0.086 C 
ATOM     14  H6  non d ame     -10.986  17.339  66.543  0.00  0.00     0.086 H 
BRANCH  13  15
ATOM     15  N2  non d ame     -10.667  17.278  68.568  0.00  0.00    -0.343 N 
ATOM     16  C5  non d ame     -11.356  15.988  68.651  0.00  0.00     0.273 C 
ATOM     17  O2  non d ame     -11.639  15.404  67.663  0.00  0.00    -0.266 OA
ATOM     18  H5  non d ame     -10.423  17.785  69.407  0.00  0.00     0.163 HD
BRANCH  16  19
ATOM     19  C4  non d ame     -11.714  15.393  70.022  0.00  0.00     0.154 A 
ATOM     20  C1  non d ame     -11.758  16.079  71.277  0.00  0.00    -0.017 A 
ATOM     21  C2  non d ame     -12.136  15.094  72.217  0.00  0.00     0.077 A 
ATOM     22  H1  non d ame     -11.549  17.130  71.476  0.00  0.00     0.091 H 
ATOM     23  O1  non d ame     -12.290  13.977  71.566  0.00  0.00    -0.218 OA
ATOM     24  N1  non d ame     -12.048  14.127  70.284  0.00  0.00    -0.123 NA
BRANCH  21  25
ATOM     25  C3  non d ame     -12.329  15.302  73.712  0.00  0.00    -0.029 C 
ATOM     26  H2  non d ame     -11.511  15.907  74.105  0.00  0.00     0.036 H 
ATOM     27  H3  non d ame     -13.275  15.814  73.888  0.00  0.00     0.036 H 
ATOM     28  H4  non d ame     -12.341  14.335  74.216  0.00  0.00     0.036 H 
ENDBRANCH  21  25
ENDBRANCH  16  19
ENDBRANCH  13  15
BRANCH  13  29
ATOM     29  C8  non d ame     -10.607  19.310  67.246  0.00  0.00    -0.049 C 
ATOM     30  H7  non d ame      -9.933  19.797  66.541  0.00  0.00     0.030 H 
ATOM     31  H8  non d ame     -11.640  19.484  66.939  0.00  0.00     0.030 H 
ATOM     32  H9  non d ame     -10.450  19.723  68.241  0.00  0.00     0.030 H 
ENDBRANCH  13  29
ENDBRANCH  10  13
ENDBRANCH   7   9
BRANCH   7  33
ATOM     33  C11 non d ame      -5.680  17.524  68.964  0.00  0.00    -0.033 C 
ATOM     34  H12 non d ame      -4.655  17.627  68.608  0.00  0.00     0.042 H 
BRANCH  33  35
ATOM     35  C12 non d ame      -6.182  18.945  69.368  0.00  0.00    -0.071 C 
ATOM     36  H13 non d ame      -5.567  19.330  70.182  0.00  0.00     0.028 H 
ATOM     37  H14 non d ame      -6.110  19.613  68.511  0.00  0.00     0.028 H 
ATOM     38  H15 non d ame      -7.221  18.883  69.693  0.00  0.00     0.028 H 
ENDBRANCH  33  35
BRANCH  33  39
ATOM     39  C13 non d ame      -5.670  16.556  70.191  0.00  0.00    -0.071 C 
ATOM     40  H16 non d ame      -4.643  16.281  70.429  0.00  0.00     0.028 H 
ATOM     41  H17 non d ame      -6.123  17.053  71.050  0.00  0.00     0.028 H 
ATOM     42  H18 non d ame      -6.240  15.659  69.949  0.00  0.00     0.028 H 
ENDBRANCH  33  39
ENDBRANCH   7  33
ENDBRANCH   4   7
ENDBRANCH   1   3
BRANCH   1  43
ATOM     43  C15 non d ame      -8.469  12.350  67.838  0.00  0.00     0.240 C 
ATOM     44  O5  non d ame      -9.446  12.758  68.380  0.00  0.00    -0.271 OA
ATOM     45  N6  non d ame      -8.565  11.176  66.925  0.00  0.00    -0.355 N 
ATOM     46  H46 non d ame      -7.743  10.822  66.456  0.00  0.00     0.162 HD
BRANCH  45  47
ATOM     47  C20 non d ame      -9.873  10.523  66.706  0.00  0.00     0.013 C 
ATOM     48  H30 non d ame     -10.625  11.085  67.259  0.00  0.00     0.072 H 
BRANCH  47  49
ATOM     49  C21 non d ame      -9.814   9.100  67.215  0.00  0.00    -0.038 C 
ATOM     50  H31 non d ame     -10.293   9.118  68.195  0.00  0.00     0.036 H 
ATOM     51  H32 non d ame     -10.230   8.485  66.416  0.00  0.00     0.036 H 
BRANCH  49  52
ATOM     52  C22 non d ame      -8.370   8.604  67.442  0.00  0.00     0.018 C 
ATOM     53  H33 non d ame      -8.363   7.560  67.124  0.00  0.00     0.048 H 
ATOM     54  H34 non d ame      -7.727   9.330  66.944  0.00  0.00     0.048 H 
BRANCH  52  55
ATOM     55  C23 non d ame      -7.938   8.599  68.934  0.00  0.00     0.259 C 
ATOM     56  O7  non d ame      -7.114   7.836  69.320  0.00  0.00    -0.265 OA
BRANCH  55  57
ATOM     57  O8  non d ame      -8.548   9.510  69.840  0.00  0.00    -0.317 OA
BRANCH  57  58
ATOM     58  C29 non d ame      -9.018   8.904  71.048  0.00  0.00     0.052 C 
ATOM     59  H47 non d ame      -8.898   7.831  70.907  0.00  0.00     0.082 H 
ATOM     60  H48 non d ame      -8.489   9.410  71.856  0.00  0.00     0.082 H 
BRANCH  58  61
ATOM     61  C35 non d ame     -10.532   9.216  71.183  0.00  0.00    -0.034 A 
ATOM     62  C30 non d ame     -11.109  10.216  70.407  0.00  0.00    -0.075 A 
ATOM     63  C31 non d ame     -12.469  10.496  70.528  0.00  0.00    -0.082 A 
ATOM     64  H49 non d ame     -10.496  10.780  69.706  0.00  0.00     0.084 H 
ATOM     65  C32 non d ame     -13.253   9.772  71.431  0.00  0.00    -0.083 A 
ATOM     66  H50 non d ame     -12.918  11.279  69.918  0.00  0.00     0.083 H 
ATOM     67  C33 non d ame     -12.673   8.777  72.205  0.00  0.00    -0.082 A 
ATOM     68  H51 non d ame     -14.317   9.985  71.532  0.00  0.00     0.083 H 
ATOM     69  C34 non d ame     -11.314   8.492  72.086  0.00  0.00    -0.075 A 
ATOM     70  H52 non d ame     -13.287   8.216  72.910  0.00  0.00     0.083 H 
ATOM     71  H53 non d ame     -10.865   7.708  72.697  0.00  0.00     0.084 H 
ENDBRANCH  58  61
ENDBRANCH  57  58
ENDBRANCH  55  57
ENDBRANCH  52  55
ENDBRANCH  49  52
ENDBRANCH  47  49
BRANCH  47  72
ATOM     72  C24 non d ame     -10.204  10.518  65.215  0.00  0.00    -0.039 C 
ATOM     73  H35 non d ame      -9.379   9.990  64.736  0.00  0.00     0.036 H 
ATOM     74  H36 non d ame     -11.218  10.123  65.143  0.00  0.00     0.036 H 
BRANCH  72  75
ATOM     75  C25 non d ame     -10.230  12.001  64.609  0.00  0.00    -0.001 C 
ATOM     76  C26 non d ame     -11.411  12.883  65.337  0.00  0.00    -0.035 C 
ATOM     77  C27 non d ame     -12.184  13.452  64.382  0.00  0.00     0.085 C 
ATOM     78  H38 non d ame     -12.101  12.222  65.862  0.00  0.00     0.036 H 
ATOM     79  H39 non d ame     -10.975  13.737  65.855  0.00  0.00     0.036 H 
ATOM     80  N5  non d ame     -11.838  12.779  63.076  0.00  0.00    -0.049 N 
ATOM     81  H40 non d ame     -13.211  13.204  64.649  0.00  0.00     0.075 H 
ATOM     82  H41 non d ame     -11.869  14.495  64.336  0.00  0.00     0.075 H 
ATOM     83  C28 non d ame     -10.459  11.982  63.338  0.00  0.00     0.193 C 
ATOM     84  H42 non d ame     -12.570  12.105  62.899  0.00  0.00     0.280 HD
ATOM     85  H43 non d ame     -11.661  13.517  62.410  0.00  0.00     0.280 HD
ATOM     86  H44 non d ame      -9.513  12.372  62.960  0.00  0.00     0.129 H 
ATOM     87  H37 non d ame      -9.237  12.445  64.562  0.00  0.00     0.046 H 
BRANCH  83  88
ATOM     88  O6  non d ame     -10.554  10.651  62.826  0.00  0.00    -0.369 OA
ATOM     89  H45 non d ame     -10.583  10.029  63.556  0.00  0.00     0.212 HD
ENDBRANCH  83  88
ENDBRANCH  72  75
ENDBRANCH  47  72
ENDBRANCH  45  47
ENDBRANCH   1  43
BRANCH   1  90
ATOM     90  C16 non d ame      -6.495  12.552  69.383  0.00  0.00    -0.035 C 
ATOM     91  H21 non d ame      -6.406  13.435  70.016  0.00  0.00     0.037 H 
ATOM     92  H22 non d ame      -7.126  11.720  69.695  0.00  0.00     0.037 H 
BRANCH  90  93
ATOM     93  C17 non d ame      -5.052  11.977  69.225  0.00  0.00    -0.059 C 
ATOM     94  H23 non d ame      -4.982  11.083  69.844  0.00  0.00     0.038 H 
BRANCH  93  95
ATOM     95  C18 non d ame      -4.741  11.562  67.752  0.00  0.00    -0.073 C 
ATOM     96  H24 non d ame      -3.678  11.705  67.551  0.00  0.00     0.028 H 
ATOM     97  H25 non d ame      -4.998  10.512  67.608  0.00  0.00     0.028 H 
ATOM     98  H26 non d ame      -5.326  12.176  67.069  0.00  0.00     0.028 H 
ENDBRANCH  93  95
BRANCH  93  99
ATOM     99  C19 non d ame      -4.008  12.970  69.743  0.00  0.00    -0.073 C 
ATOM    100  H27 non d ame      -4.474  13.643  70.463  0.00  0.00     0.028 H 
ATOM    101  H28 non d ame      -3.197  12.426  70.226  0.00  0.00     0.028 H 
ATOM    102  H29 non d ame      -3.612  13.549  68.909  0.00  0.00     0.028 H 
ENDBRANCH  93  99
ENDBRANCH  90  93
ENDBRANCH   1  90
TORSDOF 26
ENDMDL
MODEL 3
REMARK VINA RESULT:      -6.9      2.361      6.340
REMARK  26 active torsions:
REMARK  status: ('A' for Active; 'I' for Inactive)
REMARK    1  A    between atoms: C2_2  and  C3_3 
REMARK    2  A    between atoms: C4_6  and  C5_7 
REMARK       I    between atoms: C5_7  and  N2_9 
REMARK    3  A    between atoms: N2_9  and  C6_10 
REMARK    4  A    between atoms: C6_10  and  C7_11 
REMARK    5  A    between atoms: C6_10  and  C8_13 
REMARK       I    between atoms: C7_11  and  N3_14 
REMARK    6  A    between atoms: N3_14  and  C9_15 
REMARK    7  A    between atoms: C9_15  and  C10_16 
REMARK    8  A    between atoms: C9_15  and  C11_18 
REMARK       I    between atoms: C10_16  and  N4_21 
REMARK    9  A    between atoms: C11_18  and  C12_19 
REMARK   10  A    between atoms: C11_18  and  C13_20 
REMARK   11  A    between atoms: N4_21  and  C14_22 
REMARK   12  A    between atoms: C14_22  and  C15_23 
REMARK   13  A    between atoms: C14_22  and  C16_25 
REMARK       I    between atoms: C15_23  and  N6_40 
REMARK   14  A    between atoms: C16_25  and  C17_26 
REMARK   15  A    between atoms: C17_26  and  C18_27 
REMARK   16  A    between atoms: C17_26  and  C19_28 
REMARK   17  A    between atoms: C20_29  and  C21_30 
REMARK   18  A    between atoms: C20_29  and  C24_33 
REMARK   19  A    between atoms: C20_29  and  N6_40 
REMARK   20  A    between atoms: C21_30  and  C22_31 
REMARK   21  A    between atoms: C22_31  and  C23_32 
REMARK   22  A    between atoms: C23_32  and  O8_43 
REMARK   23  A    between atoms: C24_33  and  C25_34 
REMARK   24  A    between atoms: C28_38  and  O6_39 
REMARK   25  A    between atoms: C29_42  and  O8_43 
REMARK   26  A    between atoms: C29_42  and  C35_49 
ROOT
ATOM      1  C14 non d ame      -8.606  16.329  67.128  0.00  0.00     0.089 C 
ATOM      2  H20 non d ame      -9.153  16.506  68.055  0.00  0.00     0.087 H 
ENDROOT
BRANCH   1   3
ATOM      3  N4  non d ame      -7.581  15.335  67.407  0.00  0.00    -0.346 N 
ATOM      4  C10 non d ame      -7.450  14.741  68.787  0.00  0.00     0.241 C 
ATOM      5  O4  non d ame      -8.181  15.082  69.658  0.00  0.00    -0.271 OA
ATOM      6  H19 non d ame      -6.967  15.061  66.652  0.00  0.00     0.163 HD
BRANCH   4   7
ATOM      7  C9  non d ame      -6.387  13.710  69.057  0.00  0.00     0.092 C 
ATOM      8  H11 non d ame      -6.004  13.845  70.068  0.00  0.00     0.088 H 
BRANCH   7   9
ATOM      9  N3  non d ame      -6.978  12.370  68.994  0.00  0.00    -0.346 N 
ATOM     10  C7  non d ame      -6.656  11.391  70.003  0.00  0.00     0.240 C 
ATOM     11  O3  non d ame      -5.920  11.664  70.871  0.00  0.00    -0.271 OA
ATOM     12  H10 non d ame      -7.613  12.119  68.250  0.00  0.00     0.163 HD
BRANCH  10  13
ATOM     13  C6  non d ame      -7.286   9.966  69.928  0.00  0.00     0.086 C 
ATOM     14  H6  non d ame      -6.960   9.317  70.742  0.00  0.00     0.086 H 
BRANCH  13  15
ATOM     15  N2  non d ame      -8.730  10.083  70.043  0.00  0.00    -0.343 N 
ATOM     16  C5  non d ame      -9.448   9.239  71.001  0.00  0.00     0.273 C 
ATOM     17  O2  non d ame      -8.855   8.469  71.673  0.00  0.00    -0.266 OA
ATOM     18  H5  non d ame      -9.229  10.742  69.464  0.00  0.00     0.163 HD
BRANCH  16  19
ATOM     19  C4  non d ame     -10.975   9.354  71.134  0.00  0.00     0.154 A 
ATOM     20  C1  non d ame     -11.874   8.366  71.647  0.00  0.00    -0.017 A 
ATOM     21  C2  non d ame     -13.154   8.956  71.555  0.00  0.00     0.077 A 
ATOM     22  H1  non d ame     -11.635   7.372  72.027  0.00  0.00     0.091 H 
ATOM     23  O1  non d ame     -12.997  10.145  71.050  0.00  0.00    -0.218 OA
ATOM     24  N1  non d ame     -11.734  10.399  70.795  0.00  0.00    -0.123 NA
BRANCH  21  25
ATOM     25  C3  non d ame     -14.473   8.320  71.973  0.00  0.00    -0.029 C 
ATOM     26  H2  non d ame     -14.768   8.703  72.951  0.00  0.00     0.036 H 
ATOM     27  H3  non d ame     -15.242   8.563  71.240  0.00  0.00     0.036 H 
ATOM     28  H4  non d ame     -14.354   7.238  72.028  0.00  0.00     0.036 H 
ENDBRANCH  21  25
ENDBRANCH  16  19
ENDBRANCH  13  15
BRANCH  13  29
ATOM     29  C8  non d ame      -6.923   9.320  68.615  0.00  0.00    -0.049 C 
ATOM     30  H7  non d ame      -5.908   8.926  68.671  0.00  0.00     0.030 H 
ATOM     31  H8  non d ame      -7.618   8.505  68.408  0.00  0.00     0.030 H 
ATOM     32  H9  non d ame      -6.982  10.060  67.818  0.00  0.00     0.030 H 
ENDBRANCH  13  29
ENDBRANCH  10  13
ENDBRANCH   7   9
BRANCH   7  33
ATOM     33  C11 non d ame      -5.264  13.829  67.985  0.00  0.00    -0.033 C 
ATOM     34  H12 non d ame      -5.681  14.362  67.130  0.00  0.00     0.042 H 
BRANCH  33  35
ATOM     35  C12 non d ame      -4.058  14.665  68.516  0.00  0.00    -0.071 C 
ATOM     36  H13 non d ame      -4.408  15.649  68.830  0.00  0.00     0.028 H 
ATOM     37  H14 non d ame      -3.606  14.153  69.365  0.00  0.00     0.028 H 
ATOM     38  H15 non d ame      -3.318  14.777  67.724  0.00  0.00     0.028 H 
ENDBRANCH  33  35
BRANCH  33  39
ATOM     39  C13 non d ame      -4.804  12.418  67.497  0.00  0.00    -0.071 C 
ATOM     40  H16 non d ame      -5.676  11.778  67.363  0.00  0.00     0.028 H 
ATOM     41  H17 non d ame      -4.274  12.515  66.549  0.00  0.00     0.028 H 
ATOM     42  H18 non d ame      -4.141  11.976  68.241  0.00  0.00     0.028 H 
ENDBRANCH  33  39
ENDBRANCH   7  33
ENDBRANCH   4   7
ENDBRANCH   1   3
BRANCH   1  43
ATOM     43  C15 non d ame      -9.527  15.787  65.997  0.00  0.00     0.240 C 
ATOM     44  O5  non d ame     -10.051  16.547  65.247  0.00  0.00    -0.271 OA
ATOM     45  N6  non d ame      -9.749  14.322  65.843  0.00  0.00    -0.355 N 
ATOM     46  H46 non d ame      -9.306  13.667  66.472  0.00  0.00     0.162 HD
BRANCH  45  47
ATOM     47  C20 non d ame     -10.625  13.823  64.762  0.00  0.00     0.013 C 
ATOM     48  H30 non d ame     -10.804  14.645  64.069  0.00  0.00     0.072 H 
BRANCH  47  49
ATOM     49  C21 non d ame     -11.935  13.354  65.356  0.00  0.00    -0.038 C 
ATOM     50  H31 non d ame     -12.712  13.737  64.694  0.00  0.00     0.036 H 
ATOM     51  H32 non d ame     -11.823  12.279  65.502  0.00  0.00     0.036 H 
BRANCH  49  52
ATOM     52  C22 non d ame     -12.211  13.957  66.750  0.00  0.00     0.018 C 
ATOM     53  H33 non d ame     -11.503  14.779  66.862  0.00  0.00     0.048 H 
ATOM     54  H34 non d ame     -13.283  14.153  66.780  0.00  0.00     0.048 H 
BRANCH  52  55
ATOM     55  C23 non d ame     -11.920  12.980  67.923  0.00  0.00     0.259 C 
ATOM     56  O7  non d ame     -12.009  11.806  67.765  0.00  0.00    -0.265 OA
BRANCH  55  57
ATOM     57  O8  non d ame     -11.558  13.505  69.194  0.00  0.00    -0.317 OA
BRANCH  57  58
ATOM     58  C29 non d ame     -11.683  14.927  69.295  0.00  0.00     0.052 C 
ATOM     59  H47 non d ame     -10.664  15.314  69.286  0.00  0.00     0.082 H 
ATOM     60  H48 non d ame     -12.383  15.218  68.512  0.00  0.00     0.082 H 
BRANCH  58  61
ATOM     61  C35 non d ame     -12.321  15.255  70.671  0.00  0.00    -0.034 A 
ATOM     62  C30 non d ame     -11.553  15.837  71.674  0.00  0.00    -0.075 A 
ATOM     63  C31 non d ame     -12.126  16.132  72.910  0.00  0.00    -0.082 A 
ATOM     64  H49 non d ame     -10.502  16.061  71.492  0.00  0.00     0.084 H 
ATOM     65  C32 non d ame     -13.473  15.840  73.142  0.00  0.00    -0.083 A 
ATOM     66  H50 non d ame     -11.521  16.589  73.694  0.00  0.00     0.083 H 
ATOM     67  C33 non d ame     -14.235  15.257  72.139  0.00  0.00    -0.082 A 
ATOM     68  H51 non d ame     -13.929  16.068  74.106  0.00  0.00     0.083 H 
ATOM     69  C34 non d ame     -13.666  14.963  70.901  0.00  0.00    -0.075 A 
ATOM     70  H52 non d ame     -15.285  15.029  72.324  0.00  0.00     0.083 H 
ATOM     71  H53 non d ame     -14.273  14.505  70.118  0.00  0.00     0.084 H 
ENDBRANCH  58  61
ENDBRANCH  57  58
ENDBRANCH  55  57
ENDBRANCH  52  55
ENDBRANCH  49  52
ENDBRANCH  47  49
BRANCH  47  72
ATOM     72  C24 non d ame      -9.947  12.660  64.042  0.00  0.00    -0.039 C 
ATOM     73  H35 non d ame     -10.534  12.494  63.140  0.00  0.00     0.036 H 
ATOM     74  H36 non d ame      -8.896  12.940  63.964  0.00  0.00     0.036 H 
BRANCH  72  75
ATOM     75  C25 non d ame     -10.012  11.310  64.904  0.00  0.00    -0.001 C 
ATOM     76  C26 non d ame      -8.526  10.962  65.515  0.00  0.00    -0.035 C 
ATOM     77  C27 non d ame      -8.216   9.680  65.207  0.00  0.00     0.085 C 
ATOM     78  H38 non d ame      -7.763  11.540  64.993  0.00  0.00     0.036 H 
ATOM     79  H39 non d ame      -8.560  10.962  66.604  0.00  0.00     0.036 H 
ATOM     80  N5  non d ame      -9.209   9.224  64.165  0.00  0.00    -0.049 N 
ATOM     81  H40 non d ame      -7.223   9.719  64.758  0.00  0.00     0.075 H 
ATOM     82  H41 non d ame      -8.379   9.114  66.123  0.00  0.00     0.075 H 
ATOM     83  C28 non d ame     -10.401  10.313  64.181  0.00  0.00     0.193 C 
ATOM     84  H42 non d ame      -8.735   9.279  63.275  0.00  0.00     0.280 HD
ATOM     85  H43 non d ame      -9.577   8.341  64.487  0.00  0.00     0.280 HD
ATOM     86  H44 non d ame     -11.355  10.083  64.656  0.00  0.00     0.129 H 
ATOM     87  H37 non d ame     -10.849  11.307  65.602  0.00  0.00     0.046 H 
BRANCH  83  88
ATOM     88  O6  non d ame     -10.725  10.708  62.847  0.00  0.00    -0.369 OA
ATOM     89  H45 non d ame     -10.614  11.657  62.758  0.00  0.00     0.212 HD
ENDBRANCH  83  88
ENDBRANCH  72  75
ENDBRANCH  47  72
ENDBRANCH  45  47
ENDBRANCH   1  43
BRANCH   1  90
ATOM     90  C16 non d ame      -7.939  17.617  66.671  0.00  0.00    -0.035 C 
ATOM     91  H21 non d ame      -6.879  17.376  66.579  0.00  0.00     0.037 H 
ATOM     92  H22 non d ame      -8.502  17.939  65.796  0.00  0.00     0.037 H 
BRANCH  90  93
ATOM     93  C17 non d ame      -8.037  18.777  67.712  0.00  0.00    -0.059 C 
ATOM     94  H23 non d ame      -7.943  19.717  67.168  0.00  0.00     0.038 H 
BRANCH  93  95
ATOM     95  C18 non d ame      -9.411  18.790  68.453  0.00  0.00    -0.073 C 
ATOM     96  H24 non d ame      -9.562  19.763  68.922  0.00  0.00     0.028 H 
ATOM     97  H25 non d ame     -10.212  18.606  67.737  0.00  0.00     0.028 H 
ATOM     98  H26 non d ame      -9.421  18.013  69.216  0.00  0.00     0.028 H 
ENDBRANCH  93  95
BRANCH  93  99
ATOM     99  C19 non d ame      -6.879  18.714  68.711  0.00  0.00    -0.073 C 
ATOM    100  H27 non d ame      -6.264  19.608  68.611  0.00  0.00     0.028 H 
ATOM    101  H28 non d ame      -7.276  18.658  69.725  0.00  0.00     0.028 H 
ATOM    102  H29 non d ame      -6.273  17.832  68.509  0.00  0.00     0.028 H 
ENDBRANCH  93  99
ENDBRANCH  90  93
ENDBRANCH   1  90
TORSDOF 26
ENDMDL
MODEL 4
REMARK VINA RESULT:      -6.8      3.532      8.389
REMARK  26 active torsions:
REMARK  status: ('A' for Active; 'I' for Inactive)
REMARK    1  A    between atoms: C2_2  and  C3_3 
REMARK    2  A    between atoms: C4_6  and  C5_7 
REMARK       I    between atoms: C5_7  and  N2_9 
REMARK    3  A    between atoms: N2_9  and  C6_10 
REMARK    4  A    between atoms: C6_10  and  C7_11 
REMARK    5  A    between atoms: C6_10  and  C8_13 
REMARK       I    between atoms: C7_11  and  N3_14 
REMARK    6  A    between atoms: N3_14  and  C9_15 
REMARK    7  A    between atoms: C9_15  and  C10_16 
REMARK    8  A    between atoms: C9_15  and  C11_18 
REMARK       I    between atoms: C10_16  and  N4_21 
REMARK    9  A    between atoms: C11_18  and  C12_19 
REMARK   10  A    between atoms: C11_18  and  C13_20 
REMARK   11  A    between atoms: N4_21  and  C14_22 
REMARK   12  A    between atoms: C14_22  and  C15_23 
REMARK   13  A    between atoms: C14_22  and  C16_25 
REMARK       I    between atoms: C15_23  and  N6_40 
REMARK   14  A    between atoms: C16_25  and  C17_26 
REMARK   15  A    between atoms: C17_26  and  C18_27 
REMARK   16  A    between atoms: C17_26  and  C19_28 
REMARK   17  A    between atoms: C20_29  and  C21_30 
REMARK   18  A    between atoms: C20_29  and  C24_33 
REMARK   19  A    between atoms: C20_29  and  N6_40 
REMARK   20  A    between atoms: C21_30  and  C22_31 
REMARK   21  A    between atoms: C22_31  and  C23_32 
REMARK   22  A    between atoms: C23_32  and  O8_43 
REMARK   23  A    between atoms: C24_33  and  C25_34 
REMARK   24  A    between atoms: C28_38  and  O6_39 
REMARK   25  A    between atoms: C29_42  and  O8_43 
REMARK   26  A    between atoms: C29_42  and  C35_49 
ROOT
ATOM      1  C14 non d ame      -9.972   9.160  66.824  0.00  0.00     0.089 C 
ATOM      2  H20 non d ame     -10.967   8.717  66.873  0.00  0.00     0.087 H 
ENDROOT
BRANCH   1   3
ATOM      3  N4  non d ame     -10.131  10.556  66.444  0.00  0.00    -0.346 N 
ATOM      4  C10 non d ame     -11.262  11.376  67.012  0.00  0.00     0.241 C 
ATOM      5  O4  non d ame     -12.034  10.889  67.771  0.00  0.00    -0.271 OA
ATOM      6  H19 non d ame      -9.465  10.950  65.794  0.00  0.00     0.163 HD
BRANCH   4   7
ATOM      7  C9  non d ame     -11.409  12.820  66.612  0.00  0.00     0.092 C 
ATOM      8  H11 non d ame     -12.449  13.123  66.736  0.00  0.00     0.088 H 
BRANCH   7   9
ATOM      9  N3  non d ame     -10.606  13.659  67.507  0.00  0.00    -0.346 N 
ATOM     10  C7  non d ame     -11.236  14.362  68.597  0.00  0.00     0.240 C 
ATOM     11  O3  non d ame     -12.390  14.265  68.768  0.00  0.00    -0.271 OA
ATOM     12  H10 non d ame      -9.609  13.753  67.371  0.00  0.00     0.163 HD
BRANCH  10  13
ATOM     13  C6  non d ame     -10.376  15.255  69.543  0.00  0.00     0.086 C 
ATOM     14  H6  non d ame      -9.488  14.744  69.915  0.00  0.00     0.086 H 
BRANCH  13  15
ATOM     15  N2  non d ame      -9.908  16.414  68.800  0.00  0.00    -0.343 N 
ATOM     16  C5  non d ame      -8.621  16.352  68.104  0.00  0.00     0.273 C 
ATOM     17  O2  non d ame      -7.969  15.367  68.149  0.00  0.00    -0.266 OA
ATOM     18  H5  non d ame     -10.470  17.252  68.768  0.00  0.00     0.163 HD
BRANCH  16  19
ATOM     19  C4  non d ame      -8.115  17.568  67.312  0.00  0.00     0.154 A 
ATOM     20  C1  non d ame      -7.458  18.728  67.835  0.00  0.00    -0.017 A 
ATOM     21  C2  non d ame      -7.202  19.540  66.709  0.00  0.00     0.077 A 
ATOM     22  H1  non d ame      -7.206  18.946  68.874  0.00  0.00     0.091 H 
ATOM     23  O1  non d ame      -7.660  18.911  65.665  0.00  0.00    -0.218 OA
ATOM     24  N1  non d ame      -8.198  17.759  65.993  0.00  0.00    -0.123 NA
BRANCH  21  25
ATOM     25  C3  non d ame      -6.515  20.899  66.714  0.00  0.00    -0.029 C 
ATOM     26  H2  non d ame      -7.202  21.653  67.101  0.00  0.00     0.036 H 
ATOM     27  H3  non d ame      -5.630  20.855  67.349  0.00  0.00     0.036 H 
ATOM     28  H4  non d ame      -6.220  21.162  65.698  0.00  0.00     0.036 H 
ENDBRANCH  21  25
ENDBRANCH  16  19
ENDBRANCH  13  15
BRANCH  13  29
ATOM     29  C8  non d ame     -11.211  15.698  70.717  0.00  0.00    -0.049 C 
ATOM     30  H7  non d ame     -10.574  15.809  71.595  0.00  0.00     0.030 H 
ATOM     31  H8  non d ame     -11.682  16.655  70.487  0.00  0.00     0.030 H 
ATOM     32  H9  non d ame     -11.979  14.954  70.918  0.00  0.00     0.030 H 
ENDBRANCH  13  29
ENDBRANCH  10  13
ENDBRANCH   7   9
BRANCH   7  33
ATOM     33  C11 non d ame     -10.915  13.006  65.148  0.00  0.00    -0.033 C 
ATOM     34  H12 non d ame     -10.085  12.317  64.991  0.00  0.00     0.042 H 
BRANCH  33  35
ATOM     35  C12 non d ame     -12.030  12.638  64.120  0.00  0.00    -0.071 C 
ATOM     36  H13 non d ame     -12.473  11.680  64.393  0.00  0.00     0.028 H 
ATOM     37  H14 non d ame     -12.801  13.409  64.129  0.00  0.00     0.028 H 
ATOM     38  H15 non d ame     -11.597  12.570  63.123  0.00  0.00     0.028 H 
ENDBRANCH  33  35
BRANCH  33  39
ATOM     39  C13 non d ame     -10.388  14.459  64.916  0.00  0.00    -0.071 C 
ATOM     40  H16 non d ame      -9.603  14.680  65.638  0.00  0.00     0.028 H 
ATOM     41  H17 non d ame      -9.988  14.544  63.905  0.00  0.00     0.028 H 
ATOM     42  H18 non d ame     -11.208  15.166  65.043  0.00  0.00     0.028 H 
ENDBRANCH  33  39
ENDBRANCH   7  33
ENDBRANCH   4   7
ENDBRANCH   1   3
BRANCH   1  43
ATOM     43  C15 non d ame      -9.234   9.100  68.192  0.00  0.00     0.240 C 
ATOM     44  O5  non d ame      -8.226   9.711  68.347  0.00  0.00    -0.271 OA
ATOM     45  N6  non d ame      -9.789   8.289  69.313  0.00  0.00    -0.355 N 
ATOM     46  H46 non d ame     -10.646   7.769  69.194  0.00  0.00     0.162 HD
BRANCH  45  47
ATOM     47  C20 non d ame      -9.076   8.243  70.607  0.00  0.00     0.013 C 
ATOM     48  H30 non d ame      -8.211   8.903  70.537  0.00  0.00     0.072 H 
BRANCH  47  49
ATOM     49  C21 non d ame      -8.624   6.826  70.880  0.00  0.00    -0.038 C 
ATOM     50  H31 non d ame      -7.576   6.789  70.581  0.00  0.00     0.036 H 
ATOM     51  H32 non d ame      -8.904   6.622  71.914  0.00  0.00     0.036 H 
BRANCH  49  52
ATOM     52  C22 non d ame      -9.363   5.784  70.014  0.00  0.00     0.018 C 
ATOM     53  H33 non d ame      -9.767   5.051  70.714  0.00  0.00     0.048 H 
ATOM     54  H34 non d ame     -10.036   6.355  69.375  0.00  0.00     0.048 H 
BRANCH  52  55
ATOM     55  C23 non d ame      -8.431   4.991  69.057  0.00  0.00     0.259 C 
ATOM     56  O7  non d ame      -7.962   3.953  69.394  0.00  0.00    -0.265 OA
BRANCH  55  57
ATOM     57  O8  non d ame      -8.130   5.527  67.774  0.00  0.00    -0.317 OA
BRANCH  57  58
ATOM     58  C29 non d ame      -8.638   4.753  66.684  0.00  0.00     0.052 C 
ATOM     59  H47 non d ame      -8.391   3.717  66.917  0.00  0.00     0.082 H 
ATOM     60  H48 non d ame      -9.680   5.052  66.570  0.00  0.00     0.082 H 
BRANCH  58  61
ATOM     61  C35 non d ame      -7.866   5.165  65.403  0.00  0.00    -0.034 A 
ATOM     62  C30 non d ame      -8.530   5.239  64.183  0.00  0.00    -0.075 A 
ATOM     63  C31 non d ame      -7.837   5.610  63.032  0.00  0.00    -0.082 A 
ATOM     64  H49 non d ame      -9.593   5.007  64.129  0.00  0.00     0.084 H 
ATOM     65  C32 non d ame      -6.473   5.905  63.103  0.00  0.00    -0.083 A 
ATOM     66  H50 non d ame      -8.361   5.669  62.078  0.00  0.00     0.083 H 
ATOM     67  C33 non d ame      -5.813   5.827  64.322  0.00  0.00    -0.082 A 
ATOM     68  H51 non d ame      -5.923   6.196  62.208  0.00  0.00     0.083 H 
ATOM     69  C34 non d ame      -6.503   5.459  65.476  0.00  0.00    -0.075 A 
ATOM     70  H52 non d ame      -4.748   6.055  64.374  0.00  0.00     0.083 H 
ATOM     71  H53 non d ame      -5.977   5.401  66.430  0.00  0.00     0.084 H 
ENDBRANCH  58  61
ENDBRANCH  57  58
ENDBRANCH  55  57
ENDBRANCH  52  55
ENDBRANCH  49  52
ENDBRANCH  47  49
BRANCH  47  72
ATOM     72  C24 non d ame     -10.007   8.705  71.726  0.00  0.00    -0.039 C 
ATOM     73  H35 non d ame      -9.867   7.989  72.535  0.00  0.00     0.036 H 
ATOM     74  H36 non d ame      -9.772   9.758  71.883  0.00  0.00     0.036 H 
BRANCH  72  75
ATOM     75  C25 non d ame     -11.546   8.627  71.286  0.00  0.00    -0.001 C 
ATOM     76  C26 non d ame     -12.188  10.139  71.219  0.00  0.00    -0.035 C 
ATOM     77  C27 non d ame     -13.334  10.159  71.940  0.00  0.00     0.085 C 
ATOM     78  H38 non d ame     -11.543  10.842  71.745  0.00  0.00     0.036 H 
ATOM     79  H39 non d ame     -12.521  10.359  70.204  0.00  0.00     0.036 H 
ATOM     80  N5  non d ame     -13.363   8.892  72.759  0.00  0.00    -0.049 N 
ATOM     81  H40 non d ame     -13.242  11.014  72.610  0.00  0.00     0.075 H 
ATOM     82  H41 non d ame     -14.140  10.125  71.207  0.00  0.00     0.075 H 
ATOM     83  C28 non d ame     -12.236   7.926  72.123  0.00  0.00     0.193 C 
ATOM     84  H42 non d ame     -13.076   9.148  73.693  0.00  0.00     0.280 HD
ATOM     85  H43 non d ame     -14.268   8.472  72.607  0.00  0.00     0.280 HD
ATOM     86  H44 non d ame     -12.521   7.084  71.491  0.00  0.00     0.129 H 
ATOM     87  H37 non d ame     -11.694   7.986  70.417  0.00  0.00     0.046 H 
BRANCH  83  88
ATOM     88  O6  non d ame     -11.424   7.369  73.158  0.00  0.00    -0.369 OA
ATOM     89  H45 non d ame     -10.498   7.518  72.954  0.00  0.00     0.212 HD
ENDBRANCH  83  88
ENDBRANCH  72  75
ENDBRANCH  47  72
ENDBRANCH  45  47
ENDBRANCH   1  43
BRANCH   1  90
ATOM     90  C16 non d ame      -9.143   8.448  65.765  0.00  0.00    -0.035 C 
ATOM     91  H21 non d ame      -8.396   7.880  66.318  0.00  0.00     0.037 H 
ATOM     92  H22 non d ame      -9.865   7.930  65.135  0.00  0.00     0.037 H 
BRANCH  90  93
ATOM     93  C17 non d ame      -8.356   9.419  64.829  0.00  0.00    -0.059 C 
ATOM     94  H23 non d ame      -8.670  10.435  65.067  0.00  0.00     0.038 H 
BRANCH  93  95
ATOM     95  C18 non d ame      -6.813   9.333  65.054  0.00  0.00    -0.073 C 
ATOM     96  H24 non d ame      -6.469   8.322  64.831  0.00  0.00     0.028 H 
ATOM     97  H25 non d ame      -6.310  10.040  64.395  0.00  0.00     0.028 H 
ATOM     98  H26 non d ame      -6.582   9.575  66.091  0.00  0.00     0.028 H 
ENDBRANCH  93  95
BRANCH  93  99
ATOM     99  C19 non d ame      -8.708   9.167  63.361  0.00  0.00    -0.073 C 
ATOM    100  H27 non d ame      -9.785   9.035  63.263  0.00  0.00     0.028 H 
ATOM    101  H28 non d ame      -8.390  10.019  62.760  0.00  0.00     0.028 H 
ATOM    102  H29 non d ame      -8.199   8.268  63.014  0.00  0.00     0.028 H 
ENDBRANCH  93  99
ENDBRANCH  90  93
ENDBRANCH   1  90
TORSDOF 26
ENDMDL
MODEL 5
REMARK VINA RESULT:      -6.8      3.609      8.243
REMARK  26 active torsions:
REMARK  status: ('A' for Active; 'I' for Inactive)
REMARK    1  A    between atoms: C2_2  and  C3_3 
REMARK    2  A    between atoms: C4_6  and  C5_7 
REMARK       I    between atoms: C5_7  and  N2_9 
REMARK    3  A    between atoms: N2_9  and  C6_10 
REMARK    4  A    between atoms: C6_10  and  C7_11 
REMARK    5  A    between atoms: C6_10  and  C8_13 
REMARK       I    between atoms: C7_11  and  N3_14 
REMARK    6  A    between atoms: N3_14  and  C9_15 
REMARK    7  A    between atoms: C9_15  and  C10_16 
REMARK    8  A    between atoms: C9_15  and  C11_18 
REMARK       I    between atoms: C10_16  and  N4_21 
REMARK    9  A    between atoms: C11_18  and  C12_19 
REMARK   10  A    between atoms: C11_18  and  C13_20 
REMARK   11  A    between atoms: N4_21  and  C14_22 
REMARK   12  A    between atoms: C14_22  and  C15_23 
REMARK   13  A    between atoms: C14_22  and  C16_25 
REMARK       I    between atoms: C15_23  and  N6_40 
REMARK   14  A    between atoms: C16_25  and  C17_26 
REMARK   15  A    between atoms: C17_26  and  C18_27 
REMARK   16  A    between atoms: C17_26  and  C19_28 
REMARK   17  A    between atoms: C20_29  and  C21_30 
REMARK   18  A    between atoms: C20_29  and  C24_33 
REMARK   19  A    between atoms: C20_29  and  N6_40 
REMARK   20  A    between atoms: C21_30  and  C22_31 
REMARK   21  A    between atoms: C22_31  and  C23_32 
REMARK   22  A    between atoms: C23_32  and  O8_43 
REMARK   23  A    between atoms: C24_33  and  C25_34 
REMARK   24  A    between atoms: C28_38  and  O6_39 
REMARK   25  A    between atoms: C29_42  and  O8_43 
REMARK   26  A    between atoms: C29_42  and  C35_49 
ROOT
ATOM      1  C14 non d ame      -7.274   9.835  67.994  0.00  0.00     0.089 C 
ATOM      2  H20 non d ame      -6.238   9.617  67.735  0.00  0.00     0.087 H 
ENDROOT
BRANCH   1   3
ATOM      3  N4  non d ame      -8.067   9.700  66.781  0.00  0.00    -0.346 N 
ATOM      4  C10 non d ame      -7.457  10.000  65.435  0.00  0.00     0.241 C 
ATOM      5  O4  non d ame      -6.325  10.351  65.354  0.00  0.00    -0.271 OA
ATOM      6  H19 non d ame      -9.028   9.402  66.872  0.00  0.00     0.163 HD
BRANCH   4   7
ATOM      7  C9  non d ame      -8.289   9.850  64.189  0.00  0.00     0.092 C 
ATOM      8  H11 non d ame      -8.880   8.936  64.260  0.00  0.00     0.088 H 
BRANCH   7   9
ATOM      9  N3  non d ame      -9.233  10.968  64.094  0.00  0.00    -0.346 N 
ATOM     10  C7  non d ame     -10.462  10.941  64.848  0.00  0.00     0.240 C 
ATOM     11  O3  non d ame     -10.709  10.026  65.535  0.00  0.00    -0.271 OA
ATOM     12  H10 non d ame      -9.034  11.763  63.504  0.00  0.00     0.163 HD
BRANCH  10  13
ATOM     13  C6  non d ame     -11.463  12.132  64.739  0.00  0.00     0.086 C 
ATOM     14  H6  non d ame     -12.259  12.085  65.483  0.00  0.00     0.086 H 
BRANCH  13  15
ATOM     15  N2  non d ame     -10.746  13.374  64.977  0.00  0.00    -0.343 N 
ATOM     16  C5  non d ame     -11.411  14.466  65.691  0.00  0.00     0.273 C 
ATOM     17  O2  non d ame     -12.524  14.336  66.068  0.00  0.00    -0.266 OA
ATOM     18  H5  non d ame      -9.796  13.477  64.650  0.00  0.00     0.163 HD
BRANCH  16  19
ATOM     19  C4  non d ame     -10.664  15.783  65.952  0.00  0.00     0.154 A 
ATOM     20  C1  non d ame      -9.928  16.142  67.126  0.00  0.00    -0.017 A 
ATOM     21  C2  non d ame      -9.441  17.442  66.867  0.00  0.00     0.077 A 
ATOM     22  H1  non d ame      -9.772  15.550  68.029  0.00  0.00     0.091 H 
ATOM     23  O1  non d ame      -9.852  17.780  65.679  0.00  0.00    -0.218 OA
ATOM     24  N1  non d ame     -10.569  16.828  65.126  0.00  0.00    -0.123 NA
BRANCH  21  25
ATOM     25  C3  non d ame      -8.589  18.289  67.802  0.00  0.00    -0.029 C 
ATOM     26  H2  non d ame      -9.236  18.830  68.494  0.00  0.00     0.036 H 
ATOM     27  H3  non d ame      -7.916  17.643  68.365  0.00  0.00     0.036 H 
ATOM     28  H4  non d ame      -8.005  19.001  67.219  0.00  0.00     0.036 H 
ENDBRANCH  21  25
ENDBRANCH  16  19
ENDBRANCH  13  15
BRANCH  13  29
ATOM     29  C8  non d ame     -12.082  12.150  63.365  0.00  0.00    -0.049 C 
ATOM     30  H7  non d ame     -11.498  11.518  62.695  0.00  0.00     0.030 H 
ATOM     31  H8  non d ame     -13.104  11.771  63.422  0.00  0.00     0.030 H 
ATOM     32  H9  non d ame     -12.093  13.170  62.984  0.00  0.00     0.030 H 
ENDBRANCH  13  29
ENDBRANCH  10  13
ENDBRANCH   7   9
BRANCH   7  33
ATOM     33  C11 non d ame      -7.360   9.850  62.940  0.00  0.00    -0.033 C 
ATOM     34  H12 non d ame      -6.359  10.119  63.276  0.00  0.00     0.042 H 
BRANCH  33  35
ATOM     35  C12 non d ame      -7.274   8.432  62.295  0.00  0.00    -0.071 C 
ATOM     36  H13 non d ame      -6.228   8.141  62.197  0.00  0.00     0.028 H 
ATOM     37  H14 non d ame      -7.793   7.713  62.929  0.00  0.00     0.028 H 
ATOM     38  H15 non d ame      -7.741   8.452  61.311  0.00  0.00     0.028 H 
ENDBRANCH  33  35
BRANCH  33  39
ATOM     39  C13 non d ame      -7.824  10.919  61.899  0.00  0.00    -0.071 C 
ATOM     40  H16 non d ame      -8.910  11.009  61.930  0.00  0.00     0.028 H 
ATOM     41  H17 non d ame      -7.372  11.881  62.138  0.00  0.00     0.028 H 
ATOM     42  H18 non d ame      -7.514  10.610  60.901  0.00  0.00     0.028 H 
ENDBRANCH  33  39
ENDBRANCH   7  33
ENDBRANCH   4   7
ENDBRANCH   1   3
BRANCH   1  43
ATOM     43  C15 non d ame      -7.833   8.852  69.062  0.00  0.00     0.240 C 
ATOM     44  O5  non d ame      -7.099   8.373  69.866  0.00  0.00    -0.271 OA
ATOM     45  N6  non d ame      -9.285   8.515  69.090  0.00  0.00    -0.355 N 
ATOM     46  H46 non d ame      -9.918   8.919  68.416  0.00  0.00     0.162 HD
BRANCH  45  47
ATOM     47  C20 non d ame      -9.800   7.580  70.114  0.00  0.00     0.013 C 
ATOM     48  H30 non d ame      -8.965   6.974  70.465  0.00  0.00     0.072 H 
BRANCH  47  49
ATOM     49  C21 non d ame     -10.856   6.693  69.494  0.00  0.00    -0.038 C 
ATOM     50  H31 non d ame     -10.645   5.686  69.856  0.00  0.00     0.036 H 
ATOM     51  H32 non d ame     -11.811   7.167  69.724  0.00  0.00     0.036 H 
BRANCH  49  52
ATOM     52  C22 non d ame     -10.760   6.632  67.954  0.00  0.00     0.018 C 
ATOM     53  H33 non d ame     -11.782   6.741  67.589  0.00  0.00     0.048 H 
ATOM     54  H34 non d ame     -10.001   7.364  67.677  0.00  0.00     0.048 H 
BRANCH  52  55
ATOM     55  C23 non d ame     -10.256   5.265  67.412  0.00  0.00     0.259 C 
ATOM     56  O7  non d ame      -9.722   4.490  68.136  0.00  0.00    -0.265 OA
BRANCH  55  57
ATOM     57  O8  non d ame     -10.428   4.955  66.035  0.00  0.00    -0.317 OA
BRANCH  57  58
ATOM     58  C29 non d ame      -9.262   5.179  65.236  0.00  0.00     0.052 C 
ATOM     59  H47 non d ame      -9.195   6.259  65.108  0.00  0.00     0.082 H 
ATOM     60  H48 non d ame      -8.457   4.638  65.733  0.00  0.00     0.082 H 
BRANCH  58  61
ATOM     61  C35 non d ame      -9.503   4.533  63.846  0.00  0.00    -0.034 A 
ATOM     62  C30 non d ame      -8.683   4.864  62.773  0.00  0.00    -0.075 A 
ATOM     63  C31 non d ame      -8.898   4.284  61.524  0.00  0.00    -0.082 A 
ATOM     64  H49 non d ame      -7.871   5.578  62.910  0.00  0.00     0.084 H 
ATOM     65  C32 non d ame      -9.942   3.371  61.350  0.00  0.00    -0.083 A 
ATOM     66  H50 non d ame      -8.253   4.545  60.686  0.00  0.00     0.083 H 
ATOM     67  C33 non d ame     -10.760   3.045  62.423  0.00  0.00    -0.082 A 
ATOM     68  H51 non d ame     -10.118   2.913  60.377  0.00  0.00     0.083 H 
ATOM     69  C34 non d ame     -10.546   3.621  63.674  0.00  0.00    -0.075 A 
ATOM     70  H52 non d ame     -11.575   2.334  62.283  0.00  0.00     0.083 H 
ATOM     71  H53 non d ame     -11.193   3.360  64.512  0.00  0.00     0.084 H 
ENDBRANCH  58  61
ENDBRANCH  57  58
ENDBRANCH  55  57
ENDBRANCH  52  55
ENDBRANCH  49  52
ENDBRANCH  47  49
BRANCH  47  72
ATOM     72  C24 non d ame     -10.411   8.367  71.271  0.00  0.00    -0.039 C 
ATOM     73  H35 non d ame     -10.421   7.679  72.116  0.00  0.00     0.036 H 
ATOM     74  H36 non d ame      -9.836   9.292  71.329  0.00  0.00     0.036 H 
BRANCH  72  75
ATOM     75  C25 non d ame     -11.932   8.774  70.974  0.00  0.00    -0.001 C 
ATOM     76  C26 non d ame     -12.032  10.386  70.669  0.00  0.00    -0.035 C 
ATOM     77  C27 non d ame     -12.992  10.922  71.459  0.00  0.00     0.085 C 
ATOM     78  H38 non d ame     -11.122  10.886  71.001  0.00  0.00     0.036 H 
ATOM     79  H39 non d ame     -12.408  10.554  69.660  0.00  0.00     0.036 H 
ATOM     80  N5  non d ame     -13.331   9.887  72.505  0.00  0.00    -0.049 N 
ATOM     81  H40 non d ame     -12.527  11.779  71.946  0.00  0.00     0.075 H 
ATOM     82  H41 non d ame     -13.856  11.065  70.810  0.00  0.00     0.075 H 
ATOM     83  C28 non d ame     -12.694   8.499  71.980  0.00  0.00     0.193 C 
ATOM     84  H42 non d ame     -12.848  10.163  73.348  0.00  0.00     0.280 HD
ATOM     85  H43 non d ame     -14.337   9.798  72.506  0.00  0.00     0.280 HD
ATOM     86  H44 non d ame     -13.329   7.728  71.544  0.00  0.00     0.129 H 
ATOM     87  H37 non d ame     -12.406   8.103  70.257  0.00  0.00     0.046 H 
BRANCH  83  88
ATOM     88  O6  non d ame     -11.981   7.854  73.036  0.00  0.00    -0.369 OA
ATOM     89  H45 non d ame     -12.605   7.452  73.645  0.00  0.00     0.212 HD
ENDBRANCH  83  88
ENDBRANCH  72  75
ENDBRANCH  47  72
ENDBRANCH  45  47
ENDBRANCH   1  43
BRANCH   1  90
ATOM     90  C16 non d ame      -7.387  11.263  68.504  0.00  0.00    -0.035 C 
ATOM     91  H21 non d ame      -7.855  11.182  69.486  0.00  0.00     0.037 H 
ATOM     92  H22 non d ame      -6.386  11.683  68.412  0.00  0.00     0.037 H 
BRANCH  90  93
ATOM     93  C17 non d ame      -8.326  12.165  67.642  0.00  0.00    -0.059 C 
ATOM     94  H23 non d ame      -8.512  11.644  66.702  0.00  0.00     0.038 H 
BRANCH  93  95
ATOM     95  C18 non d ame      -9.704  12.412  68.332  0.00  0.00    -0.073 C 
ATOM     96  H24 non d ame      -9.620  13.251  69.023  0.00  0.00     0.028 H 
ATOM     97  H25 non d ame     -10.454  12.641  67.574  0.00  0.00     0.028 H 
ATOM     98  H26 non d ame     -10.003  11.518  68.880  0.00  0.00     0.028 H 
ENDBRANCH  93  95
BRANCH  93  99
ATOM     99  C19 non d ame      -7.643  13.491  67.296  0.00  0.00    -0.073 C 
ATOM    100  H27 non d ame      -8.265  14.319  67.638  0.00  0.00     0.028 H 
ATOM    101  H28 non d ame      -6.671  13.538  67.788  0.00  0.00     0.028 H 
ATOM    102  H29 non d ame      -7.509  13.560  66.217  0.00  0.00     0.028 H 
ENDBRANCH  93  99
ENDBRANCH  90  93
ENDBRANCH   1  90
TORSDOF 26
ENDMDL
MODEL 6
REMARK VINA RESULT:      -6.7      3.023      7.153
REMARK  26 active torsions:
REMARK  status: ('A' for Active; 'I' for Inactive)
REMARK    1  A    between atoms: C2_2  and  C3_3 
REMARK    2  A    between atoms: C4_6  and  C5_7 
REMARK       I    between atoms: C5_7  and  N2_9 
REMARK    3  A    between atoms: N2_9  and  C6_10 
REMARK    4  A    between atoms: C6_10  and  C7_11 
REMARK    5  A    between atoms: C6_10  and  C8_13 
REMARK       I    between atoms: C7_11  and  N3_14 
REMARK    6  A    between atoms: N3_14  and  C9_15 
REMARK    7  A    between atoms: C9_15  and  C10_16 
REMARK    8  A    between atoms: C9_15  and  C11_18 
REMARK       I    between atoms: C10_16  and  N4_21 
REMARK    9  A    between atoms: C11_18  and  C12_19 
REMARK   10  A    between atoms: C11_18  and  C13_20 
REMARK   11  A    between atoms: N4_21  and  C14_22 
REMARK   12  A    between atoms: C14_22  and  C15_23 
REMARK   13  A    between atoms: C14_22  and  C16_25 
REMARK       I    between atoms: C15_23  and  N6_40 
REMARK   14  A    between atoms: C16_25  and  C17_26 
REMARK   15  A    between atoms: C17_26  and  C18_27 
REMARK   16  A    between atoms: C17_26  and  C19_28 
REMARK   17  A    between atoms: C20_29  and  C21_30 
REMARK   18  A    between atoms: C20_29  and  C24_33 
REMARK   19  A    between atoms: C20_29  and  N6_40 
REMARK   20  A    between atoms: C21_30  and  C22_31 
REMARK   21  A    between atoms: C22_31  and  C23_32 
REMARK   22  A    between atoms: C23_32  and  O8_43 
REMARK   23  A    between atoms: C24_33  and  C25_34 
REMARK   24  A    between atoms: C28_38  and  O6_39 
REMARK   25  A    between atoms: C29_42  and  O8_43 
REMARK   26  A    between atoms: C29_42  and  C35_49 
ROOT
ATOM      1  C14 non d ame     -10.678  14.812  66.821  0.00  0.00     0.089 C 
ATOM      2  H20 non d ame     -11.683  15.211  66.685  0.00  0.00     0.087 H 
ENDROOT
BRANCH   1   3
ATOM      3  N4  non d ame      -9.782  15.941  67.021  0.00  0.00    -0.346 N 
ATOM      4  C10 non d ame     -10.195  17.095  67.900  0.00  0.00     0.241 C 
ATOM      5  O4  non d ame     -11.255  17.093  68.434  0.00  0.00    -0.271 OA
ATOM      6  H19 non d ame      -8.885  15.924  66.555  0.00  0.00     0.163 HD
BRANCH   4   7
ATOM      7  C9  non d ame      -9.253  18.252  68.101  0.00  0.00     0.092 C 
ATOM      8  H11 non d ame      -9.443  18.705  69.073  0.00  0.00     0.088 H 
BRANCH   7   9
ATOM      9  N3  non d ame      -7.871  17.762  68.116  0.00  0.00    -0.346 N 
ATOM     10  C7  non d ame      -6.867  18.455  68.884  0.00  0.00     0.240 C 
ATOM     11  O3  non d ame      -7.154  19.412  69.496  0.00  0.00    -0.271 OA
ATOM     12  H10 non d ame      -7.609  16.939  67.592  0.00  0.00     0.163 HD
BRANCH  10  13
ATOM     13  C6  non d ame      -5.399  17.930  68.893  0.00  0.00     0.086 C 
ATOM     14  H6  non d ame      -4.749  18.504  69.554  0.00  0.00     0.086 H 
BRANCH  13  15
ATOM     15  N2  non d ame      -5.391  16.563  69.387  0.00  0.00    -0.343 N 
ATOM     16  C5  non d ame      -5.139  16.311  70.808  0.00  0.00     0.273 C 
ATOM     17  O2  non d ame      -4.942  17.214  71.544  0.00  0.00    -0.266 OA
ATOM     18  H5  non d ame      -5.557  15.797  68.751  0.00  0.00     0.163 HD
BRANCH  16  19
ATOM     19  C4  non d ame      -5.130  14.871  71.345  0.00  0.00     0.154 A 
ATOM     20  C1  non d ame      -4.293  14.338  72.376  0.00  0.00    -0.017 A 
ATOM     21  C2  non d ame      -4.674  12.983  72.491  0.00  0.00     0.077 A 
ATOM     22  H1  non d ame      -3.525  14.855  72.953  0.00  0.00     0.091 H 
ATOM     23  O1  non d ame      -5.622  12.772  71.623  0.00  0.00    -0.218 OA
ATOM     24  N1  non d ame      -5.904  13.859  70.942  0.00  0.00    -0.123 NA
BRANCH  21  25
ATOM     25  C3  non d ame      -4.088  11.959  73.452  0.00  0.00    -0.029 C 
ATOM     26  H2  non d ame      -4.045  12.385  74.456  0.00  0.00     0.036 H 
ATOM     27  H3  non d ame      -4.716  11.069  73.463  0.00  0.00     0.036 H 
ATOM     28  H4  non d ame      -3.082  11.689  73.129  0.00  0.00     0.036 H 
ENDBRANCH  21  25
ENDBRANCH  16  19
ENDBRANCH  13  15
BRANCH  13  29
ATOM     29  C8  non d ame      -4.836  17.977  67.496  0.00  0.00    -0.049 C 
ATOM     30  H7  non d ame      -4.323  18.926  67.342  0.00  0.00     0.030 H 
ATOM     31  H8  non d ame      -4.130  17.156  67.361  0.00  0.00     0.030 H 
ATOM     32  H9  non d ame      -5.646  17.881  66.774  0.00  0.00     0.030 H 
ENDBRANCH  13  29
ENDBRANCH  10  13
ENDBRANCH   7   9
BRANCH   7  33
ATOM     33  C11 non d ame      -9.426  19.271  66.936  0.00  0.00    -0.033 C 
ATOM     34  H12 non d ame     -10.245  18.917  66.310  0.00  0.00     0.042 H 
BRANCH  33  35
ATOM     35  C12 non d ame      -9.821  20.683  67.470  0.00  0.00    -0.071 C 
ATOM     36  H13 non d ame     -10.371  20.577  68.405  0.00  0.00     0.028 H 
ATOM     37  H14 non d ame      -8.919  21.270  67.645  0.00  0.00     0.028 H 
ATOM     38  H15 non d ame     -10.445  21.188  66.734  0.00  0.00     0.028 H 
ENDBRANCH  33  35
BRANCH  33  39
ATOM     39  C13 non d ame      -8.138  19.338  66.055  0.00  0.00    -0.071 C 
ATOM     40  H16 non d ame      -7.751  20.356  66.054  0.00  0.00     0.028 H 
ATOM     41  H17 non d ame      -7.384  18.663  66.462  0.00  0.00     0.028 H 
ATOM     42  H18 non d ame      -8.380  19.040  65.036  0.00  0.00     0.028 H 
ENDBRANCH  33  39
ENDBRANCH   7  33
ENDBRANCH   4   7
ENDBRANCH   1   3
BRANCH   1  43
ATOM     43  C15 non d ame     -10.579  13.876  68.059  0.00  0.00     0.240 C 
ATOM     44  O5  non d ame      -9.513  13.590  68.500  0.00  0.00    -0.271 OA
ATOM     45  N6  non d ame     -11.814  13.342  68.701  0.00  0.00    -0.355 N 
ATOM     46  H46 non d ame     -12.726  13.582  68.338  0.00  0.00     0.162 HD
BRANCH  45  47
ATOM     47  C20 non d ame     -11.703  12.454  69.878  0.00  0.00     0.013 C 
ATOM     48  H30 non d ame     -10.671  12.485  70.225  0.00  0.00     0.072 H 
BRANCH  47  49
ATOM     49  C21 non d ame     -12.072  11.044  69.478  0.00  0.00    -0.038 C 
ATOM     50  H31 non d ame     -12.205  10.497  70.412  0.00  0.00     0.036 H 
ATOM     51  H32 non d ame     -12.904  11.144  68.780  0.00  0.00     0.036 H 
BRANCH  49  52
ATOM     52  C22 non d ame     -10.943  10.325  68.707  0.00  0.00     0.018 C 
ATOM     53  H33 non d ame     -11.418   9.481  68.205  0.00  0.00     0.048 H 
ATOM     54  H34 non d ame     -10.446  11.099  68.121  0.00  0.00     0.048 H 
BRANCH  52  55
ATOM     55  C23 non d ame      -9.849   9.715  69.627  0.00  0.00     0.259 C 
ATOM     56  O7  non d ame      -8.810  10.270  69.777  0.00  0.00    -0.265 OA
BRANCH  55  57
ATOM     57  O8  non d ame     -10.097   8.474  70.277  0.00  0.00    -0.317 OA
BRANCH  57  58
ATOM     58  C29 non d ame     -10.484   8.602  71.648  0.00  0.00     0.052 C 
ATOM     59  H47 non d ame      -9.951   7.815  72.180  0.00  0.00     0.082 H 
ATOM     60  H48 non d ame     -10.312   9.647  71.907  0.00  0.00     0.082 H 
BRANCH  58  61
ATOM     61  C35 non d ame     -12.006   8.317  71.745  0.00  0.00    -0.034 A 
ATOM     62  C30 non d ame     -12.856   9.256  72.319  0.00  0.00    -0.075 A 
ATOM     63  C31 non d ame     -14.223   9.000  72.406  0.00  0.00    -0.082 A 
ATOM     64  H49 non d ame     -12.450  10.192  72.701  0.00  0.00     0.084 H 
ATOM     65  C32 non d ame     -14.740   7.797  71.917  0.00  0.00    -0.083 A 
ATOM     66  H50 non d ame     -14.886   9.739  72.855  0.00  0.00     0.083 H 
ATOM     67  C33 non d ame     -13.888   6.861  71.347  0.00  0.00    -0.082 A 
ATOM     68  H51 non d ame     -15.808   7.589  71.981  0.00  0.00     0.083 H 
ATOM     69  C34 non d ame     -12.521   7.114  71.256  0.00  0.00    -0.075 A 
ATOM     70  H52 non d ame     -14.294   5.922  70.969  0.00  0.00     0.083 H 
ATOM     71  H53 non d ame     -11.858   6.374  70.806  0.00  0.00     0.084 H 
ENDBRANCH  58  61
ENDBRANCH  57  58
ENDBRANCH  55  57
ENDBRANCH  52  55
ENDBRANCH  49  52
ENDBRANCH  47  49
BRANCH  47  72
ATOM     72  C24 non d ame     -12.647  12.935  70.978  0.00  0.00    -0.039 C 
ATOM     73  H35 non d ame     -13.606  12.462  70.766  0.00  0.00     0.036 H 
ATOM     74  H36 non d ame     -12.132  12.725  71.916  0.00  0.00     0.036 H 
BRANCH  72  75
ATOM     75  C25 non d ame     -12.878  14.519  70.910  0.00  0.00    -0.001 C 
ATOM     76  C26 non d ame     -11.553  15.304  71.486  0.00  0.00    -0.035 C 
ATOM     77  C27 non d ame     -11.947  16.198  72.423  0.00  0.00     0.085 C 
ATOM     78  H38 non d ame     -10.922  14.612  72.044  0.00  0.00     0.036 H 
ATOM     79  H39 non d ame     -11.118  15.928  70.705  0.00  0.00     0.036 H 
ATOM     80  N5  non d ame     -13.378  15.869  72.773  0.00  0.00    -0.049 N 
ATOM     81  H40 non d ame     -11.316  16.009  73.292  0.00  0.00     0.075 H 
ATOM     82  H41 non d ame     -11.919  17.169  71.929  0.00  0.00     0.075 H 
ATOM     83  C28 non d ame     -13.901  14.873  71.615  0.00  0.00     0.193 C 
ATOM     84  H42 non d ame     -13.349  15.359  73.645  0.00  0.00     0.280 HD
ATOM     85  H43 non d ame     -13.895  16.733  72.711  0.00  0.00     0.280 HD
ATOM     86  H44 non d ame     -14.566  15.237  70.831  0.00  0.00     0.129 H 
ATOM     87  H37 non d ame     -13.262  14.839  69.942  0.00  0.00     0.046 H 
BRANCH  83  88
ATOM     88  O6  non d ame     -14.571  13.752  72.194  0.00  0.00    -0.369 OA
ATOM     89  H45 non d ame     -14.377  12.964  71.682  0.00  0.00     0.212 HD
ENDBRANCH  83  88
ENDBRANCH  72  75
ENDBRANCH  47  72
ENDBRANCH  45  47
ENDBRANCH   1  43
BRANCH   1  90
ATOM     90  C16 non d ame     -10.252  14.055  65.572  0.00  0.00    -0.035 C 
ATOM     91  H21 non d ame      -9.600  14.739  65.028  0.00  0.00     0.037 H 
ATOM     92  H22 non d ame      -9.864  13.102  65.931  0.00  0.00     0.037 H 
BRANCH  90  93
ATOM     93  C17 non d ame     -11.435  13.716  64.611  0.00  0.00    -0.059 C 
ATOM     94  H23 non d ame     -11.009  13.439  63.647  0.00  0.00     0.038 H 
BRANCH  93  95
ATOM     95  C18 non d ame     -12.284  12.509  65.122  0.00  0.00    -0.073 C 
ATOM     96  H24 non d ame     -12.748  12.006  64.274  0.00  0.00     0.028 H 
ATOM     97  H25 non d ame     -11.637  11.807  65.650  0.00  0.00     0.028 H 
ATOM     98  H26 non d ame     -13.058  12.869  65.800  0.00  0.00     0.028 H 
ENDBRANCH  93  95
BRANCH  93  99
ATOM     99  C19 non d ame     -12.319  14.944  64.379  0.00  0.00    -0.073 C 
ATOM    100  H27 non d ame     -12.156  15.323  63.370  0.00  0.00     0.028 H 
ATOM    101  H28 non d ame     -13.367  14.666  64.499  0.00  0.00     0.028 H 
ATOM    102  H29 non d ame     -12.063  15.718  65.103  0.00  0.00     0.028 H 
ENDBRANCH  93  99
ENDBRANCH  90  93
ENDBRANCH   1  90
TORSDOF 26
ENDMDL
MODEL 7
REMARK VINA RESULT:      -6.6      3.630      8.180
REMARK  26 active torsions:
REMARK  status: ('A' for Active; 'I' for Inactive)
REMARK    1  A    between atoms: C2_2  and  C3_3 
REMARK    2  A    between atoms: C4_6  and  C5_7 
REMARK       I    between atoms: C5_7  and  N2_9 
REMARK    3  A    between atoms: N2_9  and  C6_10 
REMARK    4  A    between atoms: C6_10  and  C7_11 
REMARK    5  A    between atoms: C6_10  and  C8_13 
REMARK       I    between atoms: C7_11  and  N3_14 
REMARK    6  A    between atoms: N3_14  and  C9_15 
REMARK    7  A    between atoms: C9_15  and  C10_16 
REMARK    8  A    between atoms: C9_15  and  C11_18 
REMARK       I    between atoms: C10_16  and  N4_21 
REMARK    9  A    between atoms: C11_18  and  C12_19 
REMARK   10  A    between atoms: C11_18  and  C13_20 
REMARK   11  A    between atoms: N4_21  and  C14_22 
REMARK   12  A    between atoms: C14_22  and  C15_23 
REMARK   13  A    between atoms: C14_22  and  C16_25 
REMARK       I    between atoms: C15_23  and  N6_40 
REMARK   14  A    between atoms: C16_25  and  C17_26 
REMARK   15  A    between atoms: C17_26  and  C18_27 
REMARK   16  A    between atoms: C17_26  and  C19_28 
REMARK   17  A    between atoms: C20_29  and  C21_30 
REMARK   18  A    between atoms: C20_29  and  C24_33 
REMARK   19  A    between atoms: C20_29  and  N6_40 
REMARK   20  A    between atoms: C21_30  and  C22_31 
REMARK   21  A    between atoms: C22_31  and  C23_32 
REMARK   22  A    between atoms: C23_32  and  O8_43 
REMARK   23  A    between atoms: C24_33  and  C25_34 
REMARK   24  A    between atoms: C28_38  and  O6_39 
REMARK   25  A    between atoms: C29_42  and  O8_43 
REMARK   26  A    between atoms: C29_42  and  C35_49 
ROOT
ATOM      1  C14 non d ame      -9.943  12.094  65.304  0.00  0.00     0.089 C 
ATOM      2  H20 non d ame      -9.971  12.386  64.255  0.00  0.00     0.087 H 
ENDROOT
BRANCH   1   3
ATOM      3  N4  non d ame      -9.153  10.876  65.400  0.00  0.00    -0.346 N 
ATOM      4  C10 non d ame      -9.086   9.918  64.237  0.00  0.00     0.241 C 
ATOM      5  O4  non d ame      -9.680  10.148  63.235  0.00  0.00    -0.271 OA
ATOM      6  H19 non d ame      -8.658  10.697  66.263  0.00  0.00     0.163 HD
BRANCH   4   7
ATOM      7  C9  non d ame      -8.259   8.665  64.351  0.00  0.00     0.092 C 
ATOM      8  H11 non d ame      -7.343   8.888  64.898  0.00  0.00     0.088 H 
BRANCH   7   9
ATOM      9  N3  non d ame      -8.994   7.663  65.130  0.00  0.00    -0.346 N 
ATOM     10  C7  non d ame      -8.778   7.553  66.551  0.00  0.00     0.240 C 
ATOM     11  O3  non d ame      -8.014   8.261  67.085  0.00  0.00    -0.271 OA
ATOM     12  H10 non d ame      -9.655   7.044  64.683  0.00  0.00     0.163 HD
BRANCH  10  13
ATOM     13  C6  non d ame      -9.561   6.482  67.373  0.00  0.00     0.086 C 
ATOM     14  H6  non d ame      -9.205   5.468  67.193  0.00  0.00     0.086 H 
BRANCH  13  15
ATOM     15  N2  non d ame      -9.370   6.744  68.790  0.00  0.00    -0.343 N 
ATOM     16  C5  non d ame      -9.472   5.640  69.747  0.00  0.00     0.273 C 
ATOM     17  O2  non d ame      -9.710   4.547  69.367  0.00  0.00    -0.266 OA
ATOM     18  H5  non d ame      -9.168   7.682  69.106  0.00  0.00     0.163 HD
BRANCH  16  19
ATOM     19  C4  non d ame      -9.270   5.902  71.248  0.00  0.00     0.154 A 
ATOM     20  C1  non d ame     -10.156   5.546  72.314  0.00  0.00    -0.017 A 
ATOM     21  C2  non d ame      -9.516   6.004  73.487  0.00  0.00     0.077 A 
ATOM     22  H1  non d ame     -11.116   5.033  72.248  0.00  0.00     0.091 H 
ATOM     23  O1  non d ame      -8.394   6.556  73.126  0.00  0.00    -0.218 OA
ATOM     24  N1  non d ame      -8.229   6.509  71.824  0.00  0.00    -0.123 NA
BRANCH  21  25
ATOM     25  C3  non d ame     -10.041   5.874  74.910  0.00  0.00    -0.029 C 
ATOM     26  H2  non d ame     -10.933   5.246  74.914  0.00  0.00     0.036 H 
ATOM     27  H3  non d ame      -9.276   5.420  75.540  0.00  0.00     0.036 H 
ATOM     28  H4  non d ame     -10.291   6.862  75.298  0.00  0.00     0.036 H 
ENDBRANCH  21  25
ENDBRANCH  16  19
ENDBRANCH  13  15
BRANCH  13  29
ATOM     29  C8  non d ame     -11.026   6.553  67.029  0.00  0.00    -0.049 C 
ATOM     30  H7  non d ame     -11.167   7.200  66.163  0.00  0.00     0.030 H 
ATOM     31  H8  non d ame     -11.393   5.552  66.797  0.00  0.00     0.030 H 
ATOM     32  H9  non d ame     -11.580   6.955  67.876  0.00  0.00     0.030 H 
ENDBRANCH  13  29
ENDBRANCH  10  13
ENDBRANCH   7   9
BRANCH   7  33
ATOM     33  C11 non d ame      -7.969   8.102  62.929  0.00  0.00    -0.033 C 
ATOM     34  H12 non d ame      -8.780   8.427  62.276  0.00  0.00     0.042 H 
BRANCH  33  35
ATOM     35  C12 non d ame      -6.641   8.680  62.349  0.00  0.00    -0.071 C 
ATOM     36  H13 non d ame      -6.245   7.997  61.598  0.00  0.00     0.028 H 
ATOM     37  H14 non d ame      -6.835   9.650  61.892  0.00  0.00     0.028 H 
ATOM     38  H15 non d ame      -5.915   8.797  63.154  0.00  0.00     0.028 H 
ENDBRANCH  33  35
BRANCH  33  39
ATOM     39  C13 non d ame      -7.952   6.540  62.938  0.00  0.00    -0.071 C 
ATOM     40  H16 non d ame      -8.298   6.167  61.975  0.00  0.00     0.028 H 
ATOM     41  H17 non d ame      -6.936   6.189  63.121  0.00  0.00     0.028 H 
ATOM     42  H18 non d ame      -8.609   6.175  63.727  0.00  0.00     0.028 H 
ENDBRANCH  33  39
ENDBRANCH   7  33
ENDBRANCH   4   7
ENDBRANCH   1   3
BRANCH   1  43
ATOM     43  C15 non d ame      -9.285  13.183  66.199  0.00  0.00     0.240 C 
ATOM     44  O5  non d ame      -8.378  12.894  66.912  0.00  0.00    -0.271 OA
ATOM     45  N6  non d ame      -9.779  14.589  66.163  0.00  0.00    -0.355 N 
ATOM     46  H46 non d ame     -10.546  14.847  65.559  0.00  0.00     0.162 HD
BRANCH  45  47
ATOM     47  C20 non d ame      -9.142  15.612  67.019  0.00  0.00     0.013 C 
ATOM     48  H30 non d ame      -8.092  15.344  67.136  0.00  0.00     0.072 H 
BRANCH  47  49
ATOM     49  C21 non d ame      -9.823  15.631  68.369  0.00  0.00    -0.038 C 
ATOM     50  H31 non d ame      -9.320  14.868  68.963  0.00  0.00     0.036 H 
ATOM     51  H32 non d ame      -9.808  16.673  68.691  0.00  0.00     0.036 H 
BRANCH  49  52
ATOM     52  C22 non d ame     -11.310  15.219  68.295  0.00  0.00     0.018 C 
ATOM     53  H33 non d ame     -11.819  16.040  67.790  0.00  0.00     0.048 H 
ATOM     54  H34 non d ame     -11.318  14.220  67.858  0.00  0.00     0.048 H 
BRANCH  52  55
ATOM     55  C23 non d ame     -11.991  15.084  69.686  0.00  0.00     0.259 C 
ATOM     56  O7  non d ame     -12.346  16.051  70.278  0.00  0.00    -0.265 OA
BRANCH  55  57
ATOM     57  O8  non d ame     -12.172  13.792  70.251  0.00  0.00    -0.317 OA
BRANCH  57  58
ATOM     58  C29 non d ame     -11.762  12.719  69.398  0.00  0.00     0.052 C 
ATOM     59  H47 non d ame     -12.488  12.693  68.586  0.00  0.00     0.082 H 
ATOM     60  H48 non d ame     -10.709  12.901  69.182  0.00  0.00     0.082 H 
BRANCH  58  61
ATOM     61  C35 non d ame     -11.877  11.397  70.202  0.00  0.00    -0.034 A 
ATOM     62  C30 non d ame     -10.996  10.351  69.952  0.00  0.00    -0.075 A 
ATOM     63  C31 non d ame     -11.099   9.163  70.674  0.00  0.00    -0.082 A 
ATOM     64  H49 non d ame     -10.225  10.461  69.191  0.00  0.00     0.084 H 
ATOM     65  C32 non d ame     -12.091   9.023  71.649  0.00  0.00    -0.083 A 
ATOM     66  H50 non d ame     -10.406   8.346  70.477  0.00  0.00     0.083 H 
ATOM     67  C33 non d ame     -12.971  10.069  71.894  0.00  0.00    -0.082 A 
ATOM     68  H51 non d ame     -12.179   8.098  72.219  0.00  0.00     0.083 H 
ATOM     69  C34 non d ame     -12.869  11.259  71.175  0.00  0.00    -0.075 A 
ATOM     70  H52 non d ame     -13.745   9.956  72.653  0.00  0.00     0.083 H 
ATOM     71  H53 non d ame     -13.564  12.077  71.374  0.00  0.00     0.084 H 
ENDBRANCH  58  61
ENDBRANCH  57  58
ENDBRANCH  55  57
ENDBRANCH  52  55
ENDBRANCH  49  52
ENDBRANCH  47  49
BRANCH  47  72
ATOM     72  C24 non d ame      -9.270  16.985  66.364  0.00  0.00    -0.039 C 
ATOM     73  H35 non d ame      -8.546  16.987  65.549  0.00  0.00     0.036 H 
ATOM     74  H36 non d ame     -10.332  17.108  66.150  0.00  0.00     0.036 H 
BRANCH  72  75
ATOM     75  C25 non d ame      -8.852  18.162  67.368  0.00  0.00    -0.001 C 
ATOM     76  C26 non d ame     -10.149  19.127  67.672  0.00  0.00    -0.035 C 
ATOM     77  C27 non d ame      -9.795  20.415  67.453  0.00  0.00     0.085 C 
ATOM     78  H38 non d ame     -10.929  18.947  66.932  0.00  0.00     0.036 H 
ATOM     79  H39 non d ame     -10.391  19.105  68.735  0.00  0.00     0.036 H 
ATOM     80  N5  non d ame      -8.478  20.393  66.717  0.00  0.00    -0.049 N 
ATOM     81  H40 non d ame     -10.564  20.822  66.795  0.00  0.00     0.075 H 
ATOM     82  H41 non d ame      -9.641  20.846  68.442  0.00  0.00     0.075 H 
ATOM     83  C28 non d ame      -7.909  18.890  66.869  0.00  0.00     0.193 C 
ATOM     84  H42 non d ame      -8.692  20.558  65.743  0.00  0.00     0.280 HD
ATOM     85  H43 non d ame      -7.862  21.022  67.211  0.00  0.00     0.280 HD
ATOM     86  H44 non d ame      -7.100  18.672  67.567  0.00  0.00     0.129 H 
ATOM     87  H37 non d ame      -8.297  17.792  68.230  0.00  0.00     0.046 H 
BRANCH  83  88
ATOM     88  O6  non d ame      -7.463  18.401  65.603  0.00  0.00    -0.369 OA
ATOM     89  H45 non d ame      -7.310  19.140  65.011  0.00  0.00     0.212 HD
ENDBRANCH  83  88
ENDBRANCH  72  75
ENDBRANCH  47  72
ENDBRANCH  45  47
ENDBRANCH   1  43
BRANCH   1  90
ATOM     90  C16 non d ame     -11.354  11.811  65.798  0.00  0.00    -0.035 C 
ATOM     91  H21 non d ame     -11.481  10.733  65.705  0.00  0.00     0.037 H 
ATOM     92  H22 non d ame     -11.417  12.284  66.777  0.00  0.00     0.037 H 
BRANCH  90  93
ATOM     93  C17 non d ame     -12.467  12.463  64.918  0.00  0.00    -0.059 C 
ATOM     94  H23 non d ame     -13.322  11.788  64.913  0.00  0.00     0.038 H 
BRANCH  93  95
ATOM     95  C18 non d ame     -12.946  13.834  65.493  0.00  0.00    -0.073 C 
ATOM     96  H24 non d ame     -13.941  14.062  65.108  0.00  0.00     0.028 H 
ATOM     97  H25 non d ame     -12.983  13.780  66.581  0.00  0.00     0.028 H 
ATOM     98  H26 non d ame     -12.251  14.618  65.192  0.00  0.00     0.028 H 
ENDBRANCH  93  95
BRANCH  93  99
ATOM     99  C19 non d ame     -12.000  12.614  63.468  0.00  0.00    -0.073 C 
ATOM    100  H27 non d ame     -11.708  13.648  63.286  0.00  0.00     0.028 H 
ATOM    101  H28 non d ame     -11.146  11.959  63.292  0.00  0.00     0.028 H 
ATOM    102  H29 non d ame     -12.812  12.341  62.795  0.00  0.00     0.028 H 
ENDBRANCH  93  99
ENDBRANCH  90  93
ENDBRANCH   1  90
TORSDOF 26
ENDMDL
MODEL 8
REMARK VINA RESULT:      -6.5      3.136      7.990
REMARK  26 active torsions:
REMARK  status: ('A' for Active; 'I' for Inactive)
REMARK    1  A    between atoms: C2_2  and  C3_3 
REMARK    2  A    between atoms: C4_6  and  C5_7 
REMARK       I    between atoms: C5_7  and  N2_9 
REMARK    3  A    between atoms: N2_9  and  C6_10 
REMARK    4  A    between atoms: C6_10  and  C7_11 
REMARK    5  A    between atoms: C6_10  and  C8_13 
REMARK       I    between atoms: C7_11  and  N3_14 
REMARK    6  A    between atoms: N3_14  and  C9_15 
REMARK    7  A    between atoms: C9_15  and  C10_16 
REMARK    8  A    between atoms: C9_15  and  C11_18 
REMARK       I    between atoms: C10_16  and  N4_21 
REMARK    9  A    between atoms: C11_18  and  C12_19 
REMARK   10  A    between atoms: C11_18  and  C13_20 
REMARK   11  A    between atoms: N4_21  and  C14_22 
REMARK   12  A    between atoms: C14_22  and  C15_23 
REMARK   13  A    between atoms: C14_22  and  C16_25 
REMARK       I    between atoms: C15_23  and  N6_40 
REMARK   14  A    between atoms: C16_25  and  C17_26 
REMARK   15  A    between atoms: C17_26  and  C18_27 
REMARK   16  A    between atoms: C17_26  and  C19_28 
REMARK   17  A    between atoms: C20_29  and  C21_30 
REMARK   18  A    between atoms: C20_29  and  C24_33 
REMARK   19  A    between atoms: C20_29  and  N6_40 
REMARK   20  A    between atoms: C21_30  and  C22_31 
REMARK   21  A    between atoms: C22_31  and  C23_32 
REMARK   22  A    between atoms: C23_32  and  O8_43 
REMARK   23  A    between atoms: C24_33  and  C25_34 
REMARK   24  A    between atoms: C28_38  and  O6_39 
REMARK   25  A    between atoms: C29_42  and  O8_43 
REMARK   26  A    between atoms: C29_42  and  C35_49 
ROOT
ATOM      1  C14 non d ame      -9.596  11.585  67.974  0.00  0.00     0.089 C 
ATOM      2  H20 non d ame      -8.706  11.623  68.602  0.00  0.00     0.087 H 
ENDROOT
BRANCH   1   3
ATOM      3  N4  non d ame     -10.078  10.211  67.978  0.00  0.00    -0.346 N 
ATOM      4  C10 non d ame      -9.970   9.370  69.225  0.00  0.00     0.241 C 
ATOM      5  O4  non d ame      -9.490   9.819  70.213  0.00  0.00    -0.271 OA
ATOM      6  H19 non d ame     -10.481   9.847  67.125  0.00  0.00     0.163 HD
BRANCH   4   7
ATOM      7  C9  non d ame     -10.479   7.952  69.212  0.00  0.00     0.092 C 
ATOM      8  H11 non d ame     -11.470   7.930  68.761  0.00  0.00     0.088 H 
BRANCH   7   9
ATOM      9  N3  non d ame      -9.604   7.127  68.374  0.00  0.00    -0.346 N 
ATOM     10  C7  non d ame     -10.115   6.534  67.162  0.00  0.00     0.240 C 
ATOM     11  O3  non d ame     -11.229   6.710  66.848  0.00  0.00    -0.271 OA
ATOM     12  H10 non d ame      -8.642   6.964  68.633  0.00  0.00     0.163 HD
BRANCH  10  13
ATOM     13  C6  non d ame      -9.180   5.654  66.277  0.00  0.00     0.086 C 
ATOM     14  H6  non d ame      -9.615   4.683  66.038  0.00  0.00     0.086 H 
BRANCH  13  15
ATOM     15  N2  non d ame      -8.957   6.331  65.010  0.00  0.00    -0.343 N 
ATOM     16  C5  non d ame      -8.499   7.723  65.008  0.00  0.00     0.273 C 
ATOM     17  O2  non d ame      -8.316   8.288  66.029  0.00  0.00    -0.266 OA
ATOM     18  H5  non d ame      -9.118   5.842  64.142  0.00  0.00     0.163 HD
BRANCH  16  19
ATOM     19  C4  non d ame      -8.256   8.451  63.676  0.00  0.00     0.154 A 
ATOM     20  C1  non d ame      -7.892   9.823  63.495  0.00  0.00    -0.017 A 
ATOM     21  C2  non d ame      -7.793   9.992  62.096  0.00  0.00     0.077 A 
ATOM     22  H1  non d ame      -7.726  10.581  64.261  0.00  0.00     0.091 H 
ATOM     23  O1  non d ame      -8.067   8.844  61.547  0.00  0.00    -0.218 OA
ATOM     24  N1  non d ame      -8.342   7.930  62.449  0.00  0.00    -0.123 NA
BRANCH  21  25
ATOM     25  C3  non d ame      -7.429  11.277  61.367  0.00  0.00    -0.029 C 
ATOM     26  H2  non d ame      -8.084  11.405  60.504  0.00  0.00     0.036 H 
ATOM     27  H3  non d ame      -7.549  12.124  62.042  0.00  0.00     0.036 H 
ATOM     28  H4  non d ame      -6.393  11.225  61.031  0.00  0.00     0.036 H 
ENDBRANCH  21  25
ENDBRANCH  16  19
ENDBRANCH  13  15
BRANCH  13  29
ATOM     29  C8  non d ame      -7.867   5.439  66.985  0.00  0.00    -0.049 C 
ATOM     30  H7  non d ame      -7.238   4.775  66.392  0.00  0.00     0.030 H 
ATOM     31  H8  non d ame      -7.363   6.398  67.114  0.00  0.00     0.030 H 
ATOM     32  H9  non d ame      -8.049   4.990  67.960  0.00  0.00     0.030 H 
ENDBRANCH  13  29
ENDBRANCH  10  13
ENDBRANCH   7   9
BRANCH   7  33
ATOM     33  C11 non d ame     -10.484   7.390  70.664  0.00  0.00    -0.033 C 
ATOM     34  H12 non d ame     -10.283   8.222  71.339  0.00  0.00     0.042 H 
BRANCH  33  35
ATOM     35  C12 non d ame     -11.880   6.806  71.042  0.00  0.00    -0.071 C 
ATOM     36  H13 non d ame     -12.417   7.522  71.664  0.00  0.00     0.028 H 
ATOM     37  H14 non d ame     -12.452   6.613  70.134  0.00  0.00     0.028 H 
ATOM     38  H15 non d ame     -11.747   5.874  71.591  0.00  0.00     0.028 H 
ENDBRANCH  33  35
BRANCH  33  39
ATOM     39  C13 non d ame      -9.354   6.327  70.855  0.00  0.00    -0.071 C 
ATOM     40  H16 non d ame      -8.867   6.485  71.817  0.00  0.00     0.028 H 
ATOM     41  H17 non d ame      -9.787   5.327  70.825  0.00  0.00     0.028 H 
ATOM     42  H18 non d ame      -8.621   6.430  70.056  0.00  0.00     0.028 H 
ENDBRANCH  33  39
ENDBRANCH   7  33
ENDBRANCH   4   7
ENDBRANCH   1   3
BRANCH   1  43
ATOM     43  C15 non d ame     -10.730  12.508  68.506  0.00  0.00     0.240 C 
ATOM     44  O5  non d ame     -11.857  12.129  68.492  0.00  0.00    -0.271 OA
ATOM     45  N6  non d ame     -10.411  13.862  69.042  0.00  0.00    -0.355 N 
ATOM     46  H46 non d ame      -9.457  14.193  69.063  0.00  0.00     0.162 HD
BRANCH  45  47
ATOM     47  C20 non d ame     -11.499  14.727  69.545  0.00  0.00     0.013 C 
ATOM     48  H30 non d ame     -12.425  14.152  69.514  0.00  0.00     0.072 H 
BRANCH  47  49
ATOM     49  C21 non d ame     -11.619  15.947  68.660  0.00  0.00    -0.038 C 
ATOM     50  H31 non d ame     -12.430  15.729  67.965  0.00  0.00     0.036 H 
ATOM     51  H32 non d ame     -11.695  16.796  69.340  0.00  0.00     0.036 H 
BRANCH  49  52
ATOM     52  C22 non d ame     -10.360  16.189  67.800  0.00  0.00     0.018 C 
ATOM     53  H33 non d ame      -9.514  16.102  68.483  0.00  0.00     0.048 H 
ATOM     54  H34 non d ame     -10.447  15.510  66.951  0.00  0.00     0.048 H 
BRANCH  52  55
ATOM     55  C23 non d ame     -10.279  17.620  67.198  0.00  0.00     0.259 C 
ATOM     56  O7  non d ame     -10.930  18.502  67.654  0.00  0.00    -0.265 OA
BRANCH  55  57
ATOM     57  O8  non d ame      -9.426  17.861  66.086  0.00  0.00    -0.317 OA
BRANCH  57  58
ATOM     58  C29 non d ame      -8.059  17.505  66.311  0.00  0.00     0.052 C 
ATOM     59  H47 non d ame      -8.081  16.687  67.031  0.00  0.00     0.082 H 
ATOM     60  H48 non d ame      -7.629  17.347  65.321  0.00  0.00     0.082 H 
BRANCH  58  61
ATOM     61  C35 non d ame      -7.349  18.718  66.967  0.00  0.00    -0.034 A 
ATOM     62  C30 non d ame      -6.947  18.654  68.297  0.00  0.00    -0.075 A 
ATOM     63  C31 non d ame      -6.309  19.744  68.887  0.00  0.00    -0.082 A 
ATOM     64  H49 non d ame      -7.131  17.751  68.877  0.00  0.00     0.084 H 
ATOM     65  C32 non d ame      -6.075  20.903  68.142  0.00  0.00    -0.083 A 
ATOM     66  H50 non d ame      -5.994  19.690  69.929  0.00  0.00     0.083 H 
ATOM     67  C33 non d ame      -6.481  20.964  66.815  0.00  0.00    -0.082 A 
ATOM     68  H51 non d ame      -5.577  21.760  68.595  0.00  0.00     0.083 H 
ATOM     69  C34 non d ame      -7.117  19.875  66.221  0.00  0.00    -0.075 A 
ATOM     70  H52 non d ame      -6.300  21.870  66.237  0.00  0.00     0.083 H 
ATOM     71  H53 non d ame      -7.432  19.931  65.178  0.00  0.00     0.084 H 
ENDBRANCH  58  61
ENDBRANCH  57  58
ENDBRANCH  55  57
ENDBRANCH  52  55
ENDBRANCH  49  52
ENDBRANCH  47  49
BRANCH  47  72
ATOM     72  C24 non d ame     -11.193  15.162  70.976  0.00  0.00    -0.039 C 
ATOM     73  H35 non d ame     -10.266  14.656  71.242  0.00  0.00     0.036 H 
ATOM     74  H36 non d ame     -11.234  16.252  70.963  0.00  0.00     0.036 H 
BRANCH  72  75
ATOM     75  C25 non d ame     -12.317  14.660  72.002  0.00  0.00    -0.001 C 
ATOM     76  C26 non d ame     -13.676  14.233  71.180  0.00  0.00    -0.035 C 
ATOM     77  C27 non d ame     -14.738  14.865  71.734  0.00  0.00     0.085 C 
ATOM     78  H38 non d ame     -13.641  14.634  70.167  0.00  0.00     0.036 H 
ATOM     79  H39 non d ame     -13.894  13.177  71.341  0.00  0.00     0.036 H 
ATOM     80  N5  non d ame     -14.188  15.933  72.648  0.00  0.00    -0.049 N 
ATOM     81  H40 non d ame     -15.260  15.341  70.904  0.00  0.00     0.075 H 
ATOM     82  H41 non d ame     -15.244  14.110  72.336  0.00  0.00     0.075 H 
ATOM     83  C28 non d ame     -12.624  15.586  72.848  0.00  0.00     0.193 C 
ATOM     84  H42 non d ame     -14.262  16.806  72.145  0.00  0.00     0.280 HD
ATOM     85  H43 non d ame     -14.658  15.821  73.535  0.00  0.00     0.280 HD
ATOM     86  H44 non d ame     -12.272  15.133  73.775  0.00  0.00     0.129 H 
ATOM     87  H37 non d ame     -11.926  13.941  72.722  0.00  0.00     0.046 H 
BRANCH  83  88
ATOM     88  O6  non d ame     -11.833  16.762  72.673  0.00  0.00    -0.369 OA
ATOM     89  H45 non d ame     -10.917  16.566  72.882  0.00  0.00     0.212 HD
ENDBRANCH  83  88
ENDBRANCH  72  75
ENDBRANCH  47  72
ENDBRANCH  45  47
ENDBRANCH   1  43
BRANCH   1  90
ATOM     90  C16 non d ame      -9.239  11.983  66.550  0.00  0.00    -0.035 C 
ATOM     91  H21 non d ame      -8.568  12.836  66.649  0.00  0.00     0.037 H 
ATOM     92  H22 non d ame      -8.889  11.067  66.075  0.00  0.00     0.037 H 
BRANCH  90  93
ATOM     93  C17 non d ame     -10.461  12.477  65.713  0.00  0.00    -0.059 C 
ATOM     94  H23 non d ame     -11.305  12.589  66.394  0.00  0.00     0.038 H 
BRANCH  93  95
ATOM     95  C18 non d ame     -10.198  13.865  65.047  0.00  0.00    -0.073 C 
ATOM     96  H24 non d ame      -9.145  13.942  64.774  0.00  0.00     0.028 H 
ATOM     97  H25 non d ame     -10.813  13.961  64.152  0.00  0.00     0.028 H 
ATOM     98  H26 non d ame     -10.451  14.659  65.749  0.00  0.00     0.028 H 
ENDBRANCH  93  95
BRANCH  93  99
ATOM     99  C19 non d ame     -10.862  11.436  64.664  0.00  0.00    -0.073 C 
ATOM    100  H27 non d ame     -10.671  10.436  65.054  0.00  0.00     0.028 H 
ATOM    101  H28 non d ame     -11.922  11.541  64.435  0.00  0.00     0.028 H 
ATOM    102  H29 non d ame     -10.276  11.590  63.758  0.00  0.00     0.028 H 
ENDBRANCH  93  99
ENDBRANCH  90  93
ENDBRANCH   1  90
TORSDOF 26
ENDMDL
MODEL 9
REMARK VINA RESULT:      -6.2      3.752      8.396
REMARK  26 active torsions:
REMARK  status: ('A' for Active; 'I' for Inactive)
REMARK    1  A    between atoms: C2_2  and  C3_3 
REMARK    2  A    between atoms: C4_6  and  C5_7 
REMARK       I    between atoms: C5_7  and  N2_9 
REMARK    3  A    between atoms: N2_9  and  C6_10 
REMARK    4  A    between atoms: C6_10  and  C7_11 
REMARK    5  A    between atoms: C6_10  and  C8_13 
REMARK       I    between atoms: C7_11  and  N3_14 
REMARK    6  A    between atoms: N3_14  and  C9_15 
REMARK    7  A    between atoms: C9_15  and  C10_16 
REMARK    8  A    between atoms: C9_15  and  C11_18 
REMARK       I    between atoms: C10_16  and  N4_21 
REMARK    9  A    between atoms: C11_18  and  C12_19 
REMARK   10  A    between atoms: C11_18  and  C13_20 
REMARK   11  A    between atoms: N4_21  and  C14_22 
REMARK   12  A    between atoms: C14_22  and  C15_23 
REMARK   13  A    between atoms: C14_22  and  C16_25 
REMARK       I    between atoms: C15_23  and  N6_40 
REMARK   14  A    between atoms: C16_25  and  C17_26 
REMARK   15  A    between atoms: C17_26  and  C18_27 
REMARK   16  A    between atoms: C17_26  and  C19_28 
REMARK   17  A    between atoms: C20_29  and  C21_30 
REMARK   18  A    between atoms: C20_29  and  C24_33 
REMARK   19  A    between atoms: C20_29  and  N6_40 
REMARK   20  A    between atoms: C21_30  and  C22_31 
REMARK   21  A    between atoms: C22_31  and  C23_32 
REMARK   22  A    between atoms: C23_32  and  O8_43 
REMARK   23  A    between atoms: C24_33  and  C25_34 
REMARK   24  A    between atoms: C28_38  and  O6_39 
REMARK   25  A    between atoms: C29_42  and  O8_43 
REMARK   26  A    between atoms: C29_42  and  C35_49 
ROOT
ATOM      1  C14 non d ame      -7.555  10.584  69.046  0.00  0.00     0.089 C 
ATOM      2  H20 non d ame      -7.339  11.027  70.018  0.00  0.00     0.087 H 
ENDROOT
BRANCH   1   3
ATOM      3  N4  non d ame      -8.539   9.532  69.252  0.00  0.00    -0.346 N 
ATOM      4  C10 non d ame      -8.653   8.846  70.590  0.00  0.00     0.241 C 
ATOM      5  O4  non d ame      -7.938   9.156  71.486  0.00  0.00    -0.271 OA
ATOM      6  H19 non d ame      -9.136   9.281  68.475  0.00  0.00     0.163 HD
BRANCH   4   7
ATOM      7  C9  non d ame      -9.681   7.763  70.787  0.00  0.00     0.092 C 
ATOM      8  H11 non d ame     -10.651   8.124  70.446  0.00  0.00     0.088 H 
BRANCH   7   9
ATOM      9  N3  non d ame      -9.335   6.604  69.959  0.00  0.00    -0.346 N 
ATOM     10  C7  non d ame     -10.356   5.937  69.189  0.00  0.00     0.240 C 
ATOM     11  O3  non d ame     -11.462   6.320  69.225  0.00  0.00    -0.271 OA
ATOM     12  H10 non d ame      -8.386   6.262  69.919  0.00  0.00     0.163 HD
BRANCH  10  13
ATOM     13  C6  non d ame      -9.982   4.702  68.312  0.00  0.00     0.086 C 
ATOM     14  H6  non d ame     -10.844   4.267  67.806  0.00  0.00     0.086 H 
BRANCH  13  15
ATOM     15  N2  non d ame      -9.059   5.125  67.272  0.00  0.00    -0.343 N 
ATOM     16  C5  non d ame      -9.378   4.847  65.869  0.00  0.00     0.273 C 
ATOM     17  O2  non d ame     -10.376   4.281  65.589  0.00  0.00    -0.266 OA
ATOM     18  H5  non d ame      -8.207   5.607  67.519  0.00  0.00     0.163 HD
BRANCH  16  19
ATOM     19  C4  non d ame      -8.412   5.290  64.758  0.00  0.00     0.154 A 
ATOM     20  C1  non d ame      -7.060   5.732  64.914  0.00  0.00    -0.017 A 
ATOM     21  C2  non d ame      -6.618   6.019  63.603  0.00  0.00     0.077 A 
ATOM     22  H1  non d ame      -6.487   5.831  65.836  0.00  0.00     0.091 H 
ATOM     23  O1  non d ame      -7.608   5.766  62.796  0.00  0.00    -0.218 OA
ATOM     24  N1  non d ame      -8.666   5.340  63.448  0.00  0.00    -0.123 NA
BRANCH  21  25
ATOM     25  C3  non d ame      -5.239   6.528  63.208  0.00  0.00    -0.029 C 
ATOM     26  H2  non d ame      -5.141   6.510  62.122  0.00  0.00     0.036 H 
ATOM     27  H3  non d ame      -5.111   7.549  63.567  0.00  0.00     0.036 H 
ATOM     28  H4  non d ame      -4.474   5.889  63.651  0.00  0.00     0.036 H 
ENDBRANCH  21  25
ENDBRANCH  16  19
ENDBRANCH  13  15
BRANCH  13  29
ATOM     29  C8  non d ame      -9.339   3.646  69.174  0.00  0.00    -0.049 C 
ATOM     30  H7  non d ame      -9.282   2.709  68.620  0.00  0.00     0.030 H 
ATOM     31  H8  non d ame      -8.333   3.966  69.450  0.00  0.00     0.030 H 
ATOM     32  H9  non d ame      -9.934   3.500  70.074  0.00  0.00     0.030 H 
ENDBRANCH  13  29
ENDBRANCH  10  13
ENDBRANCH   7   9
BRANCH   7  33
ATOM     33  C11 non d ame      -9.707   7.339  72.284  0.00  0.00    -0.033 C 
ATOM     34  H12 non d ame      -9.069   8.031  72.833  0.00  0.00     0.042 H 
BRANCH  33  35
ATOM     35  C12 non d ame     -11.144   7.451  72.882  0.00  0.00    -0.071 C 
ATOM     36  H13 non d ame     -11.872   7.126  72.139  0.00  0.00     0.028 H 
ATOM     37  H14 non d ame     -11.220   6.818  73.766  0.00  0.00     0.028 H 
ATOM     38  H15 non d ame     -11.342   8.486  73.158  0.00  0.00     0.028 H 
ENDBRANCH  33  35
BRANCH  33  39
ATOM     39  C13 non d ame      -9.128   5.899  72.467  0.00  0.00    -0.071 C 
ATOM     40  H16 non d ame      -9.933   5.214  72.731  0.00  0.00     0.028 H 
ATOM     41  H17 non d ame      -8.662   5.573  71.537  0.00  0.00     0.028 H 
ATOM     42  H18 non d ame      -8.383   5.907  73.263  0.00  0.00     0.028 H 
ENDBRANCH  33  39
ENDBRANCH   7  33
ENDBRANCH   4   7
ENDBRANCH   1   3
BRANCH   1  43
ATOM     43  C15 non d ame      -8.140  11.621  68.045  0.00  0.00     0.240 C 
ATOM     44  O5  non d ame      -7.486  11.984  67.120  0.00  0.00    -0.271 OA
ATOM     45  N6  non d ame      -9.519  12.155  68.232  0.00  0.00    -0.355 N 
ATOM     46  H46 non d ame     -10.085  11.851  69.011  0.00  0.00     0.162 HD
BRANCH  45  47
ATOM     47  C20 non d ame     -10.061  13.139  67.271  0.00  0.00     0.013 C 
ATOM     48  H30 non d ame      -9.527  13.016  66.328  0.00  0.00     0.072 H 
BRANCH  47  49
ATOM     49  C21 non d ame      -9.844  14.536  67.808  0.00  0.00    -0.038 C 
ATOM     50  H31 non d ame     -10.832  14.996  67.839  0.00  0.00     0.036 H 
ATOM     51  H32 non d ame      -9.271  14.411  68.728  0.00  0.00     0.036 H 
BRANCH  49  52
ATOM     52  C22 non d ame      -8.981  15.411  66.874  0.00  0.00     0.018 C 
ATOM     53  H33 non d ame      -8.509  16.154  67.517  0.00  0.00     0.048 H 
ATOM     54  H34 non d ame      -8.367  14.715  66.302  0.00  0.00     0.048 H 
BRANCH  52  55
ATOM     55  C23 non d ame      -9.807  16.212  65.829  0.00  0.00     0.259 C 
ATOM     56  O7  non d ame     -10.456  15.646  65.011  0.00  0.00    -0.265 OA
BRANCH  55  57
ATOM     57  O8  non d ame      -9.768  17.634  65.851  0.00  0.00    -0.317 OA
BRANCH  57  58
ATOM     58  C29 non d ame      -9.955  18.202  67.151  0.00  0.00     0.052 C 
ATOM     59  H47 non d ame     -10.778  18.908  67.049  0.00  0.00     0.082 H 
ATOM     60  H48 non d ame     -10.044  17.356  67.832  0.00  0.00     0.082 H 
BRANCH  58  61
ATOM     61  C35 non d ame      -8.671  18.994  67.516  0.00  0.00    -0.034 A 
ATOM     62  C30 non d ame      -8.044  18.779  68.739  0.00  0.00    -0.075 A 
ATOM     63  C31 non d ame      -6.892  19.490  69.068  0.00  0.00    -0.082 A 
ATOM     64  H49 non d ame      -8.456  18.053  69.440  0.00  0.00     0.084 H 
ATOM     65  C32 non d ame      -6.366  20.422  68.169  0.00  0.00    -0.083 A 
ATOM     66  H50 non d ame      -6.402  19.317  70.026  0.00  0.00     0.083 H 
ATOM     67  C33 non d ame      -6.997  20.636  66.950  0.00  0.00    -0.082 A 
ATOM     68  H51 non d ame      -5.465  20.982  68.417  0.00  0.00     0.083 H 
ATOM     69  C34 non d ame      -8.148  19.925  66.617  0.00  0.00    -0.075 A 
ATOM     70  H52 non d ame      -6.586  21.366  66.252  0.00  0.00     0.083 H 
ATOM     71  H53 non d ame      -8.637  20.099  65.657  0.00  0.00     0.084 H 
ENDBRANCH  58  61
ENDBRANCH  57  58
ENDBRANCH  55  57
ENDBRANCH  52  55
ENDBRANCH  49  52
ENDBRANCH  47  49
BRANCH  47  72
ATOM     72  C24 non d ame     -11.555  12.896  67.070  0.00  0.00    -0.039 C 
ATOM     73  H35 non d ame     -11.848  12.214  67.868  0.00  0.00     0.036 H 
ATOM     74  H36 non d ame     -12.005  13.887  67.007  0.00  0.00     0.036 H 
BRANCH  72  75
ATOM     75  C25 non d ame     -11.853  12.153  65.682  0.00  0.00    -0.001 C 
ATOM     76  C26 non d ame     -10.439  11.769  64.936  0.00  0.00    -0.035 C 
ATOM     77  C27 non d ame     -10.479  12.224  63.661  0.00  0.00     0.085 C 
ATOM     78  H38 non d ame      -9.618  12.331  65.381  0.00  0.00     0.036 H 
ATOM     79  H39 non d ame     -10.359  10.688  64.820  0.00  0.00     0.036 H 
ATOM     80  N5  non d ame     -11.655  13.166  63.566  0.00  0.00    -0.049 N 
ATOM     81  H40 non d ame      -9.558  12.789  63.523  0.00  0.00     0.075 H 
ATOM     82  H41 non d ame     -10.678  11.346  63.046  0.00  0.00     0.075 H 
ATOM     83  C28 non d ame     -12.542  12.905  64.889  0.00  0.00     0.193 C 
ATOM     84  H42 non d ame     -11.276  14.101  63.612  0.00  0.00     0.280 HD
ATOM     85  H43 non d ame     -12.188  12.878  62.759  0.00  0.00     0.280 HD
ATOM     86  H44 non d ame     -13.469  12.333  64.830  0.00  0.00     0.129 H 
ATOM     87  H37 non d ame     -12.589  11.357  65.790  0.00  0.00     0.046 H 
BRANCH  83  88
ATOM     88  O6  non d ame     -12.898  14.147  65.497  0.00  0.00    -0.369 OA
ATOM     89  H45 non d ame     -12.146  14.492  65.983  0.00  0.00     0.212 HD
ENDBRANCH  83  88
ENDBRANCH  72  75
ENDBRANCH  47  72
ENDBRANCH  45  47
ENDBRANCH   1  43
BRANCH   1  90
ATOM     90  C16 non d ame      -6.288   9.972  68.467  0.00  0.00    -0.035 C 
ATOM     91  H21 non d ame      -5.841  10.759  67.859  0.00  0.00     0.037 H 
ATOM     92  H22 non d ame      -5.746   9.570  69.321  0.00  0.00     0.037 H 
BRANCH  90  93
ATOM     93  C17 non d ame      -6.556   8.771  67.506  0.00  0.00    -0.059 C 
ATOM     94  H23 non d ame      -7.634   8.617  67.461  0.00  0.00     0.038 H 
BRANCH  93  95
ATOM     95  C18 non d ame      -6.053   9.052  66.055  0.00  0.00    -0.073 C 
ATOM     96  H24 non d ame      -6.743   8.606  65.338  0.00  0.00     0.028 H 
ATOM     97  H25 non d ame      -6.005  10.128  65.889  0.00  0.00     0.028 H 
ATOM     98  H26 non d ame      -5.061   8.620  65.923  0.00  0.00     0.028 H 
ENDBRANCH  93  95
BRANCH  93  99
ATOM     99  C19 non d ame      -5.937   7.483  68.057  0.00  0.00    -0.073 C 
ATOM    100  H27 non d ame      -4.852   7.578  68.069  0.00  0.00     0.028 H 
ATOM    101  H28 non d ame      -6.299   7.311  69.071  0.00  0.00     0.028 H 
ATOM    102  H29 non d ame      -6.221   6.644  67.423  0.00  0.00     0.028 H 
ENDBRANCH  93  99
ENDBRANCH  90  93
ENDBRANCH   1  90
TORSDOF 26
ENDMDL
MODEL 10
REMARK VINA RESULT:      -6.1      2.563      7.172
REMARK  26 active torsions:
REMARK  status: ('A' for Active; 'I' for Inactive)
REMARK    1  A    between atoms: C2_2  and  C3_3 
REMARK    2  A    between atoms: C4_6  and  C5_7 
REMARK       I    between atoms: C5_7  and  N2_9 
REMARK    3  A    between atoms: N2_9  and  C6_10 
REMARK    4  A    between atoms: C6_10  and  C7_11 
REMARK    5  A    between atoms: C6_10  and  C8_13 
REMARK       I    between atoms: C7_11  and  N3_14 
REMARK    6  A    between atoms: N3_14  and  C9_15 
REMARK    7  A    between atoms: C9_15  and  C10_16 
REMARK    8  A    between atoms: C9_15  and  C11_18 
REMARK       I    between atoms: C10_16  and  N4_21 
REMARK    9  A    between atoms: C11_18  and  C12_19 
REMARK   10  A    between atoms: C11_18  and  C13_20 
REMARK   11  A    between atoms: N4_21  and  C14_22 
REMARK   12  A    between atoms: C14_22  and  C15_23 
REMARK   13  A    between atoms: C14_22  and  C16_25 
REMARK       I    between atoms: C15_23  and  N6_40 
REMARK   14  A    between atoms: C16_25  and  C17_26 
REMARK   15  A    between atoms: C17_26  and  C18_27 
REMARK   16  A    between atoms: C17_26  and  C19_28 
REMARK   17  A    between atoms: C20_29  and  C21_30 
REMARK   18  A    between atoms: C20_29  and  C24_33 
REMARK   19  A    between atoms: C20_29  and  N6_40 
REMARK   20  A    between atoms: C21_30  and  C22_31 
REMARK   21  A    between atoms: C22_31  and  C23_32 
REMARK   22  A    between atoms: C23_32  and  O8_43 
REMARK   23  A    between atoms: C24_33  and  C25_34 
REMARK   24  A    between atoms: C28_38  and  O6_39 
REMARK   25  A    between atoms: C29_42  and  O8_43 
REMARK   26  A    between atoms: C29_42  and  C35_49 
ROOT
ATOM      1  C14 non d ame      -6.675  14.157  67.704  0.00  0.00     0.089 C 
ATOM      2  H20 non d ame      -5.913  14.597  67.062  0.00  0.00     0.087 H 
ENDROOT
BRANCH   1   3
ATOM      3  N4  non d ame      -7.908  14.901  67.494  0.00  0.00    -0.346 N 
ATOM      4  C10 non d ame      -7.903  16.170  66.678  0.00  0.00     0.241 C 
ATOM      5  O4  non d ame      -6.893  16.574  66.204  0.00  0.00    -0.271 OA
ATOM      6  H19 non d ame      -8.757  14.542  67.909  0.00  0.00     0.163 HD
BRANCH   4   7
ATOM      7  C9  non d ame      -9.189  16.924  66.466  0.00  0.00     0.092 C 
ATOM      8  H11 non d ame      -9.344  17.076  65.398  0.00  0.00     0.088 H 
BRANCH   7   9
ATOM      9  N3  non d ame     -10.314  16.121  66.956  0.00  0.00    -0.346 N 
ATOM     10  C7  non d ame     -10.668  14.893  66.289  0.00  0.00     0.240 C 
ATOM     11  O3  non d ame     -10.059  14.536  65.355  0.00  0.00    -0.271 OA
ATOM     12  H10 non d ame     -10.849  16.417  67.759  0.00  0.00     0.163 HD
BRANCH  10  13
ATOM     13  C6  non d ame     -11.868  14.045  66.813  0.00  0.00     0.086 C 
ATOM     14  H6  non d ame     -11.588  13.017  67.047  0.00  0.00     0.086 H 
BRANCH  13  15
ATOM     15  N2  non d ame     -12.357  14.634  68.048  0.00  0.00    -0.343 N 
ATOM     16  C5  non d ame     -11.989  14.030  69.331  0.00  0.00     0.273 C 
ATOM     17  O2  non d ame     -11.302  13.069  69.357  0.00  0.00    -0.266 OA
ATOM     18  H5  non d ame     -12.945  15.454  68.016  0.00  0.00     0.163 HD
BRANCH  16  19
ATOM     19  C4  non d ame     -12.497  14.643  70.645  0.00  0.00     0.154 A 
ATOM     20  C1  non d ame     -11.739  14.892  71.833  0.00  0.00    -0.017 A 
ATOM     21  C2  non d ame     -12.661  15.459  72.741  0.00  0.00     0.077 A 
ATOM     22  H1  non d ame     -10.682  14.691  72.010  0.00  0.00     0.091 H 
ATOM     23  O1  non d ame     -13.811  15.527  72.134  0.00  0.00    -0.218 OA
ATOM     24  N1  non d ame     -13.740  15.055  70.910  0.00  0.00    -0.123 NA
BRANCH  21  25
ATOM     25  C3  non d ame     -12.363  15.911  74.164  0.00  0.00    -0.029 C 
ATOM     26  H2  non d ame     -12.785  15.195  74.870  0.00  0.00     0.036 H 
ATOM     27  H3  non d ame     -11.284  15.970  74.307  0.00  0.00     0.036 H 
ATOM     28  H4  non d ame     -12.805  16.893  74.335  0.00  0.00     0.036 H 
ENDBRANCH  21  25
ENDBRANCH  16  19
ENDBRANCH  13  15
BRANCH  13  29
ATOM     29  C8  non d ame     -12.965  14.028  65.780  0.00  0.00    -0.049 C 
ATOM     30  H7  non d ame     -13.027  13.037  65.330  0.00  0.00     0.030 H 
ATOM     31  H8  non d ame     -13.916  14.271  66.256  0.00  0.00     0.030 H 
ATOM     32  H9  non d ame     -12.747  14.763  65.006  0.00  0.00     0.030 H 
ENDBRANCH  13  29
ENDBRANCH  10  13
ENDBRANCH   7   9
BRANCH   7  33
ATOM     33  C11 non d ame      -9.137  18.270  67.247  0.00  0.00    -0.033 C 
ATOM     34  H12 non d ame      -8.143  18.695  67.102  0.00  0.00     0.042 H 
BRANCH  33  35
ATOM     35  C12 non d ame     -10.172  19.293  66.686  0.00  0.00    -0.071 C 
ATOM     36  H13 non d ame     -11.048  19.316  67.334  0.00  0.00     0.028 H 
ATOM     37  H14 non d ame      -9.721  20.285  66.650  0.00  0.00     0.028 H 
ATOM     38  H15 non d ame     -10.470  18.994  65.681  0.00  0.00     0.028 H 
ENDBRANCH  33  35
BRANCH  33  39
ATOM     39  C13 non d ame      -9.344  18.036  68.778  0.00  0.00    -0.071 C 
ATOM     40  H16 non d ame      -8.930  17.068  69.057  0.00  0.00     0.028 H 
ATOM     41  H17 non d ame      -8.838  18.823  69.338  0.00  0.00     0.028 H 
ATOM     42  H18 non d ame     -10.409  18.055  69.006  0.00  0.00     0.028 H 
ENDBRANCH  33  39
ENDBRANCH   7  33
ENDBRANCH   4   7
ENDBRANCH   1   3
BRANCH   1  43
ATOM     43  C15 non d ame      -6.936  12.661  67.368  0.00  0.00     0.240 C 
ATOM     44  O5  non d ame      -6.163  11.831  67.725  0.00  0.00    -0.271 OA
ATOM     45  N6  non d ame      -8.155  12.260  66.608  0.00  0.00    -0.355 N 
ATOM     46  H46 non d ame      -8.821  12.955  66.303  0.00  0.00     0.162 HD
BRANCH  45  47
ATOM     47  C20 non d ame      -8.389  10.834  66.298  0.00  0.00     0.013 C 
ATOM     48  H30 non d ame      -7.605  10.252  66.783  0.00  0.00     0.072 H 
BRANCH  47  49
ATOM     49  C21 non d ame      -8.329  10.631  64.800  0.00  0.00    -0.038 C 
ATOM     50  H31 non d ame      -9.172   9.985  64.556  0.00  0.00     0.036 H 
ATOM     51  H32 non d ame      -8.266  11.632  64.371  0.00  0.00     0.036 H 
BRANCH  49  52
ATOM     52  C22 non d ame      -7.057   9.882  64.347  0.00  0.00     0.018 C 
ATOM     53  H33 non d ame      -6.343  10.656  64.064  0.00  0.00     0.048 H 
ATOM     54  H34 non d ame      -6.819   9.189  65.155  0.00  0.00     0.048 H 
BRANCH  52  55
ATOM     55  C23 non d ame      -7.265   9.008  63.079  0.00  0.00     0.259 C 
ATOM     56  O7  non d ame      -6.583   9.168  62.119  0.00  0.00    -0.265 OA
BRANCH  55  57
ATOM     57  O8  non d ame      -8.290   8.023  63.071  0.00  0.00    -0.317 OA
BRANCH  57  58
ATOM     58  C29 non d ame      -7.858   6.734  62.624  0.00  0.00     0.052 C 
ATOM     59  H47 non d ame      -8.768   6.164  62.442  0.00  0.00     0.082 H 
ATOM     60  H48 non d ame      -7.161   6.924  61.808  0.00  0.00     0.082 H 
BRANCH  58  61
ATOM     61  C35 non d ame      -7.081   6.061  63.786  0.00  0.00    -0.034 A 
ATOM     62  C30 non d ame      -5.710   5.851  63.678  0.00  0.00    -0.075 A 
ATOM     63  C31 non d ame      -5.012   5.246  64.721  0.00  0.00    -0.082 A 
ATOM     64  H49 non d ame      -5.184   6.160  62.775  0.00  0.00     0.084 H 
ATOM     65  C32 non d ame      -5.690   4.848  65.876  0.00  0.00    -0.083 A 
ATOM     66  H50 non d ame      -3.938   5.084  64.634  0.00  0.00     0.083 H 
ATOM     67  C33 non d ame      -7.059   5.057  65.980  0.00  0.00    -0.082 A 
ATOM     68  H51 non d ame      -5.152   4.374  66.697  0.00  0.00     0.083 H 
ATOM     69  C34 non d ame      -7.760   5.664  64.939  0.00  0.00    -0.075 A 
ATOM     70  H52 non d ame      -7.586   4.743  66.881  0.00  0.00     0.083 H 
ATOM     71  H53 non d ame      -8.836   5.825  65.028  0.00  0.00     0.084 H 
ENDBRANCH  58  61
ENDBRANCH  57  58
ENDBRANCH  55  57
ENDBRANCH  52  55
ENDBRANCH  49  52
ENDBRANCH  47  49
BRANCH  47  72
ATOM     72  C24 non d ame      -9.761  10.411  66.815  0.00  0.00    -0.039 C 
ATOM     73  H35 non d ame     -10.254  11.335  67.119  0.00  0.00     0.036 H 
ATOM     74  H36 non d ame     -10.194   9.798  66.024  0.00  0.00     0.036 H 
BRANCH  72  75
ATOM     75  C25 non d ame      -9.645   9.487  68.119  0.00  0.00    -0.001 C 
ATOM     76  C26 non d ame      -9.209   7.961  67.688  0.00  0.00    -0.035 C 
ATOM     77  C27 non d ame     -10.074   7.085  68.251  0.00  0.00     0.085 C 
ATOM     78  H38 non d ame      -9.362   7.818  66.618  0.00  0.00     0.036 H 
ATOM     79  H39 non d ame      -8.252   7.703  68.141  0.00  0.00     0.036 H 
ATOM     80  N5  non d ame     -11.248   7.886  68.759  0.00  0.00    -0.049 N 
ATOM     81  H40 non d ame     -10.408   6.440  67.438  0.00  0.00     0.075 H 
ATOM     82  H41 non d ame      -9.542   6.658  69.102  0.00  0.00     0.075 H 
ATOM     83  C28 non d ame     -10.769   9.428  68.752  0.00  0.00     0.193 C 
ATOM     84  H42 non d ame     -11.985   7.776  68.078  0.00  0.00     0.280 HD
ATOM     85  H43 non d ame     -11.398   7.601  69.716  0.00  0.00     0.280 HD
ATOM     86  H44 non d ame     -10.499   9.928  69.683  0.00  0.00     0.129 H 
ATOM     87  H37 non d ame      -9.067   9.963  68.911  0.00  0.00     0.046 H 
BRANCH  83  88
ATOM     88  O6  non d ame     -11.770  10.252  68.152  0.00  0.00    -0.369 OA
ATOM     89  H45 non d ame     -11.456  11.157  68.109  0.00  0.00     0.212 HD
ENDBRANCH  83  88
ENDBRANCH  72  75
ENDBRANCH  47  72
ENDBRANCH  45  47
ENDBRANCH   1  43
BRANCH   1  90
ATOM     90  C16 non d ame      -6.259  14.288  69.161  0.00  0.00    -0.035 C 
ATOM     91  H21 non d ame      -6.861  15.105  69.561  0.00  0.00     0.037 H 
ATOM     92  H22 non d ame      -6.353  13.287  69.579  0.00  0.00     0.037 H 
BRANCH  90  93
ATOM     93  C17 non d ame      -4.767  14.708  69.350  0.00  0.00    -0.059 C 
ATOM     94  H23 non d ame      -4.232  13.852  69.761  0.00  0.00     0.038 H 
BRANCH  93  95
ATOM     95  C18 non d ame      -4.085  15.092  67.999  0.00  0.00    -0.073 C 
ATOM     96  H24 non d ame      -3.043  14.773  68.014  0.00  0.00     0.028 H 
ATOM     97  H25 non d ame      -4.603  14.597  67.177  0.00  0.00     0.028 H 
ATOM     98  H26 non d ame      -4.134  16.172  67.860  0.00  0.00     0.028 H 
ENDBRANCH  93  95
BRANCH  93  99
ATOM     99  C19 non d ame      -4.644  15.848  70.366  0.00  0.00    -0.073 C 
ATOM    100  H27 non d ame      -3.887  15.593  71.107  0.00  0.00     0.028 H 
ATOM    101  H28 non d ame      -4.356  16.764  69.850  0.00  0.00     0.028 H 
ATOM    102  H29 non d ame      -5.603  15.996  70.862  0.00  0.00     0.028 H 
ENDBRANCH  93  99
ENDBRANCH  90  93
ENDBRANCH   1  90
TORSDOF 26
ENDMDL
MODEL 11
REMARK VINA RESULT:      -6.1      4.032      8.459
REMARK  26 active torsions:
REMARK  status: ('A' for Active; 'I' for Inactive)
REMARK    1  A    between atoms: C2_2  and  C3_3 
REMARK    2  A    between atoms: C4_6  and  C5_7 
REMARK       I    between atoms: C5_7  and  N2_9 
REMARK    3  A    between atoms: N2_9  and  C6_10 
REMARK    4  A    between atoms: C6_10  and  C7_11 
REMARK    5  A    between atoms: C6_10  and  C8_13 
REMARK       I    between atoms: C7_11  and  N3_14 
REMARK    6  A    between atoms: N3_14  and  C9_15 
REMARK    7  A    between atoms: C9_15  and  C10_16 
REMARK    8  A    between atoms: C9_15  and  C11_18 
REMARK       I    between atoms: C10_16  and  N4_21 
REMARK    9  A    between atoms: C11_18  and  C12_19 
REMARK   10  A    between atoms: C11_18  and  C13_20 
REMARK   11  A    between atoms: N4_21  and  C14_22 
REMARK   12  A    between atoms: C14_22  and  C15_23 
REMARK   13  A    between atoms: C14_22  and  C16_25 
REMARK       I    between atoms: C15_23  and  N6_40 
REMARK   14  A    between atoms: C16_25  and  C17_26 
REMARK   15  A    between atoms: C17_26  and  C18_27 
REMARK   16  A    between atoms: C17_26  and  C19_28 
REMARK   17  A    between atoms: C20_29  and  C21_30 
REMARK   18  A    between atoms: C20_29  and  C24_33 
REMARK   19  A    between atoms: C20_29  and  N6_40 
REMARK   20  A    between atoms: C21_30  and  C22_31 
REMARK   21  A    between atoms: C22_31  and  C23_32 
REMARK   22  A    between atoms: C23_32  and  O8_43 
REMARK   23  A    between atoms: C24_33  and  C25_34 
REMARK   24  A    between atoms: C28_38  and  O6_39 
REMARK   25  A    between atoms: C29_42  and  O8_43 
REMARK   26  A    between atoms: C29_42  and  C35_49 
ROOT
ATOM      1  C14 non d ame      -7.131   9.874  65.204  0.00  0.00     0.089 C 
ATOM      2  H20 non d ame      -6.233   9.976  65.812  0.00  0.00     0.087 H 
ENDROOT
BRANCH   1   3
ATOM      3  N4  non d ame      -7.361   8.453  64.994  0.00  0.00    -0.346 N 
ATOM      4  C10 non d ame      -6.251   7.459  65.230  0.00  0.00     0.241 C 
ATOM      5  O4  non d ame      -5.180   7.829  65.586  0.00  0.00    -0.271 OA
ATOM      6  H19 non d ame      -8.279   8.160  64.689  0.00  0.00     0.163 HD
BRANCH   4   7
ATOM      7  C9  non d ame      -6.508   5.991  65.014  0.00  0.00     0.092 C 
ATOM      8  H11 non d ame      -5.828   5.412  65.639  0.00  0.00     0.088 H 
BRANCH   7   9
ATOM      9  N3  non d ame      -7.872   5.665  65.440  0.00  0.00    -0.346 N 
ATOM     10  C7  non d ame      -8.112   4.509  66.268  0.00  0.00     0.240 C 
ATOM     11  O3  non d ame      -7.219   3.829  66.600  0.00  0.00    -0.271 OA
ATOM     12  H10 non d ame      -8.652   6.241  65.160  0.00  0.00     0.163 HD
BRANCH  10  13
ATOM     13  C6  non d ame      -9.566   4.166  66.716  0.00  0.00     0.086 C 
ATOM     14  H6  non d ame      -9.652   3.167  67.144  0.00  0.00     0.086 H 
BRANCH  13  15
ATOM     15  N2  non d ame      -9.972   5.099  67.754  0.00  0.00    -0.343 N 
ATOM     16  C5  non d ame     -10.000   4.657  69.150  0.00  0.00     0.273 C 
ATOM     17  O2  non d ame      -9.695   3.549  69.427  0.00  0.00    -0.266 OA
ATOM     18  H5  non d ame     -10.233   6.043  67.509  0.00  0.00     0.163 HD
BRANCH  16  19
ATOM     19  C4  non d ame     -10.424   5.633  70.258  0.00  0.00     0.154 A 
ATOM     20  C1  non d ame      -9.671   6.007  71.417  0.00  0.00    -0.017 A 
ATOM     21  C2  non d ame     -10.498   6.919  72.109  0.00  0.00     0.077 A 
ATOM     22  H1  non d ame      -8.677   5.668  71.710  0.00  0.00     0.091 H 
ATOM     23  O1  non d ame     -11.594   7.049  71.420  0.00  0.00    -0.218 OA
ATOM     24  N1  non d ame     -11.575   6.307  70.336  0.00  0.00    -0.123 NA
BRANCH  21  25
ATOM     25  C3  non d ame     -10.166   7.623  73.418  0.00  0.00    -0.029 C 
ATOM     26  H2  non d ame     -10.698   8.574  73.466  0.00  0.00     0.036 H 
ATOM     27  H3  non d ame     -10.469   6.994  74.255  0.00  0.00     0.036 H 
ATOM     28  H4  non d ame      -9.092   7.804  73.471  0.00  0.00     0.036 H 
ENDBRANCH  21  25
ENDBRANCH  16  19
ENDBRANCH  13  15
BRANCH  13  29
ATOM     29  C8  non d ame     -10.497   4.272  65.535  0.00  0.00    -0.049 C 
ATOM     30  H7  non d ame     -10.890   5.287  65.471  0.00  0.00     0.030 H 
ATOM     31  H8  non d ame      -9.952   4.035  64.620  0.00  0.00     0.030 H 
ATOM     32  H9  non d ame     -11.322   3.571  65.658  0.00  0.00     0.030 H 
ENDBRANCH  13  29
ENDBRANCH  10  13
ENDBRANCH   7   9
BRANCH   7  33
ATOM     33  C11 non d ame      -6.344   5.652  63.503  0.00  0.00    -0.033 C 
ATOM     34  H12 non d ame      -6.030   4.611  63.432  0.00  0.00     0.042 H 
BRANCH  33  35
ATOM     35  C12 non d ame      -7.698   5.787  62.740  0.00  0.00    -0.071 C 
ATOM     36  H13 non d ame      -8.328   4.926  62.963  0.00  0.00     0.028 H 
ATOM     37  H14 non d ame      -8.205   6.699  63.057  0.00  0.00     0.028 H 
ATOM     38  H15 non d ame      -7.508   5.832  61.668  0.00  0.00     0.028 H 
ENDBRANCH  33  35
BRANCH  33  39
ATOM     39  C13 non d ame      -5.235   6.537  62.849  0.00  0.00    -0.071 C 
ATOM     40  H16 non d ame      -4.431   6.701  63.566  0.00  0.00     0.028 H 
ATOM     41  H17 non d ame      -4.839   6.032  61.968  0.00  0.00     0.028 H 
ATOM     42  H18 non d ame      -5.662   7.496  62.556  0.00  0.00     0.028 H 
ENDBRANCH  33  39
ENDBRANCH   7  33
ENDBRANCH   4   7
ENDBRANCH   1   3
BRANCH   1  43
ATOM     43  C15 non d ame      -8.383  10.481  65.899  0.00  0.00     0.240 C 
ATOM     44  O5  non d ame      -9.418   9.896  65.869  0.00  0.00    -0.271 OA
ATOM     45  N6  non d ame      -8.292  11.788  66.611  0.00  0.00    -0.355 N 
ATOM     46  H46 non d ame      -7.418  12.292  66.647  0.00  0.00     0.162 HD
BRANCH  45  47
ATOM     47  C20 non d ame      -9.491  12.350  67.268  0.00  0.00     0.013 C 
ATOM     48  H30 non d ame     -10.339  12.205  66.599  0.00  0.00     0.072 H 
BRANCH  47  49
ATOM     49  C21 non d ame      -9.278  13.826  67.519  0.00  0.00    -0.038 C 
ATOM     50  H31 non d ame      -9.599  14.000  68.547  0.00  0.00     0.036 H 
ATOM     51  H32 non d ame      -8.247  14.028  67.228  0.00  0.00     0.036 H 
BRANCH  49  52
ATOM     52  C22 non d ame     -10.166  14.720  66.627  0.00  0.00     0.018 C 
ATOM     53  H33 non d ame      -9.503  15.123  65.860  0.00  0.00     0.048 H 
ATOM     54  H34 non d ame     -11.017  14.101  66.342  0.00  0.00     0.048 H 
BRANCH  52  55
ATOM     55  C23 non d ame     -10.759  15.950  67.367  0.00  0.00     0.259 C 
ATOM     56  O7  non d ame     -10.497  17.053  67.011  0.00  0.00    -0.265 OA
BRANCH  55  57
ATOM     57  O8  non d ame     -11.611  15.746  68.488  0.00  0.00    -0.317 OA
BRANCH  57  58
ATOM     58  C29 non d ame     -11.074  16.226  69.724  0.00  0.00     0.052 C 
ATOM     59  H47 non d ame     -10.110  15.731  69.840  0.00  0.00     0.082 H 
ATOM     60  H48 non d ame     -11.123  17.314  69.664  0.00  0.00     0.082 H 
BRANCH  58  61
ATOM     61  C35 non d ame     -12.010  15.756  70.868  0.00  0.00    -0.034 A 
ATOM     62  C30 non d ame     -13.255  15.212  70.570  0.00  0.00    -0.075 A 
ATOM     63  C31 non d ame     -14.097  14.789  71.598  0.00  0.00    -0.082 A 
ATOM     64  H49 non d ame     -13.572  15.118  69.532  0.00  0.00     0.084 H 
ATOM     65  C32 non d ame     -13.690  14.914  72.929  0.00  0.00    -0.083 A 
ATOM     66  H50 non d ame     -15.071  14.363  71.361  0.00  0.00     0.083 H 
ATOM     67  C33 non d ame     -12.447  15.460  73.222  0.00  0.00    -0.082 A 
ATOM     68  H51 non d ame     -14.341  14.586  73.739  0.00  0.00     0.083 H 
ATOM     69  C34 non d ame     -11.602  15.881  72.198  0.00  0.00    -0.075 A 
ATOM     70  H52 non d ame     -12.133  15.558  74.262  0.00  0.00     0.083 H 
ATOM     71  H53 non d ame     -10.627  16.308  72.436  0.00  0.00     0.084 H 
ENDBRANCH  58  61
ENDBRANCH  57  58
ENDBRANCH  55  57
ENDBRANCH  52  55
ENDBRANCH  49  52
ENDBRANCH  47  49
BRANCH  47  72
ATOM     72  C24 non d ame      -9.734  11.637  68.596  0.00  0.00    -0.039 C 
ATOM     73  H35 non d ame      -9.109  10.745  68.566  0.00  0.00     0.036 H 
ATOM     74  H36 non d ame      -9.570  12.391  69.366  0.00  0.00     0.036 H 
BRANCH  72  75
ATOM     75  C25 non d ame     -11.253  11.144  68.734  0.00  0.00    -0.001 C 
ATOM     76  C26 non d ame     -11.955  11.851  70.042  0.00  0.00    -0.035 C 
ATOM     77  C27 non d ame     -12.524  10.888  70.806  0.00  0.00     0.085 C 
ATOM     78  H38 non d ame     -11.190  12.273  70.693  0.00  0.00     0.036 H 
ATOM     79  H39 non d ame     -12.802  12.462  69.727  0.00  0.00     0.036 H 
ATOM     80  N5  non d ame     -11.997   9.563  70.312  0.00  0.00    -0.049 N 
ATOM     81  H40 non d ame     -12.157  11.063  71.817  0.00  0.00     0.075 H 
ATOM     82  H41 non d ame     -13.593  10.944  70.596  0.00  0.00     0.075 H 
ATOM     83  C28 non d ame     -11.316   9.862  68.878  0.00  0.00     0.193 C 
ATOM     84  H42 non d ame     -11.273   9.284  70.959  0.00  0.00     0.280 HD
ATOM     85  H43 non d ame     -12.801   8.969  70.168  0.00  0.00     0.280 HD
ATOM     86  H44 non d ame     -11.825   9.583  67.955  0.00  0.00     0.129 H 
ATOM     87  H37 non d ame     -11.793  11.201  67.789  0.00  0.00     0.046 H 
BRANCH  83  88
ATOM     88  O6  non d ame     -10.030   9.246  68.806  0.00  0.00    -0.369 OA
ATOM     89  H45 non d ame      -9.692   9.105  69.693  0.00  0.00     0.212 HD
ENDBRANCH  83  88
ENDBRANCH  72  75
ENDBRANCH  47  72
ENDBRANCH  45  47
ENDBRANCH   1  43
BRANCH   1  90
ATOM     90  C16 non d ame      -6.919  10.547  63.856  0.00  0.00    -0.035 C 
ATOM     91  H21 non d ame      -7.196  11.591  64.008  0.00  0.00     0.037 H 
ATOM     92  H22 non d ame      -5.902  10.291  63.563  0.00  0.00     0.037 H 
BRANCH  90  93
ATOM     93  C17 non d ame      -7.854  10.003  62.730  0.00  0.00    -0.059 C 
ATOM     94  H23 non d ame      -8.383   9.137  63.130  0.00  0.00     0.038 H 
BRANCH  93  95
ATOM     95  C18 non d ame      -8.922  11.053  62.290  0.00  0.00    -0.073 C 
ATOM     96  H24 non d ame      -9.610  11.240  63.116  0.00  0.00     0.028 H 
ATOM     97  H25 non d ame      -8.426  11.984  62.016  0.00  0.00     0.028 H 
ATOM     98  H26 non d ame      -9.477  10.671  61.434  0.00  0.00     0.028 H 
ENDBRANCH  93  95
BRANCH  93  99
ATOM     99  C19 non d ame      -7.037   9.520  61.528  0.00  0.00    -0.073 C 
ATOM    100  H27 non d ame      -6.083  10.045  61.503  0.00  0.00     0.028 H 
ATOM    101  H28 non d ame      -6.860   8.448  61.616  0.00  0.00     0.028 H 
ATOM    102  H29 non d ame      -7.588   9.723  60.610  0.00  0.00     0.028 H 
ENDBRANCH  93  99
ENDBRANCH  90  93
ENDBRANCH   1  90
TORSDOF 26
ENDMDL
MODEL 12
REMARK VINA RESULT:      -6.1      4.037      7.923
REMARK  26 active torsions:
REMARK  status: ('A' for Active; 'I' for Inactive)
REMARK    1  A    between atoms: C2_2  and  C3_3 
REMARK    2  A    between atoms: C4_6  and  C5_7 
REMARK       I    between atoms: C5_7  and  N2_9 
REMARK    3  A    between atoms: N2_9  and  C6_10 
REMARK    4  A    between atoms: C6_10  and  C7_11 
REMARK    5  A    between atoms: C6_10  and  C8_13 
REMARK       I    between atoms: C7_11  and  N3_14 
REMARK    6  A    between atoms: N3_14  and  C9_15 
REMARK    7  A    between atoms: C9_15  and  C10_16 
REMARK    8  A    between atoms: C9_15  and  C11_18 
REMARK       I    between atoms: C10_16  and  N4_21 
REMARK    9  A    between atoms: C11_18  and  C12_19 
REMARK   10  A    between atoms: C11_18  and  C13_20 
REMARK   11  A    between atoms: N4_21  and  C14_22 
REMARK   12  A    between atoms: C14_22  and  C15_23 
REMARK   13  A    between atoms: C14_22  and  C16_25 
REMARK       I    between atoms: C15_23  and  N6_40 
REMARK   14  A    between atoms: C16_25  and  C17_26 
REMARK   15  A    between atoms: C17_26  and  C18_27 
REMARK   16  A    between atoms: C17_26  and  C19_28 
REMARK   17  A    between atoms: C20_29  and  C21_30 
REMARK   18  A    between atoms: C20_29  and  C24_33 
REMARK   19  A    between atoms: C20_29  and  N6_40 
REMARK   20  A    between atoms: C21_30  and  C22_31 
REMARK   21  A    between atoms: C22_31  and  C23_32 
REMARK   22  A    between atoms: C23_32  and  O8_43 
REMARK   23  A    between atoms: C24_33  and  C25_34 
REMARK   24  A    between atoms: C28_38  and  O6_39 
REMARK   25  A    between atoms: C29_42  and  O8_43 
REMARK   26  A    between atoms: C29_42  and  C35_49 
ROOT
ATOM      1  C14 non d ame      -8.229   6.214  63.640  0.00  0.00     0.089 C 
ATOM      2  H20 non d ame      -8.850   6.343  62.754  0.00  0.00     0.087 H 
ENDROOT
BRANCH   1   3
ATOM      3  N4  non d ame      -8.230   7.475  64.366  0.00  0.00    -0.346 N 
ATOM      4  C10 non d ame      -8.582   8.760  63.659  0.00  0.00     0.241 C 
ATOM      5  O4  non d ame      -8.858   8.753  62.504  0.00  0.00    -0.271 OA
ATOM      6  H19 non d ame      -7.989   7.459  65.347  0.00  0.00     0.163 HD
BRANCH   4   7
ATOM      7  C9  non d ame      -8.583  10.056  64.426  0.00  0.00     0.092 C 
ATOM      8  H11 non d ame      -8.106  10.829  63.824  0.00  0.00     0.088 H 
BRANCH   7   9
ATOM      9  N3  non d ame      -9.966  10.484  64.660  0.00  0.00    -0.346 N 
ATOM     10  C7  non d ame     -10.514  11.591  63.918  0.00  0.00     0.240 C 
ATOM     11  O3  non d ame      -9.856  12.152  63.128  0.00  0.00    -0.271 OA
ATOM     12  H10 non d ame     -10.545  10.011  65.340  0.00  0.00     0.163 HD
BRANCH  10  13
ATOM     13  C6  non d ame     -11.985  12.044  64.175  0.00  0.00     0.086 C 
ATOM     14  H6  non d ame     -12.701  11.228  64.076  0.00  0.00     0.086 H 
BRANCH  13  15
ATOM     15  N2  non d ame     -12.096  12.531  65.540  0.00  0.00    -0.343 N 
ATOM     16  C5  non d ame     -11.487  13.814  65.898  0.00  0.00     0.273 C 
ATOM     17  O2  non d ame     -10.909  14.445  65.083  0.00  0.00    -0.266 OA
ATOM     18  H5  non d ame     -12.590  11.986  66.231  0.00  0.00     0.163 HD
BRANCH  16  19
ATOM     19  C4  non d ame     -11.599  14.343  67.337  0.00  0.00     0.154 A 
ATOM     20  C1  non d ame     -11.982  13.606  68.502  0.00  0.00    -0.017 A 
ATOM     21  C2  non d ame     -11.927  14.541  69.559  0.00  0.00     0.077 A 
ATOM     22  H1  non d ame     -12.259  12.553  68.570  0.00  0.00     0.091 H 
ATOM     23  O1  non d ame     -11.552  15.679  69.051  0.00  0.00    -0.218 OA
ATOM     24  N1  non d ame     -11.356  15.589  67.755  0.00  0.00    -0.123 NA
BRANCH  21  25
ATOM     25  C3  non d ame     -12.243  14.267  71.023  0.00  0.00    -0.029 C 
ATOM     26  H2  non d ame     -11.886  15.097  71.635  0.00  0.00     0.036 H 
ATOM     27  H3  non d ame     -13.321  14.163  71.148  0.00  0.00     0.036 H 
ATOM     28  H4  non d ame     -11.751  13.346  71.336  0.00  0.00     0.036 H 
ENDBRANCH  21  25
ENDBRANCH  16  19
ENDBRANCH  13  15
BRANCH  13  29
ATOM     29  C8  non d ame     -12.355  13.137  63.205  0.00  0.00    -0.049 C 
ATOM     30  H7  non d ame     -13.223  13.678  63.581  0.00  0.00     0.030 H 
ATOM     31  H8  non d ame     -11.516  13.826  63.098  0.00  0.00     0.030 H 
ATOM     32  H9  non d ame     -12.592  12.699  62.237  0.00  0.00     0.030 H 
ENDBRANCH  13  29
ENDBRANCH  10  13
ENDBRANCH   7   9
BRANCH   7  33
ATOM     33  C11 non d ame      -7.867   9.851  65.793  0.00  0.00    -0.033 C 
ATOM     34  H12 non d ame      -7.910   8.788  66.030  0.00  0.00     0.042 H 
BRANCH  33  35
ATOM     35  C12 non d ame      -6.362  10.253  65.711  0.00  0.00    -0.071 C 
ATOM     36  H13 non d ame      -6.159  10.707  64.741  0.00  0.00     0.028 H 
ATOM     37  H14 non d ame      -6.133  10.968  66.501  0.00  0.00     0.028 H 
ATOM     38  H15 non d ame      -5.742   9.365  65.835  0.00  0.00     0.028 H 
ENDBRANCH  33  35
BRANCH  33  39
ATOM     39  C13 non d ame      -8.601  10.630  66.931  0.00  0.00    -0.071 C 
ATOM     40  H16 non d ame      -7.911  10.802  67.756  0.00  0.00     0.028 H 
ATOM     41  H17 non d ame      -8.955  11.587  66.546  0.00  0.00     0.028 H 
ATOM     42  H18 non d ame      -9.449  10.043  67.282  0.00  0.00     0.028 H 
ENDBRANCH  33  39
ENDBRANCH   7  33
ENDBRANCH   4   7
ENDBRANCH   1   3
BRANCH   1  43
ATOM     43  C15 non d ame      -8.774   5.101  64.581  0.00  0.00     0.240 C 
ATOM     44  O5  non d ame      -9.534   4.289  64.159  0.00  0.00    -0.271 OA
ATOM     45  N6  non d ame      -8.343   5.041  66.007  0.00  0.00    -0.355 N 
ATOM     46  H46 non d ame      -7.695   5.723  66.376  0.00  0.00     0.162 HD
BRANCH  45  47
ATOM     47  C20 non d ame      -8.869   3.977  66.888  0.00  0.00     0.013 C 
ATOM     48  H30 non d ame      -9.442   3.284  66.271  0.00  0.00     0.072 H 
BRANCH  47  49
ATOM     49  C21 non d ame      -9.765   4.594  67.938  0.00  0.00    -0.038 C 
ATOM     50  H31 non d ame     -10.783   4.330  67.649  0.00  0.00     0.036 H 
ATOM     51  H32 non d ame      -9.366   4.260  68.897  0.00  0.00     0.036 H 
BRANCH  49  52
ATOM     52  C22 non d ame      -9.699   6.136  67.951  0.00  0.00     0.018 C 
ATOM     53  H33 non d ame      -9.046   6.411  67.122  0.00  0.00     0.048 H 
ATOM     54  H34 non d ame     -10.735   6.476  67.965  0.00  0.00     0.048 H 
BRANCH  52  55
ATOM     55  C23 non d ame      -9.038   6.723  69.229  0.00  0.00     0.259 C 
ATOM     56  O7  non d ame      -8.607   6.003  70.070  0.00  0.00    -0.265 OA
BRANCH  55  57
ATOM     57  O8  non d ame      -8.965   8.134  69.391  0.00  0.00    -0.317 OA
BRANCH  57  58
ATOM     58  C29 non d ame      -9.041   8.570  70.752  0.00  0.00     0.052 C 
ATOM     59  H47 non d ame      -8.850   7.684  71.357  0.00  0.00     0.082 H 
ATOM     60  H48 non d ame      -8.377   9.431  70.823  0.00  0.00     0.082 H 
BRANCH  58  61
ATOM     61  C35 non d ame     -10.493   9.046  71.022  0.00  0.00    -0.034 A 
ATOM     62  C30 non d ame     -11.010  10.134  70.326  0.00  0.00    -0.075 A 
ATOM     63  C31 non d ame     -12.314  10.562  70.568  0.00  0.00    -0.082 A 
ATOM     64  H49 non d ame     -10.393  10.651  69.591  0.00  0.00     0.084 H 
ATOM     65  C32 non d ame     -13.102   9.899  71.512  0.00  0.00    -0.083 A 
ATOM     66  H50 non d ame     -12.716  11.414  70.020  0.00  0.00     0.083 H 
ATOM     67  C33 non d ame     -12.581   8.816  72.207  0.00  0.00    -0.082 A 
ATOM     68  H51 non d ame     -14.123  10.227  71.708  0.00  0.00     0.083 H 
ATOM     69  C34 non d ame     -11.279   8.383  71.966  0.00  0.00    -0.075 A 
ATOM     70  H52 non d ame     -13.198   8.302  72.945  0.00  0.00     0.083 H 
ATOM     71  H53 non d ame     -10.877   7.530  72.515  0.00  0.00     0.084 H 
ENDBRANCH  58  61
ENDBRANCH  57  58
ENDBRANCH  55  57
ENDBRANCH  52  55
ENDBRANCH  49  52
ENDBRANCH  47  49
BRANCH  47  72
ATOM     72  C24 non d ame      -7.711   3.250  67.568  0.00  0.00    -0.039 C 
ATOM     73  H35 non d ame      -7.942   3.269  68.633  0.00  0.00     0.036 H 
ATOM     74  H36 non d ame      -7.620   2.296  67.047  0.00  0.00     0.036 H 
BRANCH  72  75
ATOM     75  C25 non d ame      -6.325   4.029  67.371  0.00  0.00    -0.001 C 
ATOM     76  C26 non d ame      -5.249   3.069  66.580  0.00  0.00    -0.035 C 
ATOM     77  C27 non d ame      -4.092   3.041  67.282  0.00  0.00     0.085 C 
ATOM     78  H38 non d ame      -5.587   2.033  66.604  0.00  0.00     0.036 H 
ATOM     79  H39 non d ame      -4.963   3.528  65.634  0.00  0.00     0.036 H 
ATOM     80  N5  non d ame      -4.384   3.628  68.641  0.00  0.00    -0.049 N 
ATOM     81  H40 non d ame      -3.845   1.985  67.397  0.00  0.00     0.075 H 
ATOM     82  H41 non d ame      -3.412   3.705  66.748  0.00  0.00     0.075 H 
ATOM     83  C28 non d ame      -5.814   4.368  68.507  0.00  0.00     0.193 C 
ATOM     84  H42 non d ame      -4.485   2.848  69.275  0.00  0.00     0.280 HD
ATOM     85  H43 non d ame      -3.676   4.327  68.811  0.00  0.00     0.280 HD
ATOM     86  H44 non d ame      -5.870   5.454  68.435  0.00  0.00     0.129 H 
ATOM     87  H37 non d ame      -6.470   5.037  66.981  0.00  0.00     0.046 H 
BRANCH  83  88
ATOM     88  O6  non d ame      -6.656   4.014  69.605  0.00  0.00    -0.369 OA
ATOM     89  H45 non d ame      -7.573   4.166  69.367  0.00  0.00     0.212 HD
ENDBRANCH  83  88
ENDBRANCH  72  75
ENDBRANCH  47  72
ENDBRANCH  45  47
ENDBRANCH   1  43
BRANCH   1  90
ATOM     90  C16 non d ame      -6.804   5.880  63.226  0.00  0.00    -0.035 C 
ATOM     91  H21 non d ame      -6.619   4.877  63.612  0.00  0.00     0.037 H 
ATOM     92  H22 non d ame      -6.764   6.067  62.154  0.00  0.00     0.037 H 
BRANCH  90  93
ATOM     93  C17 non d ame      -5.729   6.807  63.877  0.00  0.00    -0.059 C 
ATOM     94  H23 non d ame      -6.238   7.445  64.601  0.00  0.00     0.038 H 
BRANCH  93  95
ATOM     95  C18 non d ame      -4.635   5.996  64.642  0.00  0.00    -0.073 C 
ATOM     96  H24 non d ame      -5.076   5.087  65.051  0.00  0.00     0.028 H 
ATOM     97  H25 non d ame      -3.832   5.732  63.955  0.00  0.00     0.028 H 
ATOM     98  H26 non d ame      -4.234   6.603  65.453  0.00  0.00     0.028 H 
ENDBRANCH  93  95
BRANCH  93  99
ATOM     99  C19 non d ame      -5.094   7.726  62.830  0.00  0.00    -0.073 C 
ATOM    100  H27 non d ame      -4.121   8.064  63.186  0.00  0.00     0.028 H 
ATOM    101  H28 non d ame      -4.971   7.180  61.895  0.00  0.00     0.028 H 
ATOM    102  H29 non d ame      -5.740   8.588  62.665  0.00  0.00     0.028 H 
ENDBRANCH  93  99
ENDBRANCH  90  93
ENDBRANCH   1  90
TORSDOF 26
ENDMDL
